data_image0
_chemical_formula_structural       HCFeH3CHCFeS3H4SH2FeS2FeSFeSC5H3SCHC6H4C6H4S2HCHFeC3H2SC2H2CH2SC2HSFeH2NH3SFeHSH4SH5C2H3FeH3C2H7C2H2C4HNH5C2NH4CHC2HCH4CHCHCH2CH3CHCH2CNHCHNHC2H3CH8CHC3H13CSHFeS2FeS2FeSFeS3H2CSHCH2FeS2FeS2FeSFeS3C2H2C3H2FeHCH2C6H6CH2C6H5C2H2CH3C3HCHC6H5CHCHC2H3CHCHCH7CH3CHCH3C2HNH2C2H7C2HC2HCNCHNCFeC5FeH7CHCH2CH4C2HNCHCHCHCH6C2H2CHNH2CNH5C2SCHFeH2SC3H3CH3CSCH4CH2CHCH2C3H3CH2CHCH2CSHSHCH6SFeSHS3H4SNHFeS2FeSFeSH2FeH3C6H3CHC6H4C6NH3FeH2CHFeH4C2HSH2NC2H2FeHSHNSH5S2HSFeCH7CHCS2CHCHFeCH3FeCHC2NH2C3H2NH4CHSC6H2CH2C3H6SCH3C2HCHCH2CHCH3C2HSH2C3H3CH3CHCHC2H2CH2SH7CSHCH5SH2CFeH2CH3SCHFeS2FeS2FeSFeS3HSHS2HSC6H4CH2NH5C6H3SHC4H6C2FeH2FeHCHC2H3CH3NH2SCHSH7CSHFeH5CHCH5C2HC4H5SH3CH3CHSHFeCH2CHCH2C2HC2H2CHCNH2C2H2CNC3HC3H9C2H2CH4CH2CHCH2SCFeS2FeS2FeSFeS3H6C2FeS2FeS2FeSFeS3HC2HSH2SC3HFeHCHCH2C7H3C6H8C7H4CHC2HCHC5H3C4HCH3SCNC3H7CHCH7SHNH5CHNC8H24FeHFeC3H2CH2CHCNCH2C2H3CHSHCHC4H3C4NHCH8CH9CHC2SH8CHS2NFeSHC2HCHFeH2SFeHCH4CHCFeSHFeS2FeSFeS3H2FeSHS2C6H4C2H2FeCHCH2CHNC7H3C3H2CH2NC6HCH15CFeSHC3H7SC3H3CH4CH3CFeCHCH2C2HSCHSH2CNC6H5S2HFeH5CSH12NC8H19CSH2NH5CHCHCH6CH2CH4CH4C2H2CH6C4Fe2SH2FeHFeS2FeS2FeSFeS3HSFeSH4NCHC4HSHC2H2C6H2SHC6H8CHC2SHCH2NC5HC2H12SH7C4NH4SCH6FeCH2CSC2H3C2H2NC7H15CNH2C2SHCHSCHFeH5C2H4C3H3CHCH2CH3SCH2CH6SHCH2NC2H2CH2C2HC2H2CH5CH2CH3S2H2SCS2HC2H5CSFeH3SCFeSFeS2FeH2CH6C3SCSC6HC2HC6H6C2H2CH2CHCH2FeHSHC6H6C2FeC3H5SHC2HCH4CHFeH2S2CHCHCHCHCFeNC4HCSH14NHCH2CHC2H4FeH2C2HNH2NH3CHCHC2SHCH4CH2FeCSFe2HSCHSCHCSH2SH9CH4SCHCH4CH7CHFeSHFeS2FeS2FeSFeS4H3CHSFeSC5HNH3FeH3C3H2C6HCH2C6H6CH5CHCH3CH2FeH4SCH2CNCH2CH2NHCHCNH11CHC2NH3CHCSC5H3C2SH2CH9CHCH4SHCH4SH4C2HCHCHC2H3C2HSH3CHCHC2HCHC2H3SH2CFeH5CH2CHCHCHCFeH3SC2HCFeS2FeS2FeSFeS3CHCHSHFeSCHCH2S2FeC2H2CSHCH6C2HCSCH2CH3C2H4C6H4C3HCNC3HCH6C2H3NHC7H2CHSH4C3H7FeHSHSH2CH4C2HSC2HCHCHCHCH2N2HCH2CH2CNHC4SHCH11CH3CH9FeH8CH3CHCH2CH3SH2C2HFeHC2FeH3C3H6CH4CFeH2CSH3FeSCS3C2H2CFeSHFeH3CHSHS3C5SH4C7H2C7H3CH2C6H3CHCHCH2C3HNHC2H4C6H11CH3C2HNC2H2C2HCNCSH3SHS2H3FeH4CH3FeHFeHSFe3SC2HC2H10NC2HC3HC2H2CH2SH2NHC2HCH3CH2CH2CHCHCH2CSCH2CHCS2H2CNH5CH4CHC2H8FeH2C2H4FeC2H2CH5FeS2FeS2FeSFeS3FeH2FeCSNCH2S2CHSFeHCSH3CHCH8CS2HC3H2CHNC3HSH2C6H7CH2CHNHC2HC2H2C2HSH4CHCH2CH8NHC2SCSH2C2HC2HSCH3C2H3C2HC2H4CH6CH4CH3CH6CFeCHCSHC4NCHNH2FeHCH3CH2CHCH4CH4SHFeH3CH3
_chemical_formula_sum              "H1536 C896 Fe128 S256 N64"
_cell_length_a       37.7634
_cell_length_b       40.5308
_cell_length_c       68.2141
_cell_angle_alpha    90.3606
_cell_angle_beta     90.6846
_cell_angle_gamma    90.3985

_space_group_name_H-M_alt    "P 1"
_space_group_IT_number       1

loop_
  _space_group_symop_operation_xyz
  'x, y, z'

loop_
  _atom_site_type_symbol
  _atom_site_label
  _atom_site_symmetry_multiplicity
  _atom_site_fract_x
  _atom_site_fract_y
  _atom_site_fract_z
  _atom_site_occupancy
  H   H1        1.0  0.49544  0.23607  0.27636  1.0000
  C   C1        1.0  0.42390  0.10832  0.25970  1.0000
  Fe  Fe1       1.0  0.10864  0.48066  0.32919  1.0000
  H   H2        1.0  0.17790  0.16730  0.34209  1.0000
  H   H3        1.0  0.45101  0.04841  0.16046  1.0000
  H   H4        1.0  0.20263  0.50394  0.15693  1.0000
  C   C2        1.0  0.45243  0.11516  0.12506  1.0000
  H   H5        1.0  0.38915  0.02680  0.18064  1.0000
  C   C3        1.0  0.21868  0.42662  0.03783  1.0000
  Fe  Fe2       1.0  0.17372  0.40081  0.13196  1.0000
  S   S1        1.0  0.13105  0.38213  0.15231  1.0000
  S   S2        1.0  0.30930  0.38778  0.13660  1.0000
  S   S3        1.0  0.21200  0.36699  0.11703  1.0000
  H   H6        1.0  0.32142  0.23141  0.34246  1.0000
  H   H7        1.0  0.00717  0.36695  0.10939  1.0000
  H   H8        1.0  0.45522  0.14580  0.24364  1.0000
  H   H9        1.0  0.25134  0.32285  0.06716  1.0000
  S   S4        1.0  0.21631  0.43429  0.14419  1.0000
  H   H10       1.0  0.41463  0.04206  0.26676  1.0000
  H   H11       1.0  0.49805  0.10449  0.24728  1.0000
  Fe  Fe3       1.0  0.39323  0.22006  0.17664  1.0000
  S   S5        1.0  0.39503  0.18931  0.20403  1.0000
  S   S6        1.0  0.34048  0.24373  0.16883  1.0000
  Fe  Fe4       1.0  0.41734  0.14937  0.18509  1.0000
  S   S7        1.0  0.40298  0.09535  0.18879  1.0000
  Fe  Fe5       1.0  0.45124  0.20723  0.20747  1.0000
  S   S8        1.0  0.41184  0.17844  0.15744  1.0000
  C   C4        1.0  0.34827  0.04244  0.13687  1.0000
  C   C5        1.0  0.35062  0.07699  0.13730  1.0000
  C   C6        1.0  0.36701  0.09343  0.15323  1.0000
  C   C7        1.0  0.38101  0.07546  0.16892  1.0000
  C   C8        1.0  0.37835  0.04091  0.16859  1.0000
  H   H12       1.0  0.49080  0.11716  0.34143  1.0000
  H   H13       1.0  0.33965  0.09110  0.12530  1.0000
  H   H14       1.0  0.36824  0.12004  0.15349  1.0000
  S   S9        1.0  0.16417  0.49919  0.33583  1.0000
  C   C9        1.0  0.23069  0.27427  0.07059  1.0000
  H   H15       1.0  0.41155  0.15824  0.25002  1.0000
  C   C10       1.0  0.31765  0.34840  0.14669  1.0000
  C   C11       1.0  0.29007  0.32629  0.15056  1.0000
  C   C12       1.0  0.29761  0.29466  0.15782  1.0000
  C   C13       1.0  0.33273  0.28475  0.16124  1.0000
  C   C14       1.0  0.36036  0.30692  0.15752  1.0000
  C   C15       1.0  0.35279  0.33864  0.15027  1.0000
  H   H16       1.0  0.26291  0.33356  0.14801  1.0000
  H   H17       1.0  0.27610  0.27765  0.16068  1.0000
  H   H18       1.0  0.38748  0.29953  0.16007  1.0000
  H   H19       1.0  0.37427  0.35564  0.14734  1.0000
  C   C16       1.0  0.03407  0.44846  0.15595  1.0000
  C   C17       1.0  0.03726  0.42170  0.16867  1.0000
  C   C18       1.0  0.06690  0.40090  0.16736  1.0000
  C   C19       1.0  0.09357  0.40744  0.15368  1.0000
  C   C20       1.0  0.09039  0.43465  0.14140  1.0000
  C   C21       1.0  0.06054  0.45472  0.14230  1.0000
  H   H20       1.0  0.01679  0.41675  0.17924  1.0000
  H   H21       1.0  0.06933  0.37985  0.17695  1.0000
  H   H22       1.0  0.11090  0.44035  0.13115  1.0000
  H   H23       1.0  0.42461  0.05321  0.12751  1.0000
  S   S10       1.0  0.20045  0.37351  0.06114  1.0000
  S   S11       1.0  0.32830  0.02241  0.11646  1.0000
  H   H24       1.0  0.02021  0.48552  0.21891  1.0000
  C   C22       1.0  0.05354  0.47446  0.28645  1.0000
  H   H25       1.0  0.27431  0.23246  0.34027  1.0000
  Fe  Fe6       1.0  0.25395  0.40294  0.12688  1.0000
  C   C23       1.0  0.26771  0.06025  0.04799  1.0000
  C   C24       1.0  0.28427  0.27289  0.10322  1.0000
  C   C25       1.0  0.00488  0.38970  0.11834  1.0000
  H   H26       1.0  0.31276  0.24457  0.12512  1.0000
  H   H27       1.0  0.36677  0.02270  0.03810  1.0000
  S   S12       1.0  0.44788  0.24154  0.18154  1.0000
  C   C26       1.0  0.46930  0.04528  0.14794  1.0000
  C   C27       1.0  0.11650  0.48090  0.18863  1.0000
  H   H28       1.0  0.22567  0.43954  0.05127  1.0000
  H   H29       1.0  0.45257  0.09578  0.11367  1.0000
  C   C28       1.0  0.29961  0.33073  0.09668  1.0000
  H   H30       1.0  0.33564  0.24750  0.10256  1.0000
  H   H31       1.0  0.00963  0.45620  0.32231  1.0000
  S   S13       1.0  0.24974  0.43425  0.09975  1.0000
  C   C29       1.0  0.20536  0.39440  0.03859  1.0000
  C   C30       1.0  0.47012  0.10628  0.14492  1.0000
  H   H32       1.0  0.25394  0.05130  0.03459  1.0000
  S   S14       1.0  0.16347  0.43037  0.10474  1.0000
  Fe  Fe7       1.0  0.20808  0.46233  0.11627  1.0000
  H   H33       1.0  0.25144  0.05461  0.06103  1.0000
  H   H34       1.0  0.47686  0.09291  0.18479  1.0000
  N   N1        1.0  0.31169  0.01148  0.04456  1.0000
  H   H35       1.0  0.32570  0.32866  0.10410  1.0000
  H   H36       1.0  0.36041  0.31381  0.06501  1.0000
  H   H37       1.0  0.31608  0.38105  0.09040  1.0000
  S   S15       1.0  0.47383  0.16486  0.19075  1.0000
  Fe  Fe8       1.0  0.46648  0.19731  0.16452  1.0000
  H   H38       1.0  0.20690  0.28301  0.06243  1.0000
  S   S16       1.0  0.47097  0.22395  0.23743  1.0000
  H   H39       1.0  0.50028  0.06865  0.11416  1.0000
  H   H40       1.0  0.05642  0.43537  0.26499  1.0000
  H   H41       1.0  0.44882  0.10504  0.15599  1.0000
  H   H42       1.0  0.14237  0.41677  0.19238  1.0000
  S   S17       1.0  0.09225  0.46137  0.29898  1.0000
  H   H43       1.0  0.30605  0.26046  0.06797  1.0000
  H   H44       1.0  0.46643  0.06502  0.29933  1.0000
  H   H45       1.0  0.36059  0.29549  0.08905  1.0000
  H   H46       1.0  0.27500  0.36998  0.07909  1.0000
  H   H47       1.0  0.33447  0.28230  0.11952  1.0000
  C   C31       1.0  0.07386  0.46805  0.21510  1.0000
  C   C32       1.0  0.49457  0.11751  0.27758  1.0000
  H   H48       1.0  0.31191  0.05026  0.06645  1.0000
  H   H49       1.0  0.41707  0.12976  0.23030  1.0000
  H   H50       1.0  0.24694  0.26014  0.06010  1.0000
  Fe  Fe9       1.0  0.20566  0.39982  0.09068  1.0000
  H   H51       1.0  0.07268  0.45290  0.22866  1.0000
  H   H52       1.0  0.46029  0.03244  0.26977  1.0000
  H   H53       1.0  0.39635  0.09847  0.25817  1.0000
  C   C33       1.0  0.19633  0.37799  0.02098  1.0000
  C   C34       1.0  0.12525  0.50818  0.24305  1.0000
  H   H54       1.0  0.06263  0.45176  0.20337  1.0000
  H   H55       1.0  0.15007  0.49610  0.24801  1.0000
  H   H56       1.0  0.38468  0.35418  0.33901  1.0000
  H   H57       1.0  0.29861  0.33826  0.34964  1.0000
  H   H58       1.0  0.14657  0.39806  0.21578  1.0000
  H   H59       1.0  0.47636  0.11589  0.29005  1.0000
  H   H60       1.0  0.26876  0.11963  0.33982  1.0000
  C   C35       1.0  0.31910  0.26164  0.11293  1.0000
  C   C36       1.0  0.46845  0.03691  0.23164  1.0000
  H   H61       1.0  0.42418  0.12125  0.12750  1.0000
  H   H62       1.0  0.20578  0.13290  0.33890  1.0000
  C   C37       1.0  0.44655  0.06781  0.23666  1.0000
  C   C38       1.0  0.12308  0.50942  0.22042  1.0000
  C   C39       1.0  0.04180  0.45676  0.26980  1.0000
  C   C40       1.0  0.35117  0.29246  0.07376  1.0000
  H   H63       1.0  0.10888  0.45771  0.18092  1.0000
  N   N2        1.0  0.45028  0.08081  0.25743  1.0000
  H   H64       1.0  0.48999  0.05007  0.18642  1.0000
  H   H65       1.0  0.45460  0.08685  0.22585  1.0000
  H   H66       1.0  0.34797  0.30833  0.34490  1.0000
  H   H67       1.0  0.41828  0.06189  0.23307  1.0000
  H   H68       1.0  0.06675  0.50135  0.17722  1.0000
  C   C41       1.0  0.25051  0.30456  0.07923  1.0000
  C   C42       1.0  0.43955  0.06059  0.29313  1.0000
  N   N3        1.0  0.28727  0.29867  0.08745  1.0000
  H   H69       1.0  0.46477  0.13787  0.11905  1.0000
  H   H70       1.0  0.30345  0.30019  0.05719  1.0000
  H   H71       1.0  0.28153  0.33788  0.10873  1.0000
  H   H72       1.0  0.42923  0.03846  0.30082  1.0000
  C   C43       1.0  0.44090  0.05284  0.27101  1.0000
  H   H73       1.0  0.05828  0.47541  0.13245  1.0000
  C   C44       1.0  0.42755  0.13695  0.24500  1.0000
  C   C45       1.0  0.31070  0.28718  0.07101  1.0000
  H   H74       1.0  0.46515  0.03134  0.21578  1.0000
  C   C46       1.0  0.30176  0.36054  0.08277  1.0000
  H   H75       1.0  0.36519  0.27067  0.06776  1.0000
  H   H76       1.0  0.10336  0.40851  0.20691  1.0000
  H   H77       1.0  0.27204  0.24980  0.09739  1.0000
  H   H78       1.0  0.31605  0.35493  0.06910  1.0000
  C   C47       1.0  0.44564  0.03492  0.13040  1.0000
  H   H79       1.0  0.42508  0.11961  0.27452  1.0000
  C   C48       1.0  0.20146  0.15480  0.34843  1.0000
  H   H80       1.0  0.14500  0.48483  0.18525  1.0000
  C   C49       1.0  0.13138  0.41680  0.20741  1.0000
  H   H81       1.0  0.24584  0.17409  0.33303  1.0000
  H   H82       1.0  0.10446  0.50970  0.16278  1.0000
  C   C50       1.0  0.49914  0.07560  0.18348  1.0000
  H   H83       1.0  0.36525  0.03121  0.07421  1.0000
  H   H84       1.0  0.23305  0.31543  0.09058  1.0000
  H   H85       1.0  0.22075  0.25785  0.08230  1.0000
  C   C51       1.0  0.13605  0.45080  0.21751  1.0000
  H   H86       1.0  0.40854  0.28852  0.34440  1.0000
  C   C52       1.0  0.30554  0.04680  0.05058  1.0000
  H   H87       1.0  0.26654  0.28169  0.11512  1.0000
  H   H88       1.0  0.16430  0.45836  0.21575  1.0000
  C   C53       1.0  0.36227  0.02443  0.15256  1.0000
  N   N4        1.0  0.11156  0.47771  0.21046  1.0000
  H   H89       1.0  0.45898  0.01461  0.23938  1.0000
  C   C54       1.0  0.48801  0.09233  0.26075  1.0000
  H   H90       1.0  0.22302  0.20432  0.34701  1.0000
  N   N5        1.0  0.49236  0.07550  0.14560  1.0000
  H   H91       1.0  0.49407  0.14304  0.27189  1.0000
  C   C55       1.0  0.04725  0.49631  0.21820  1.0000
  C   C56       1.0  0.09522  0.50796  0.17816  1.0000
  H   H92       1.0  0.26910  0.08747  0.04628  1.0000
  H   H93       1.0  0.32428  0.06401  0.04330  1.0000
  H   H94       1.0  0.48584  0.02368  0.15168  1.0000
  C   C57       1.0  0.23355  0.17872  0.34757  1.0000
  H   H95       1.0  0.18572  0.35316  0.02145  1.0000
  H   H96       1.0  0.44497  0.35325  0.34015  1.0000
  H   H97       1.0  0.13258  0.44625  0.23346  1.0000
  H   H98       1.0  0.35325  0.37232  0.02437  1.0000
  H   H99       1.0  0.48630  0.12815  0.14940  1.0000
  H   H100      1.0  0.42150  0.08107  0.29680  1.0000
  H   H101      1.0  0.32678  0.37142  0.34071  1.0000
  H   H102      1.0  0.46085  0.02942  0.11702  1.0000
  C   C58       1.0  0.22302  0.44221  0.01961  1.0000
  H   H103      1.0  0.49711  0.04082  0.23456  1.0000
  C   C59       1.0  0.03424  0.50186  0.29268  1.0000
  C   C60       1.0  0.01076  0.46596  0.25963  1.0000
  C   C61       1.0  0.29647  0.22598  0.35029  1.0000
  H   H104      1.0  0.10244  0.49502  0.24957  1.0000
  H   H105      1.0  0.30447  0.17547  0.34279  1.0000
  H   H106      1.0  0.01975  0.40926  0.11051  1.0000
  H   H107      1.0  0.01856  0.38693  0.13266  1.0000
  H   H108      1.0  0.05201  0.50942  0.23232  1.0000
  H   H109      1.0  0.43171  0.01161  0.13420  1.0000
  H   H110      1.0  0.37920  0.25655  0.35157  1.0000
  H   H111      1.0  0.23343  0.46713  0.01917  1.0000
  H   H112      1.0  0.41335  0.32007  0.38720  1.0000
  H   H113      1.0  0.45075  0.04351  0.41294  1.0000
  H   H114      1.0  0.48714  0.05810  0.38626  1.0000
  H   H115      1.0  0.07744  0.39891  0.38442  1.0000
  H   H116      1.0  0.43544  0.15586  0.66633  1.0000
  C   C62       1.0  0.33703  0.35731  0.37161  1.0000
  S   S18       1.0  0.15142  0.49219  0.67065  1.0000
  H   H117      1.0  0.43828  0.37470  0.49967  1.0000
  Fe  Fe10      1.0  0.30549  0.29031  0.61786  1.0000
  S   S19       1.0  0.35655  0.30087  0.60222  1.0000
  S   S20       1.0  0.25769  0.32412  0.61755  1.0000
  Fe  Fe11      1.0  0.32835  0.22084  0.62964  1.0000
  S   S21       1.0  0.38036  0.22542  0.61470  1.0000
  S   S22       1.0  0.31203  0.17530  0.64645  1.0000
  Fe  Fe12      1.0  0.38258  0.27609  0.62807  1.0000
  S   S23       1.0  0.43002  0.29504  0.64541  1.0000
  Fe  Fe13      1.0  0.35024  0.24941  0.59000  1.0000
  S   S24       1.0  0.36476  0.23319  0.55924  1.0000
  S   S25       1.0  0.33205  0.27007  0.64474  1.0000
  S   S26       1.0  0.29752  0.24023  0.60382  1.0000
  H   H118      1.0  0.44684  0.23288  0.48811  1.0000
  H   H119      1.0  0.41393  0.35931  0.41250  1.0000
  C   C63       1.0  0.38806  0.33353  0.38812  1.0000
  S   S27       1.0  0.20316  0.44476  0.38155  1.0000
  H   H120      1.0  0.44602  0.32928  0.48034  1.0000
  C   C64       1.0  0.31251  0.36166  0.35356  1.0000
  H   H121      1.0  0.47949  0.36182  0.50942  1.0000
  H   H122      1.0  0.21079  0.32916  0.35840  1.0000
  Fe  Fe14      1.0  0.29379  0.27733  0.40958  1.0000
  S   S28       1.0  0.32390  0.30533  0.43298  1.0000
  S   S29       1.0  0.25979  0.29702  0.38454  1.0000
  Fe  Fe15      1.0  0.32125  0.21057  0.42396  1.0000
  S   S30       1.0  0.35270  0.23304  0.44883  1.0000
  S   S31       1.0  0.31863  0.15521  0.41987  1.0000
  Fe  Fe16      1.0  0.30554  0.26539  0.45340  1.0000
  S   S32       1.0  0.28392  0.28115  0.48278  1.0000
  Fe  Fe17      1.0  0.36851  0.27061  0.42667  1.0000
  S   S33       1.0  0.42517  0.28817  0.42592  1.0000
  S   S34       1.0  0.27213  0.23968  0.43040  1.0000
  S   S35       1.0  0.34029  0.24596  0.40131  1.0000
  C   C65       1.0  0.36658  0.15074  0.38951  1.0000
  C   C66       1.0  0.34571  0.13398  0.40309  1.0000
  H   H123      1.0  0.36866  0.17733  0.39015  1.0000
  H   H124      1.0  0.09514  0.36049  0.37691  1.0000
  C   C67       1.0  0.44936  0.26548  0.40867  1.0000
  C   C68       1.0  0.43499  0.23652  0.40061  1.0000
  C   C69       1.0  0.45183  0.22072  0.38502  1.0000
  H   H125      1.0  0.22112  0.46836  0.65475  1.0000
  H   H126      1.0  0.29626  0.24234  0.36337  1.0000
  Fe  Fe18      1.0  0.09515  0.47696  0.67654  1.0000
  H   H127      1.0  0.41067  0.22642  0.40621  1.0000
  C   C70       1.0  0.30335  0.46568  0.67249  1.0000
  H   H128      1.0  0.19550  0.24585  0.62103  1.0000
  H   H129      1.0  0.40928  0.38444  0.39113  1.0000
  C   C71       1.0  0.21750  0.40322  0.38218  1.0000
  C   C72       1.0  0.24099  0.39371  0.39723  1.0000
  C   C73       1.0  0.25321  0.36106  0.39849  1.0000
  C   C74       1.0  0.24261  0.33764  0.38444  1.0000
  C   C75       1.0  0.21904  0.34707  0.36939  1.0000
  C   C76       1.0  0.20631  0.37966  0.36833  1.0000
  H   H130      1.0  0.24976  0.41177  0.40802  1.0000
  H   H131      1.0  0.27126  0.35418  0.41018  1.0000
  H   H132      1.0  0.22328  0.21073  0.61859  1.0000
  H   H133      1.0  0.14179  0.47363  0.43161  1.0000
  H   H134      1.0  0.04241  0.37402  0.61924  1.0000
  H   H135      1.0  0.28033  0.09155  0.35908  1.0000
  C   C77       1.0  0.48207  0.27729  0.40202  1.0000
  H   H136      1.0  0.37104  0.31753  0.39737  1.0000
  H   H137      1.0  0.35911  0.05513  0.38693  1.0000
  C   C78       1.0  0.33843  0.24417  0.53879  1.0000
  C   C79       1.0  0.31405  0.26995  0.53969  1.0000
  C   C80       1.0  0.29627  0.28024  0.52254  1.0000
  C   C81       1.0  0.30287  0.26490  0.50442  1.0000
  C   C82       1.0  0.32613  0.23826  0.50372  1.0000
  C   C83       1.0  0.34389  0.22801  0.52082  1.0000
  H   H138      1.0  0.30960  0.28250  0.55348  1.0000
  H   H139      1.0  0.27815  0.30076  0.52321  1.0000
  H   H140      1.0  0.33075  0.22575  0.48997  1.0000
  H   H141      1.0  0.36235  0.20775  0.52009  1.0000
  H   H142      1.0  0.21941  0.16038  0.39782  1.0000
  C   C84       1.0  0.38164  0.16430  0.65707  1.0000
  C   C85       1.0  0.34695  0.15200  0.65669  1.0000
  H   H143      1.0  0.44059  0.35338  0.52287  1.0000
  H   H144      1.0  0.38747  0.18803  0.65073  1.0000
  C   C86       1.0  0.46768  0.26990  0.64370  1.0000
  H   H145      1.0  0.36143  0.07935  0.68073  1.0000
  H   H146      1.0  0.02354  0.39737  0.56161  1.0000
  H   H147      1.0  0.10372  0.40223  0.44891  1.0000
  C   C87       1.0  0.49956  0.26085  0.38673  1.0000
  C   C88       1.0  0.46994  0.24599  0.62896  1.0000
  C   C89       1.0  0.23522  0.24027  0.64459  1.0000
  H   H148      1.0  0.47523  0.11252  0.65192  1.0000
  C   C90       1.0  0.11412  0.46659  0.42769  1.0000
  H   H149      1.0  0.44994  0.24454  0.61760  1.0000
  C   C91       1.0  0.22736  0.39357  0.66792  1.0000
  C   C92       1.0  0.25949  0.37631  0.66874  1.0000
  C   C93       1.0  0.26960  0.35557  0.65320  1.0000
  C   C94       1.0  0.24756  0.35190  0.63672  1.0000
  C   C95       1.0  0.21559  0.36943  0.63581  1.0000
  C   C96       1.0  0.20548  0.39022  0.65135  1.0000
  H   H150      1.0  0.29149  0.37968  0.35725  1.0000
  H   H151      1.0  0.29436  0.34234  0.65400  1.0000
  H   H152      1.0  0.19840  0.36664  0.62310  1.0000
  H   H153      1.0  0.18072  0.40343  0.65057  1.0000
  H   H154      1.0  0.27661  0.37894  0.68150  1.0000
  C   C97       1.0  0.39391  0.35785  0.35445  1.0000
  H   H155      1.0  0.15720  0.31914  0.66587  1.0000
  C   C98       1.0  0.25174  0.19636  0.38131  1.0000
  H   H156      1.0  0.26245  0.28977  0.66633  1.0000
  C   C99       1.0  0.36150  0.08171  0.38764  1.0000
  C   C100      1.0  0.46460  0.06769  0.41445  1.0000
  H   H157      1.0  0.32102  0.34520  0.38319  1.0000
  H   H158      1.0  0.08693  0.44024  0.40463  1.0000
  H   H159      1.0  0.37147  0.37546  0.40643  1.0000
  C   C101      1.0  0.01785  0.37081  0.55954  1.0000
  H   H160      1.0  0.45335  0.15891  0.63119  1.0000
  C   C102      1.0  0.17899  0.30421  0.67227  1.0000
  H   H161      1.0  0.02029  0.41122  0.61319  1.0000
  C   C103      1.0  0.44255  0.25300  0.47741  1.0000
  H   H162      1.0  0.44448  0.11888  0.62136  1.0000
  H   H163      1.0  0.03960  0.35611  0.56615  1.0000
  H   H164      1.0  0.45617  0.26427  0.51518  1.0000
  H   H165      1.0  0.39918  0.14618  0.36384  1.0000
  H   H166      1.0  0.27761  0.45299  0.67066  1.0000
  H   H167      1.0  0.43983  0.19900  0.37836  1.0000
  H   H168      1.0  0.31631  0.50299  0.65110  1.0000
  C   C104      1.0  0.43394  0.29226  0.53840  1.0000
  H   H169      1.0  0.45292  0.20516  0.67937  1.0000
  H   H170      1.0  0.09959  0.45962  0.44105  1.0000
  H   H171      1.0  0.34274  0.38270  0.37717  1.0000
  C   C105      1.0  0.49292  0.12538  0.37290  1.0000
  H   H172      1.0  0.06966  0.36180  0.39868  1.0000
  C   C106      1.0  0.36071  0.30538  0.35956  1.0000
  H   H173      1.0  0.18845  0.20978  0.63615  1.0000
  H   H174      1.0  0.04956  0.42300  0.44034  1.0000
  H   H175      1.0  0.28593  0.14014  0.38261  1.0000
  C   C107      1.0  0.33988  0.12109  0.66506  1.0000
  C   C108      1.0  0.36787  0.33450  0.48906  1.0000
  H   H176      1.0  0.31314  0.11135  0.66476  1.0000
  N   N6        1.0  0.26129  0.17587  0.36361  1.0000
  H   H177      1.0  0.35512  0.31749  0.47823  1.0000
  H   H178      1.0  0.47506  0.30946  0.49717  1.0000
  C   C109      1.0  0.02673  0.38625  0.60750  1.0000
  C   C110      1.0  0.19442  0.28190  0.65610  1.0000
  H   H179      1.0  0.45695  0.30931  0.53926  1.0000
  H   H180      1.0  0.25118  0.25929  0.63687  1.0000
  H   H181      1.0  0.48911  0.12437  0.42293  1.0000
  H   H182      1.0  0.44547  0.08486  0.42128  1.0000
  H   H183      1.0  0.03996  0.38072  0.43649  1.0000
  H   H184      1.0  0.38830  0.33268  0.51842  1.0000
  H   H185      1.0  0.49343  0.29958  0.40833  1.0000
  C   C111      1.0  0.48966  0.13495  0.40801  1.0000
  C   C112      1.0  0.34355  0.09943  0.40220  1.0000
  H   H186      1.0  0.43920  0.27255  0.54931  1.0000
  C   C113      1.0  0.23710  0.47927  0.64292  1.0000
  C   C114      1.0  0.38532  0.31521  0.50599  1.0000
  H   H187      1.0  0.32252  0.45136  0.66367  1.0000
  C   C115      1.0  0.38386  0.13305  0.37464  1.0000
  N   N7        1.0  0.37088  0.33847  0.36828  1.0000
  C   C116      1.0  0.36724  0.10285  0.67400  1.0000
  H   H188      1.0  0.48745  0.06381  0.42439  1.0000
  N   N8        1.0  0.12195  0.40497  0.41905  1.0000
  C   C117      1.0  0.15856  0.40680  0.42826  1.0000
  Fe  Fe19      1.0  0.15947  0.46977  0.36377  1.0000
  C   C118      1.0  0.12378  0.38186  0.40166  1.0000
  C   C119      1.0  0.44885  0.32177  0.49599  1.0000
  C   C120      1.0  0.17513  0.37371  0.43452  1.0000
  C   C121      1.0  0.08920  0.37587  0.38999  1.0000
  C   C122      1.0  0.05671  0.40137  0.43115  1.0000
  Fe  Fe20      1.0  0.41366  0.02258  0.35865  1.0000
  H   H189      1.0  0.17757  0.41894  0.41819  1.0000
  H   H190      1.0  0.15856  0.42250  0.44171  1.0000
  H   H191      1.0  0.46219  0.14404  0.40536  1.0000
  H   H192      1.0  0.13207  0.44669  0.40029  1.0000
  H   H193      1.0  0.14395  0.39087  0.39113  1.0000
  H   H194      1.0  0.13238  0.35686  0.40618  1.0000
  H   H195      1.0  0.09790  0.36503  0.43526  1.0000
  C   C123      1.0  0.11322  0.43915  0.41190  1.0000
  H   H196      1.0  0.19923  0.37882  0.44358  1.0000
  C   C124      1.0  0.21824  0.18605  0.39239  1.0000
  H   H197      1.0  0.18414  0.35923  0.42167  1.0000
  H   H198      1.0  0.24741  0.22258  0.37726  1.0000
  C   C125      1.0  0.26748  0.14070  0.36986  1.0000
  H   H199      1.0  0.04550  0.41633  0.66571  1.0000
  H   H200      1.0  0.31754  0.18573  0.36719  1.0000
  H   H201      1.0  0.38693  0.35087  0.48155  1.0000
  H   H202      1.0  0.40929  0.23811  0.67231  1.0000
  C   C126      1.0  0.46614  0.13674  0.62483  1.0000
  C   C127      1.0  0.30443  0.50222  0.66597  1.0000
  H   H203      1.0  0.47891  0.14483  0.61120  1.0000
  N   N9        1.0  0.41945  0.29802  0.50115  1.0000
  C   C128      1.0  0.41209  0.27585  0.48363  1.0000
  H   H204      1.0  0.04393  0.38842  0.59458  1.0000
  C   C129      1.0  0.43022  0.27609  0.51799  1.0000
  H   H205      1.0  0.25990  0.46321  0.63949  1.0000
  C   C130      1.0  0.01827  0.45616  0.65135  1.0000
  H   H206      1.0  0.17121  0.22727  0.66821  1.0000
  C   C131      1.0  0.02112  0.42416  0.65874  1.0000
  H   H207      1.0  0.44968  0.08419  0.38622  1.0000
  H   H208      1.0  0.38856  0.25986  0.48628  1.0000
  H   H209      1.0  0.40540  0.29056  0.47037  1.0000
  H   H210      1.0  0.15697  0.35863  0.44350  1.0000
  H   H211      1.0  0.36556  0.29699  0.51118  1.0000
  H   H212      1.0  0.41082  0.25546  0.51954  1.0000
  C   C132      1.0  0.49228  0.12238  0.64006  1.0000
  C   C133      1.0  0.39599  0.36531  0.40000  1.0000
  H   H213      1.0  0.44190  0.32617  0.36036  1.0000
  H   H214      1.0  0.47970  0.05750  0.62658  1.0000
  C   C134      1.0  0.45120  0.35438  0.50788  1.0000
  H   H215      1.0  0.34049  0.29311  0.36885  1.0000
  N   N10       1.0  0.21920  0.25495  0.66279  1.0000
  H   H216      1.0  0.20773  0.29841  0.64549  1.0000
  H   H217      1.0  0.43522  0.24094  0.46323  1.0000
  C   C135      1.0  0.01106  0.43798  0.38456  1.0000
  N   N11       1.0  0.49919  0.10961  0.39266  1.0000
  H   H218      1.0  0.17127  0.27134  0.64792  1.0000
  H   H219      1.0  0.04824  0.40577  0.41588  1.0000
  H   H220      1.0  0.46558  0.13555  0.37186  1.0000
  H   H221      1.0  0.40930  0.30437  0.54327  1.0000
  H   H222      1.0  0.25441  0.22063  0.64795  1.0000
  C   C136      1.0  0.38119  0.09848  0.37360  1.0000
  C   C137      1.0  0.28279  0.11753  0.35410  1.0000
  S   S36       1.0  0.04165  0.49838  0.39317  1.0000
  C   C138      1.0  0.20865  0.22588  0.62941  1.0000
  H   H223      1.0  0.21588  0.20206  0.40559  1.0000
  Fe  Fe21      1.0  0.08413  0.49321  0.37066  1.0000
  H   H224      1.0  0.10146  0.48907  0.42167  1.0000
  H   H225      1.0  0.32736  0.08630  0.41261  1.0000
  S   S37       1.0  0.05338  0.48455  0.65325  1.0000
  C   C139      1.0  0.01075  0.46644  0.39626  1.0000
  C   C140      1.0  0.40171  0.11569  0.67480  1.0000
  C   C141      1.0  0.09624  0.39238  0.43412  1.0000
  H   H226      1.0  0.24321  0.12867  0.37536  1.0000
  H   H227      1.0  0.19905  0.32223  0.67786  1.0000
  H   H228      1.0  0.27406  0.19651  0.39217  1.0000
  C   C142      1.0  0.40881  0.14614  0.66605  1.0000
  H   H229      1.0  0.46755  0.26679  0.47499  1.0000
  H   H230      1.0  0.19394  0.14675  0.36325  1.0000
  H   H231      1.0  0.03081  0.43521  0.37335  1.0000
  C   C143      1.0  0.47524  0.07962  0.39391  1.0000
  S   S38       1.0  0.50185  0.21420  0.35710  1.0000
  C   C144      1.0  0.48390  0.23303  0.37791  1.0000
  H   H232      1.0  0.34632  0.35004  0.49500  1.0000
  H   H233      1.0  0.19400  0.19028  0.38348  1.0000
  H   H234      1.0  0.21988  0.47920  0.62960  1.0000
  H   H235      1.0  0.01792  0.36702  0.54339  1.0000
  C   C145      1.0  0.49532  0.27313  0.65752  1.0000
  H   H236      1.0  0.19948  0.17801  0.66527  1.0000
  H   H237      1.0  0.40621  0.27541  0.36986  1.0000
  C   C146      1.0  0.29603  0.18921  0.35610  1.0000
  H   H238      1.0  0.49402  0.29203  0.66875  1.0000
  C   C147      1.0  0.49863  0.22433  0.62855  1.0000
  H   H239      1.0  0.24231  0.19249  0.67375  1.0000
  H   H240      1.0  0.28943  0.23210  0.67281  1.0000
  C   C148      1.0  0.24824  0.27080  0.67506  1.0000
  C   C149      1.0  0.19841  0.23018  0.67455  1.0000
  C   C150      1.0  0.21346  0.19474  0.67581  1.0000
  H   H241      1.0  0.38312  0.26917  0.68323  1.0000
  H   H242      1.0  0.23936  0.48584  0.68348  1.0000
  H   H243      1.0  0.49999  0.20587  0.61709  1.0000
  C   C151      1.0  0.43421  0.35089  0.35517  1.0000
  H   H244      1.0  0.18834  0.38668  0.35663  1.0000
  H   H245      1.0  0.48007  0.08109  0.35489  1.0000
  C   C152      1.0  0.39082  0.28055  0.35635  1.0000
  H   H246      1.0  0.48531  0.08538  0.60720  1.0000
  C   C153      1.0  0.49783  0.10291  0.35478  1.0000
  H   H247      1.0  0.44832  0.36999  0.36410  1.0000
  H   H248      1.0  0.39127  0.38478  0.35748  1.0000
  C   C154      1.0  0.50016  0.07255  0.61895  1.0000
  S   S39       1.0  0.40188  0.07697  0.35432  1.0000
  H   H249      1.0  0.31157  0.12218  0.35214  1.0000
  S   S40       1.0  0.10600  0.44818  0.35602  1.0000
  H   H250      1.0  0.16791  0.28985  0.68456  1.0000
  C   C155      1.0  0.27623  0.24759  0.68391  1.0000
  H   H251      1.0  0.24894  0.22547  0.88846  1.0000
  H   H252      1.0  0.27533  0.18628  0.83564  1.0000
  H   H253      1.0  0.28745  0.12426  0.86011  1.0000
  H   H254      1.0  0.33713  0.43593  0.99494  1.0000
  H   H255      1.0  0.31791  0.20256  0.83085  1.0000
  H   H256      1.0  0.31261  0.15922  0.83358  1.0000
  S   S41       1.0  0.26301  0.43392  0.92905  1.0000
  Fe  Fe22      1.0  0.10807  0.46535  0.71985  1.0000
  S   S42       1.0  0.08546  0.44515  0.74806  1.0000
  H   H257      1.0  0.01051  0.32623  0.91450  1.0000
  S   S43       1.0  0.11890  0.38223  0.90130  1.0000
  S   S44       1.0  0.29329  0.34440  0.91576  1.0000
  S   S45       1.0  0.20490  0.37479  0.93697  1.0000
  H   H258      1.0  0.39403  0.20316  0.72047  1.0000
  H   H259      1.0  0.47865  0.20816  0.73405  1.0000
  H   H260      1.0  0.27376  0.24193  0.84665  1.0000
  H   H261      1.0  0.44159  0.27067  0.69817  1.0000
  S   S46       1.0  0.17834  0.45017  0.92720  1.0000
  N   N12       1.0  0.44439  0.22054  0.70936  1.0000
  H   H262      1.0  0.43288  0.17368  0.74263  1.0000
  Fe  Fe23      1.0  0.40067  0.22559  0.84463  1.0000
  S   S47       1.0  0.39399  0.18627  0.82136  1.0000
  S   S48       1.0  0.35852  0.26561  0.84345  1.0000
  Fe  Fe24      1.0  0.40419  0.15030  0.84545  1.0000
  S   S49       1.0  0.37530  0.10135  0.84444  1.0000
  Fe  Fe25      1.0  0.45291  0.18895  0.81757  1.0000
  S   S50       1.0  0.40671  0.18890  0.86906  1.0000
  H   H263      1.0  0.37544  0.22723  0.68979  1.0000
  H   H264      1.0  0.16206  0.50271  0.90343  1.0000
  Fe  Fe26      1.0  0.16587  0.44954  0.69007  1.0000
  H   H265      1.0  0.23104  0.22271  0.85189  1.0000
  H   H266      1.0  0.37844  0.35947  0.93598  1.0000
  H   H267      1.0  0.29101  0.34193  0.95681  1.0000
  C   C156      1.0  0.32700  0.05293  0.89842  1.0000
  C   C157      1.0  0.34058  0.08523  0.89975  1.0000
  C   C158      1.0  0.35579  0.10038  0.88335  1.0000
  C   C159      1.0  0.35650  0.08359  0.86539  1.0000
  C   C160      1.0  0.34223  0.05161  0.86397  1.0000
  C   C161      1.0  0.32802  0.03611  0.88050  1.0000
  H   H268      1.0  0.33997  0.09826  0.91364  1.0000
  H   H269      1.0  0.36712  0.12488  0.88462  1.0000
  H   H270      1.0  0.34262  0.03854  0.85009  1.0000
  C   C162      1.0  0.30361  0.18344  0.83935  1.0000
  H   H271      1.0  0.05174  0.50955  0.74504  1.0000
  C   C163      1.0  0.31094  0.32287  0.89536  1.0000
  C   C164      1.0  0.29798  0.32720  0.87627  1.0000
  C   C165      1.0  0.31296  0.30957  0.86055  1.0000
  C   C166      1.0  0.34101  0.28749  0.86372  1.0000
  C   C167      1.0  0.35383  0.28301  0.88283  1.0000
  C   C168      1.0  0.33879  0.30054  0.89855  1.0000
  H   H272      1.0  0.27659  0.34428  0.87359  1.0000
  H   H273      1.0  0.30288  0.31324  0.84582  1.0000
  H   H274      1.0  0.37560  0.26634  0.88545  1.0000
  H   H275      1.0  0.34909  0.29704  0.91324  1.0000
  C   C169      1.0  0.03737  0.46449  0.89571  1.0000
  C   C170      1.0  0.06100  0.46400  0.91165  1.0000
  C   C171      1.0  0.08622  0.43895  0.91330  1.0000
  C   C172      1.0  0.08806  0.41428  0.89897  1.0000
  C   C173      1.0  0.06469  0.41494  0.88283  1.0000
  C   C174      1.0  0.03949  0.44019  0.88112  1.0000
  N   N13       1.0  0.45935  0.03521  0.88699  1.0000
  H   H276      1.0  0.10356  0.43822  0.92600  1.0000
  H   H277      1.0  0.06624  0.39598  0.87164  1.0000
  H   H278      1.0  0.31123  0.15622  0.89588  1.0000
  Fe  Fe27      1.0  0.21585  0.42608  0.94840  1.0000
  H   H279      1.0  0.40683  0.02772  0.87446  1.0000
  H   H280      1.0  0.47032  0.09992  0.74831  1.0000
  C   C175      1.0  0.05242  0.46487  0.76188  1.0000
  H   H281      1.0  0.19220  0.38130  0.98936  1.0000
  Fe  Fe28      1.0  0.25009  0.38378  0.91623  1.0000
  H   H282      1.0  0.26474  0.23189  0.69551  1.0000
  H   H283      1.0  0.42603  0.07895  0.88717  1.0000
  H   H284      1.0  0.14411  0.44736  0.83510  1.0000
  H   H285      1.0  0.36889  0.38866  0.99320  1.0000
  C   C176      1.0  0.34328  0.38064  0.95761  1.0000
  C   C177      1.0  0.42363  0.25058  0.70315  1.0000
  H   H286      1.0  0.27655  0.17898  0.90680  1.0000
  S   S51       1.0  0.46241  0.15020  0.84027  1.0000
  H   H287      1.0  0.46841  0.01514  0.84610  1.0000
  H   H288      1.0  0.40376  0.05739  0.81261  1.0000
  N   N14       1.0  0.28398  0.18919  0.87585  1.0000
  C   C178      1.0  0.43048  0.16503  0.72717  1.0000
  C   C179      1.0  0.49356  0.25659  0.72562  1.0000
  H   H289      1.0  0.36393  0.34616  0.99009  1.0000
  H   H290      1.0  0.50299  0.09894  0.89449  1.0000
  Fe  Fe29      1.0  0.17149  0.39980  0.91387  1.0000
  H   H291      1.0  0.20787  0.18461  0.69055  1.0000
  S   S52       1.0  0.21576  0.40508  0.89233  1.0000
  H   H292      1.0  0.48255  0.28049  0.72078  1.0000
  N   N15       1.0  0.11196  0.49171  0.83587  1.0000
  S   S53       1.0  0.47311  0.17561  0.78713  1.0000
  H   H293      1.0  0.33129  0.20903  0.86281  1.0000
  H   H294      1.0  0.38817  0.34600  0.96029  1.0000
  H   H295      1.0  0.40522  0.05380  0.91416  1.0000
  H   H296      1.0  0.33080  0.44560  0.96908  1.0000
  H   H297      1.0  0.24222  0.26258  0.86120  1.0000
  S   S54       1.0  0.45940  0.23149  0.83893  1.0000
  S   S55       1.0  0.16523  0.48016  0.71768  1.0000
  H   H298      1.0  0.32521  0.38785  0.94533  1.0000
  S   S56       1.0  0.21580  0.41891  0.68796  1.0000
  Fe  Fe30      1.0  0.46459  0.19193  0.86193  1.0000
  C   C180      1.0  0.31375  0.18700  0.86135  1.0000
  H   H299      1.0  0.25527  0.31403  0.98220  1.0000
  H   H300      1.0  0.27232  0.11840  0.88494  1.0000
  H   H301      1.0  0.27005  0.34338  0.00025  1.0000
  H   H302      1.0  0.46244  0.11743  0.90260  1.0000
  H   H303      1.0  0.07521  0.46742  0.81588  1.0000
  H   H304      1.0  0.46782  0.03146  0.91861  1.0000
  H   H305      1.0  0.48090  0.15863  0.69253  1.0000
  C   C181      1.0  0.30022  0.34320  0.97237  1.0000
  H   H306      1.0  0.31619  0.05273  0.01063  1.0000
  C   C182      1.0  0.00616  0.43184  0.71734  1.0000
  S   S57       1.0  0.49185  0.02026  0.69454  1.0000
  S   S58       1.0  0.30874  0.03436  0.91930  1.0000
  C   C183      1.0  0.26939  0.22374  0.87685  1.0000
  H   H307      1.0  0.24664  0.50800  0.71510  1.0000
  C   C184      1.0  0.03824  0.44849  0.77814  1.0000
  H   H308      1.0  0.34860  0.02025  0.00699  1.0000
  Fe  Fe31      1.0  0.43776  0.04046  0.68813  1.0000
  C   C185      1.0  0.25321  0.23781  0.85788  1.0000
  H   H309      1.0  0.06569  0.48511  0.85409  1.0000
  H   H310      1.0  0.40897  0.18130  0.69958  1.0000
  H   H311      1.0  0.32470  0.33905  0.01600  1.0000
  Fe  Fe32      1.0  0.22436  0.45446  0.90703  1.0000
  C   C186      1.0  0.45435  0.07204  0.88595  1.0000
  H   H312      1.0  0.28034  0.40615  0.96657  1.0000
  C   C187      1.0  0.46847  0.21153  0.69276  1.0000
  C   C188      1.0  0.32623  0.20491  0.90486  1.0000
  N   N16       1.0  0.47088  0.06483  0.78605  1.0000
  H   H313      1.0  0.31031  0.38157  0.01633  1.0000
  H   H314      1.0  0.24003  0.17060  0.85770  1.0000
  C   C189      1.0  0.29884  0.40331  0.97925  1.0000
  C   C190      1.0  0.34826  0.36890  0.99262  1.0000
  C   C191      1.0  0.41204  0.02727  0.91378  1.0000
  H   H315      1.0  0.34782  0.21056  0.89457  1.0000
  H   H316      1.0  0.33861  0.19343  0.91798  1.0000
  N   N17       1.0  0.32238  0.37395  0.97594  1.0000
  H   H317      1.0  0.29047  0.24179  0.88104  1.0000
  H   H318      1.0  0.33104  0.16560  0.86482  1.0000
  H   H319      1.0  0.23346  0.16696  0.88290  1.0000
  H   H320      1.0  0.24245  0.11343  0.86477  1.0000
  C   C192      1.0  0.25430  0.16501  0.87150  1.0000
  H   H321      1.0  0.31393  0.22820  0.90994  1.0000
  S   S59       1.0  0.22087  0.44650  0.97953  1.0000
  C   C193      1.0  0.46483  0.22964  0.72777  1.0000
  C   C194      1.0  0.02172  0.35112  0.91187  1.0000
  C   C195      1.0  0.29839  0.18083  0.89599  1.0000
  C   C196      1.0  0.26525  0.12839  0.87031  1.0000
  C   C197      1.0  0.36621  0.35192  0.95002  1.0000
  C   C198      1.0  0.13783  0.45917  0.86526  1.0000
  H   H322      1.0  0.04743  0.42402  0.78177  1.0000
  H   H323      1.0  0.31622  0.32057  0.97470  1.0000
  C   C199      1.0  0.04056  0.49651  0.75731  1.0000
  H   H324      1.0  0.29786  0.45557  0.98645  1.0000
  H   H325      1.0  0.43522  0.07510  0.73863  1.0000
  C   C200      1.0  0.12465  0.47239  0.80048  1.0000
  C   C201      1.0  0.21385  0.42590  0.00200  1.0000
  C   C202      1.0  0.20019  0.39379  0.00276  1.0000
  H   H326      1.0  0.04094  0.35660  0.92396  1.0000
  H   H327      1.0  0.11249  0.47285  0.78562  1.0000
  H   H328      1.0  0.16789  0.50144  0.83044  1.0000
  H   H329      1.0  0.45556  0.15358  0.72267  1.0000
  H   H330      1.0  0.46145  0.08131  0.87120  1.0000
  H   H331      1.0  0.16407  0.47159  0.86618  1.0000
  S   S60       1.0  0.23483  0.50157  0.88996  1.0000
  C   C203      1.0  0.45748  0.05575  0.76577  1.0000
  H   H332      1.0  0.44636  0.23773  0.73947  1.0000
  H   H333      1.0  0.03743  0.35108  0.89822  1.0000
  H   H334      1.0  0.10031  0.44093  0.84364  1.0000
  C   C204      1.0  0.40671  0.07220  0.79909  1.0000
  C   C205      1.0  0.26608  0.33937  0.98434  1.0000
  H   H335      1.0  0.03472  0.42553  0.71696  1.0000
  C   C206      1.0  0.12299  0.45873  0.84407  1.0000
  H   H336      1.0  0.49830  0.10927  0.77683  1.0000
  C   C207      1.0  0.09764  0.48542  0.81543  1.0000
  H   H337      1.0  0.45443  0.08956  0.81261  1.0000
  H   H338      1.0  0.35039  0.32940  0.94667  1.0000
  C   C208      1.0  0.33277  0.36502  0.01331  1.0000
  H   H339      1.0  0.14881  0.48795  0.79977  1.0000
  C   C209      1.0  0.45023  0.02152  0.90685  1.0000
  H   H340      1.0  0.30826  0.02015  0.99333  1.0000
  H   H341      1.0  0.44328  0.11099  0.79139  1.0000
  H   H342      1.0  0.43423  0.03900  0.76610  1.0000
  C   C210      1.0  0.47624  0.09358  0.90038  1.0000
  C   C211      1.0  0.43438  0.01924  0.87224  1.0000
  H   H343      1.0  0.38830  0.09342  0.80005  1.0000
  S   S61       1.0  0.10972  0.43158  0.69351  1.0000
  H   H344      1.0  0.05947  0.48275  0.92297  1.0000
  H   H345      1.0  0.01795  0.48337  0.71635  1.0000
  C   C212      1.0  0.44700  0.08493  0.75252  1.0000
  C   C213      1.0  0.48063  0.03417  0.79732  1.0000
  C   C214      1.0  0.49676  0.02600  0.88161  1.0000
  H   H346      1.0  0.39707  0.05772  0.78634  1.0000
  H   H347      1.0  0.29739  0.26279  0.69105  1.0000
  H   H348      1.0  0.41010  0.14511  0.72685  1.0000
  C   C215      1.0  0.44489  0.08551  0.79730  1.0000
  H   H349      1.0  0.48427  0.03994  0.81319  1.0000
  H   H350      1.0  0.00663  0.40180  0.90822  1.0000
  H   H351      1.0  0.11944  0.47051  0.87585  1.0000
  C   C216      1.0  0.31788  0.43671  0.98258  1.0000
  H   H352      1.0  0.24555  0.35649  0.97878  1.0000
  C   C217      1.0  0.41825  0.19308  0.71348  1.0000
  H   H353      1.0  0.36179  0.40185  0.95979  1.0000
  C   C218      1.0  0.49400  0.18260  0.69595  1.0000
  C   C219      1.0  0.08326  0.50532  0.84887  1.0000
  H   H354      1.0  0.44086  0.05181  0.84654  1.0000
  H   H355      1.0  0.14220  0.43335  0.87006  1.0000
  C   C220      1.0  0.01212  0.46346  0.78967  1.0000
  H   H356      1.0  0.40876  0.26093  0.71578  1.0000
  H   H357      1.0  0.47875  0.08299  0.91519  1.0000
  S   S62       1.0  0.43581  0.09615  0.68820  1.0000
  H   H358      1.0  0.19477  0.23943  0.68980  1.0000
  H   H359      1.0  0.28117  0.39993  0.99192  1.0000
  H   H360      1.0  0.47780  0.04130  0.75784  1.0000
  H   H361      1.0  0.13182  0.44635  0.80330  1.0000
  H   H362      1.0  0.40941  0.01788  0.92897  1.0000
  H   H363      1.0  0.02160  0.44072  0.86866  1.0000
  H   H364      1.0  0.42685  0.10091  0.75938  1.0000
  C   C221      1.0  0.32001  0.02599  0.00799  1.0000
  S   S63       1.0  0.08933  0.50933  0.70307  1.0000
  H   H365      1.0  0.23724  0.28407  0.68790  1.0000
  C   C222      1.0  0.44242  0.02535  0.85040  1.0000
  H   H366      1.0  0.39236  0.01325  0.90478  1.0000
  H   H367      1.0  0.42201  0.01233  0.84133  1.0000
  H   H368      1.0  0.08592  0.50780  0.80882  1.0000
  H   H369      1.0  0.01324  0.46450  0.69295  1.0000
  H   H370      1.0  0.31251  0.46329  0.68795  1.0000
  S   S64       1.0  0.00480  0.49512  0.89497  1.0000
  H   H371      1.0  0.31732  0.01134  0.87930  1.0000
  H   H372      1.0  0.48435  0.23310  0.68810  1.0000
  C   C223      1.0  0.39649  0.24535  0.68621  1.0000
  Fe  Fe33      1.0  0.44882  0.96441  0.33773  1.0000
  H   H373      1.0  0.02241  0.59340  0.19224  1.0000
  H   H374      1.0  0.06009  0.59204  0.17676  1.0000
  C   C224      1.0  0.23149  0.62525  0.18237  1.0000
  H   H375      1.0  0.24167  0.89260  0.17576  1.0000
  H   H376      1.0  0.04303  0.67854  0.30219  1.0000
  H   H377      1.0  0.06401  0.60762  0.28442  1.0000
  S   S65       1.0  0.32546  0.93332  0.14223  1.0000
  C   C225      1.0  0.02991  0.73614  0.26279  1.0000
  H   H378      1.0  0.25625  0.89759  0.02114  1.0000
  Fe  Fe34      1.0  0.07689  0.69681  0.16236  1.0000
  S   S66       1.0  0.07003  0.66743  0.18984  1.0000
  S   S67       1.0  0.03325  0.69113  0.13987  1.0000
  Fe  Fe35      1.0  0.15293  0.71747  0.17270  1.0000
  S   S68       1.0  0.15132  0.68980  0.20120  1.0000
  S   S69       1.0  0.20721  0.73542  0.16283  1.0000
  Fe  Fe36      1.0  0.12483  0.64912  0.18389  1.0000
  S   S70       1.0  0.14028  0.59569  0.18821  1.0000
  Fe  Fe37      1.0  0.09663  0.71064  0.20457  1.0000
  S   S71       1.0  0.07789  0.73378  0.23300  1.0000
  S   S72       1.0  0.12960  0.67516  0.15528  1.0000
  S   S73       1.0  0.10002  0.74180  0.17728  1.0000
  H   H379      1.0  0.06532  0.67726  0.32483  1.0000
  S   S74       1.0  0.29835  0.93516  0.09661  1.0000
  H   H380      1.0  0.26146  0.89899  0.19932  1.0000
  S   S75       1.0  0.34522  0.87165  0.11220  1.0000
  S   S76       1.0  0.24291  0.87916  0.13106  1.0000
  H   H381      1.0  0.30665  0.97841  0.01977  1.0000
  S   S77       1.0  0.41609  0.89552  0.15419  1.0000
  C   C226      1.0  0.21631  0.77533  0.15366  1.0000
  C   C227      1.0  0.19099  0.80030  0.15384  1.0000
  C   C228      1.0  0.19955  0.83190  0.14676  1.0000
  C   C229      1.0  0.23338  0.83881  0.13939  1.0000
  C   C230      1.0  0.25865  0.81377  0.13907  1.0000
  C   C231      1.0  0.25015  0.78219  0.14624  1.0000
  H   H382      1.0  0.16487  0.79536  0.15952  1.0000
  H   H383      1.0  0.17983  0.85115  0.14702  1.0000
  H   H384      1.0  0.28464  0.81875  0.13323  1.0000
  H   H385      1.0  0.26985  0.76296  0.14597  1.0000
  C   C232      1.0  0.04252  0.71779  0.24684  1.0000
  H   H386      1.0  0.14747  0.65950  0.26672  1.0000
  H   H387      1.0  0.03463  0.76101  0.15000  1.0000
  N   N18       1.0  0.09901  0.66719  0.29980  1.0000
  H   H388      1.0  0.00837  0.51347  0.11631  1.0000
  H   H389      1.0  0.06352  0.58764  0.10666  1.0000
  H   H390      1.0  0.30645  0.82419  0.20727  1.0000
  H   H391      1.0  0.30420  0.89366  0.22516  1.0000
  H   H392      1.0  0.27001  0.59805  0.16573  1.0000
  C   C233      1.0  0.18297  0.53815  0.13548  1.0000
  C   C234      1.0  0.16479  0.56783  0.13264  1.0000
  C   C235      1.0  0.15138  0.58545  0.14871  1.0000
  C   C236      1.0  0.15660  0.57391  0.16776  1.0000
  C   C237      1.0  0.17518  0.54446  0.17064  1.0000
  C   C238      1.0  0.18799  0.52642  0.15455  1.0000
  H   H393      1.0  0.16102  0.57715  0.11794  1.0000
  H   H394      1.0  0.13713  0.60799  0.14630  1.0000
  H   H395      1.0  0.18012  0.53578  0.18535  1.0000
  S   S78       1.0  0.20136  0.51790  0.11506  1.0000
  H   H396      1.0  0.25142  0.63987  0.19083  1.0000
  C   C239      1.0  0.00842  0.75443  0.14466  1.0000
  C   C240      1.0  0.46510  0.93640  0.13707  1.0000
  C   C241      1.0  0.45380  0.92136  0.15431  1.0000
  C   C242      1.0  0.07135  0.72314  0.30937  1.0000
  H   H397      1.0  0.29364  0.89468  0.05135  1.0000
  H   H398      1.0  0.20041  0.63170  0.13590  1.0000
  H   H399      1.0  0.45104  0.93180  0.12346  1.0000
  H   H400      1.0  0.23498  0.69896  0.12598  1.0000
  H   H401      1.0  0.09146  0.73218  0.32015  1.0000
  H   H402      1.0  0.13713  0.70776  0.29907  1.0000
  C   C243      1.0  0.30016  0.86665  0.22535  1.0000
  C   C244      1.0  0.30516  0.90248  0.03767  1.0000
  Fe  Fe38      1.0  0.29643  0.89900  0.12154  1.0000
  H   H403      1.0  0.09577  0.69551  0.27307  1.0000
  H   H404      1.0  0.31282  0.80708  0.16719  1.0000
  Fe  Fe39      1.0  0.33195  0.96685  0.11663  1.0000
  H   H405      1.0  0.11968  0.68342  0.33683  1.0000
  C   C245      1.0  0.09384  0.66942  0.27792  1.0000
  H   H406      1.0  0.27949  0.68716  0.14544  1.0000
  C   C246      1.0  0.21997  0.67602  0.12254  1.0000
  C   C247      1.0  0.34134  0.90985  0.03687  1.0000
  H   H407      1.0  0.19253  0.68380  0.11887  1.0000
  H   H408      1.0  0.11940  0.62304  0.26831  1.0000
  H   H409      1.0  0.12580  0.53371  0.24908  1.0000
  C   C248      1.0  0.05673  0.60033  0.13811  1.0000
  H   H410      1.0  0.28316  0.64420  0.12077  1.0000
  H   H411      1.0  0.30955  0.85889  0.24011  1.0000
  H   H412      1.0  0.16020  0.66247  0.33143  1.0000
  N   N19       1.0  0.32647  0.86500  0.19029  1.0000
  H   H413      1.0  0.25242  0.57456  0.12918  1.0000
  H   H414      1.0  0.24192  0.96488  0.06480  1.0000
  S   S79       1.0  0.47137  0.94347  0.30971  1.0000
  C   C249      1.0  0.02256  0.53751  0.11771  1.0000
  H   H415      1.0  0.31613  0.67684  0.17822  1.0000
  S   S80       1.0  0.36946  0.90604  0.05756  1.0000
  H   H416      1.0  0.35813  0.79750  0.16319  1.0000
  H   H417      1.0  0.06675  0.66116  0.27356  1.0000
  H   H418      1.0  0.10080  0.63079  0.32279  1.0000
  H   H419      1.0  0.03577  0.53933  0.14800  1.0000
  H   H420      1.0  0.20461  0.66576  0.15195  1.0000
  H   H421      1.0  0.04692  0.51452  0.20626  1.0000
  H   H422      1.0  0.32508  0.91685  0.19929  1.0000
  C   C250      1.0  0.26738  0.89650  0.18359  1.0000
  S   S81       1.0  0.38298  0.94466  0.10727  1.0000
  H   H423      1.0  0.43226  0.82794  0.02040  1.0000
  Fe  Fe40      1.0  0.37451  0.90850  0.13138  1.0000
  H   H424      1.0  0.33167  0.66197  0.15480  1.0000
  H   H425      1.0  0.27464  0.58836  0.10784  1.0000
  H   H426      1.0  0.15775  0.70696  0.33100  1.0000
  H   H427      1.0  0.04555  0.73354  0.31393  1.0000
  H   H428      1.0  0.31153  0.63460  0.17215  1.0000
  C   C251      1.0  0.12004  0.64984  0.26523  1.0000
  H   H429      1.0  0.05595  0.63104  0.11164  1.0000
  C   C252      1.0  0.00514  0.77932  0.20115  1.0000
  H   H430      1.0  0.37338  0.89127  0.22048  1.0000
  H   H431      1.0  0.14970  0.51721  0.21519  1.0000
  H   H432      1.0  0.03733  0.67227  0.23064  1.0000
  H   H433      1.0  0.07745  0.73313  0.29473  1.0000
  H   H434      1.0  0.15619  0.66851  0.29841  1.0000
  C   C253      1.0  0.35142  0.84449  0.17816  1.0000
  C   C254      1.0  0.34335  0.89870  0.19275  1.0000
  H   H435      1.0  0.22656  0.59493  0.15667  1.0000
  C   C255      1.0  0.32109  0.84787  0.20958  1.0000
  C   C256      1.0  0.33959  0.80860  0.17387  1.0000
  C   C257      1.0  0.28405  0.90414  0.02055  1.0000
  C   C258      1.0  0.31039  0.65962  0.16582  1.0000
  H   H436      1.0  0.04133  0.76015  0.26607  1.0000
  H   H437      1.0  0.35600  0.85640  0.16370  1.0000
  H   H438      1.0  0.37795  0.84266  0.18526  1.0000
  H   H439      1.0  0.06191  0.62351  0.14661  1.0000
  H   H440      1.0  0.27841  0.92004  0.17798  1.0000
  S   S82       1.0  0.39261  0.98161  0.33938  1.0000
  H   H441      1.0  0.20696  0.63981  0.18049  1.0000
  H   H442      1.0  0.10547  0.53024  0.21653  1.0000
  H   H443      1.0  0.34679  0.83999  0.21617  1.0000
  C   C259      1.0  0.25337  0.97958  0.05269  1.0000
  H   H444      1.0  0.29686  0.86902  0.16286  1.0000
  H   H445      1.0  0.34070  0.79323  0.18725  1.0000
  H   H446      1.0  0.09763  0.61294  0.11718  1.0000
  C   C260      1.0  0.30139  0.00468  0.02346  1.0000
  H   H447      1.0  0.03351  0.78276  0.19745  1.0000
  S   S83       1.0  0.08229  0.52366  0.34348  1.0000
  H   H448      1.0  0.22451  0.60351  0.19142  1.0000
  Fe  Fe41      1.0  0.34924  0.91062  0.08869  1.0000
  C   C261      1.0  0.37753  0.90037  0.20538  1.0000
  H   H449      1.0  0.39985  0.88720  0.19851  1.0000
  H   H450      1.0  0.05124  0.53327  0.11535  1.0000
  C   C262      1.0  0.14327  0.68373  0.32736  1.0000
  H   H451      1.0  0.03076  0.55660  0.17876  1.0000
  C   C263      1.0  0.09891  0.63186  0.30653  1.0000
  H   H452      1.0  0.09893  0.53269  0.18480  1.0000
  H   H453      1.0  0.23158  0.60382  0.11284  1.0000
  C   C264      1.0  0.27398  0.66805  0.15664  1.0000
  C   C265      1.0  0.06877  0.68513  0.30939  1.0000
  H   H454      1.0  0.04115  0.62244  0.30593  1.0000
  C   C266      1.0  0.02749  0.68688  0.24269  1.0000
  C   C267      1.0  0.13426  0.68250  0.30523  1.0000
  H   H455      1.0  0.06808  0.58641  0.30718  1.0000
  H   H456      1.0  0.35725  0.97993  0.04062  1.0000
  C   C268      1.0  0.29189  0.86727  0.17891  1.0000
  H   H457      1.0  0.03868  0.62229  0.34410  1.0000
  C   C269      1.0  0.00821  0.59735  0.16138  1.0000
  N   N20       1.0  0.01893  0.58871  0.14072  1.0000
  H   H458      1.0  0.23063  0.66405  0.10923  1.0000
  H   H459      1.0  0.46464  0.91489  0.18514  1.0000
  C   C270      1.0  0.47314  0.92658  0.17176  1.0000
  C   C271      1.0  0.03213  0.58387  0.17799  1.0000
  H   H460      1.0  0.25808  0.68166  0.16768  1.0000
  H   H461      1.0  0.30031  0.61482  0.13726  1.0000
  C   C272      1.0  0.25694  0.59645  0.11982  1.0000
  N   N21       1.0  0.25351  0.63958  0.14768  1.0000
  C   C273      1.0  0.21853  0.65230  0.14014  1.0000
  C   C274      1.0  0.24613  0.61313  0.16260  1.0000
  C   C275      1.0  0.27501  0.62492  0.13139  1.0000
  H   H462      1.0  0.11232  0.65283  0.24955  1.0000
  C   C276      1.0  0.06864  0.60814  0.11707  1.0000
  C   C277      1.0  0.06595  0.61129  0.30052  1.0000
  C   C278      1.0  0.01615  0.55181  0.13833  1.0000
  H   H463      1.0  0.12286  0.61858  0.30145  1.0000
  H   H464      1.0  0.07564  0.58193  0.14416  1.0000
  H   H465      1.0  0.39462  0.99892  0.06737  1.0000
  H   H466      1.0  0.34995  0.90909  0.17820  1.0000
  H   H467      1.0  0.27138  0.86100  0.22404  1.0000
  H   H468      1.0  0.27568  0.84444  0.18068  1.0000
  H   H469      1.0  0.38611  0.92659  0.20670  1.0000
  H   H470      1.0  0.30593  0.96383  0.05834  1.0000
  H   H471      1.0  0.25153  0.96382  0.03933  1.0000
  C   C279      1.0  0.29227  0.98809  0.05791  1.0000
  C   C280      1.0  0.50305  0.94748  0.17206  1.0000
  H   H472      1.0  0.29268  0.99756  0.07330  1.0000
  H   H473      1.0  0.35301  0.98840  0.07755  1.0000
  C   C281      1.0  0.49829  0.96742  0.29431  1.0000
  H   H474      1.0  0.00977  0.78724  0.08476  1.0000
  H   H475      1.0  0.04321  0.51590  0.30533  1.0000
  H   H476      1.0  0.01457  0.72821  0.20755  1.0000
  H   H477      1.0  0.01164  0.55266  0.10572  1.0000
  C   C282      1.0  0.36629  0.00609  0.06772  1.0000
  H   H478      1.0  0.23660  0.00157  0.05084  1.0000
  H   H479      1.0  0.36081  0.99781  0.15235  1.0000
  C   C283      1.0  0.49519  0.95687  0.13730  1.0000
  H   H480      1.0  0.00706  0.62466  0.16331  1.0000
  C   C284      1.0  0.35088  0.00477  0.04665  1.0000
  H   H481      1.0  0.27259  0.00746  0.02076  1.0000
  H   H482      1.0  0.49787  0.01085  0.31254  1.0000
  S   S84       1.0  0.14503  0.59560  0.35100  1.0000
  C   C285      1.0  0.35596  0.91990  0.01903  1.0000
  Fe  Fe42      1.0  0.27471  0.77557  0.64680  1.0000
  S   S85       1.0  0.23491  0.80907  0.63295  1.0000
  S   S86       1.0  0.32573  0.79408  0.66119  1.0000
  Fe  Fe43      1.0  0.23381  0.71322  0.63422  1.0000
  S   S87       1.0  0.19136  0.74228  0.61887  1.0000
  S   S88       1.0  0.22909  0.65727  0.63262  1.0000
  Fe  Fe44      1.0  0.23554  0.77361  0.60744  1.0000
  S   S89       1.0  0.23822  0.79777  0.57762  1.0000
  Fe  Fe45      1.0  0.19402  0.77502  0.64556  1.0000
  S   S90       1.0  0.14645  0.79458  0.66186  1.0000
  S   S91       1.0  0.27827  0.74204  0.62044  1.0000
  S   S92       1.0  0.23389  0.74398  0.66172  1.0000
  H   H483      1.0  0.27137  0.94767  0.42731  1.0000
  H   H484      1.0  0.27867  0.76901  0.37338  1.0000
  H   H485      1.0  0.03688  0.57121  0.39676  1.0000
  H   H486      1.0  0.39303  0.71165  0.39750  1.0000
  H   H487      1.0  0.30545  0.59844  0.65394  1.0000
  H   H488      1.0  0.30318  0.73534  0.40937  1.0000
  C   C286      1.0  0.06088  0.58734  0.39791  1.0000
  C   C287      1.0  0.08335  0.64499  0.39530  1.0000
  Fe  Fe46      1.0  0.17900  0.76877  0.43517  1.0000
  S   S93       1.0  0.22395  0.76706  0.41383  1.0000
  S   S94       1.0  0.12584  0.79110  0.42825  1.0000
  Fe  Fe47      1.0  0.22074  0.73740  0.46835  1.0000
  S   S95       1.0  0.26916  0.73301  0.44989  1.0000
  S   S96       1.0  0.21892  0.71494  0.49867  1.0000
  Fe  Fe48      1.0  0.25725  0.78423  0.43943  1.0000
  S   S97       1.0  0.30217  0.82182  0.43877  1.0000
  Fe  Fe49      1.0  0.23243  0.71600  0.42572  1.0000
  S   S98       1.0  0.25155  0.67220  0.40816  1.0000
  S   S99       1.0  0.21160  0.79009  0.46004  1.0000
  S   S100      1.0  0.18460  0.71627  0.44489  1.0000
  H   H489      1.0  0.10775  0.58876  0.41726  1.0000
  C   C288      1.0  0.03216  0.62564  0.37566  1.0000
  C   C289      1.0  0.14868  0.70835  0.68157  1.0000
  H   H490      1.0  0.17192  0.56017  0.66095  1.0000
  S   S101      1.0  0.34031  0.91918  0.36928  1.0000
  H   H491      1.0  0.07888  0.57896  0.38613  1.0000
  H   H492      1.0  0.06928  0.55153  0.65935  1.0000
  S   S102      1.0  0.01727  0.69616  0.65439  1.0000
  C   C290      1.0  0.09847  0.63147  0.65301  1.0000
  C   C291      1.0  0.20165  0.85484  0.42199  1.0000
  C   C292      1.0  0.37065  0.76877  0.41155  1.0000
  H   H493      1.0  0.09973  0.64090  0.42669  1.0000
  Fe  Fe50      1.0  0.48149  0.98756  0.66846  1.0000
  H   H494      1.0  0.11855  0.90848  0.43629  1.0000
  C   C293      1.0  0.22031  0.65027  0.39360  1.0000
  H   H495      1.0  0.22119  0.52544  0.68233  1.0000
  C   C294      1.0  0.19052  0.66599  0.38584  1.0000
  H   H496      1.0  0.38024  0.73421  0.43593  1.0000
  H   H497      1.0  0.18567  0.69160  0.38938  1.0000
  C   C295      1.0  0.10357  0.77004  0.40912  1.0000
  C   C296      1.0  0.06733  0.77531  0.40564  1.0000
  C   C297      1.0  0.04963  0.75877  0.39014  1.0000
  C   C298      1.0  0.06843  0.73755  0.37790  1.0000
  C   C299      1.0  0.10463  0.73248  0.38137  1.0000
  C   C300      1.0  0.12205  0.74830  0.39708  1.0000
  C   C301      1.0  0.05220  0.60838  0.67354  1.0000
  H   H498      1.0  0.12247  0.61906  0.62432  1.0000
  H   H499      1.0  0.12353  0.89946  0.41089  1.0000
  H   H500      1.0  0.14992  0.74405  0.39970  1.0000
  C   C302      1.0  0.31354  0.84729  0.41882  1.0000
  C   C303      1.0  0.29362  0.84736  0.40142  1.0000
  C   C304      1.0  0.30231  0.86945  0.38635  1.0000
  C   C305      1.0  0.33137  0.89114  0.38837  1.0000
  C   C306      1.0  0.35183  0.89044  0.40557  1.0000
  C   C307      1.0  0.34278  0.86872  0.42077  1.0000
  H   H501      1.0  0.27139  0.83066  0.39961  1.0000
  H   H502      1.0  0.08811  0.65502  0.65919  1.0000
  H   H503      1.0  0.37423  0.90706  0.40729  1.0000
  H   H504      1.0  0.35835  0.86880  0.43419  1.0000
  H   H505      1.0  0.03697  0.63221  0.42569  1.0000
  H   H506      1.0  0.16403  0.73149  0.67992  1.0000
  H   H507      1.0  0.37390  0.81562  0.38195  1.0000
  H   H508      1.0  0.30612  0.77736  0.40277  1.0000
  C   C308      1.0  0.13572  0.89564  0.42560  1.0000
  C   C309      1.0  0.23263  0.77442  0.55582  1.0000
  C   C310      1.0  0.22735  0.74027  0.55625  1.0000
  C   C311      1.0  0.22320  0.72240  0.53860  1.0000
  C   C312      1.0  0.22435  0.73848  0.52042  1.0000
  C   C313      1.0  0.22969  0.77265  0.52000  1.0000
  C   C314      1.0  0.23377  0.79054  0.53765  1.0000
  H   H509      1.0  0.22645  0.72761  0.57015  1.0000
  H   H510      1.0  0.21909  0.69597  0.53902  1.0000
  H   H511      1.0  0.23060  0.78524  0.50609  1.0000
  H   H512      1.0  0.23768  0.81697  0.53721  1.0000
  C   C315      1.0  0.21218  0.63430  0.65230  1.0000
  H   H513      1.0  0.20758  0.57394  0.37282  1.0000
  C   C316      1.0  0.19698  0.60315  0.64856  1.0000
  C   C317      1.0  0.08040  0.57859  0.41709  1.0000
  H   H514      1.0  0.19546  0.59390  0.63365  1.0000
  C   C318      1.0  0.10772  0.77091  0.65839  1.0000
  H   H515      1.0  0.06061  0.59025  0.35677  1.0000
  C   C319      1.0  0.05237  0.74930  0.67127  1.0000
  C   C320      1.0  0.05054  0.72640  0.65585  1.0000
  C   C321      1.0  0.07615  0.72695  0.64127  1.0000
  C   C322      1.0  0.10460  0.74911  0.64254  1.0000
  C   C323      1.0  0.10330  0.55857  0.63438  1.0000
  H   H516      1.0  0.08833  0.56632  0.62123  1.0000
  H   H517      1.0  0.07427  0.70999  0.62899  1.0000
  H   H518      1.0  0.12418  0.74917  0.63125  1.0000
  C   C324      1.0  0.33312  0.83694  0.66399  1.0000
  C   C325      1.0  0.30492  0.85901  0.66497  1.0000
  C   C326      1.0  0.31156  0.89294  0.66760  1.0000
  C   C327      1.0  0.34638  0.90519  0.66895  1.0000
  H   H519      1.0  0.21826  0.86612  0.39162  1.0000
  C   C328      1.0  0.36799  0.84915  0.66537  1.0000
  H   H520      1.0  0.27796  0.84989  0.66402  1.0000
  H   H521      1.0  0.08311  0.55133  0.41777  1.0000
  H   H522      1.0  0.12224  0.67182  0.41308  1.0000
  S   S103      1.0  0.35316  0.94789  0.67294  1.0000
  C   C329      1.0  0.05430  0.61681  0.35753  1.0000
  N   N22       1.0  0.20358  0.88809  0.43205  1.0000
  C   C330      1.0  0.20532  0.88301  0.45394  1.0000
  C   C331      1.0  0.17366  0.91064  0.42629  1.0000
  C   C332      1.0  0.17162  0.86970  0.46380  1.0000
  H   H523      1.0  0.10604  0.63140  0.38901  1.0000
  H   H524      1.0  0.18076  0.83889  0.42805  1.0000
  H   H525      1.0  0.22746  0.86598  0.45775  1.0000
  H   H526      1.0  0.21136  0.90647  0.46177  1.0000
  H   H527      1.0  0.17290  0.93222  0.43645  1.0000
  H   H528      1.0  0.17862  0.92134  0.41154  1.0000
  H   H529      1.0  0.01421  0.76610  0.60084  1.0000
  C   C333      1.0  0.20265  0.59952  0.37644  1.0000
  H   H530      1.0  0.03071  0.58978  0.67511  1.0000
  C   C334      1.0  0.35777  0.79896  0.37238  1.0000
  H   H531      1.0  0.31963  0.68535  0.38398  1.0000
  H   H532      1.0  0.07891  0.63180  0.35687  1.0000
  H   H533      1.0  0.03900  0.63288  0.67436  1.0000
  H   H534      1.0  0.22553  0.95685  0.42925  1.0000
  H   H535      1.0  0.17096  0.86796  0.39523  1.0000
  H   H536      1.0  0.17812  0.86373  0.47931  1.0000
  H   H537      1.0  0.39503  0.75924  0.37540  1.0000
  S   S104      1.0  0.42934  0.01048  0.66084  1.0000
  H   H538      1.0  0.28649  0.86978  0.37302  1.0000
  N   N23       1.0  0.35240  0.74893  0.39545  1.0000
  H   H539      1.0  0.36169  0.79486  0.41137  1.0000
  H   H540      1.0  0.26095  0.88819  0.43097  1.0000
  H   H541      1.0  0.09159  0.65300  0.62362  1.0000
  H   H542      1.0  0.22751  0.66934  0.67467  1.0000
  H   H543      1.0  0.13459  0.65829  0.63420  1.0000
  C   C335      1.0  0.00954  0.77521  0.61598  1.0000
  H   H544      1.0  0.16109  0.84665  0.45712  1.0000
  N   N24       1.0  0.32670  0.85927  0.59484  1.0000
  C   C336      1.0  0.29811  0.86834  0.58017  1.0000
  C   C337      1.0  0.31658  0.87427  0.61427  1.0000
  C   C338      1.0  0.32637  0.82217  0.59667  1.0000
  C   C339      1.0  0.36194  0.87171  0.58754  1.0000
  C   C340      1.0  0.30258  0.85508  0.55904  1.0000
  C   C341      1.0  0.31252  0.91217  0.61452  1.0000
  C   C342      1.0  0.35507  0.80703  0.60995  1.0000
  C   C343      1.0  0.39155  0.87794  0.60310  1.0000
  H   H545      1.0  0.27160  0.86013  0.58538  1.0000
  H   H546      1.0  0.29632  0.89556  0.57859  1.0000
  H   H547      1.0  0.33565  0.86810  0.62607  1.0000
  H   H548      1.0  0.29101  0.86355  0.61935  1.0000
  H   H549      1.0  0.30020  0.81348  0.60211  1.0000
  H   H550      1.0  0.32983  0.80991  0.58224  1.0000
  H   H551      1.0  0.37253  0.85440  0.57632  1.0000
  H   H552      1.0  0.35828  0.89574  0.57995  1.0000
  H   H553      1.0  0.28170  0.86601  0.54953  1.0000
  H   H554      1.0  0.32846  0.86197  0.55272  1.0000
  H   H555      1.0  0.29858  0.82801  0.55797  1.0000
  H   H556      1.0  0.28669  0.91953  0.60802  1.0000
  H   H557      1.0  0.31271  0.92122  0.62992  1.0000
  H   H558      1.0  0.33425  0.92505  0.60689  1.0000
  H   H559      1.0  0.34988  0.78011  0.61124  1.0000
  H   H560      1.0  0.35485  0.81716  0.62500  1.0000
  H   H561      1.0  0.38174  0.80977  0.60351  1.0000
  H   H562      1.0  0.41753  0.87197  0.59652  1.0000
  H   H563      1.0  0.38974  0.86313  0.61659  1.0000
  H   H564      1.0  0.39326  0.90453  0.60708  1.0000
  H   H565      1.0  0.10991  0.56984  0.66480  1.0000
  H   H566      1.0  0.31944  0.55906  0.64492  1.0000
  H   H567      1.0  0.00602  0.54759  0.35761  1.0000
  H   H568      1.0  0.36035  0.66401  0.38545  1.0000
  Fe  Fe51      1.0  0.46195  0.97663  0.38117  1.0000
  H   H569      1.0  0.38993  0.83218  0.66454  1.0000
  Fe  Fe52      1.0  0.38976  0.95152  0.36706  1.0000
  C   C344      1.0  0.18357  0.58406  0.66398  1.0000
  C   C345      1.0  0.28949  0.74552  0.37914  1.0000
  C   C346      1.0  0.34867  0.68860  0.38247  1.0000
  H   H570      1.0  0.27708  0.57648  0.63746  1.0000
  H   H571      1.0  0.35504  0.70349  0.41204  1.0000
  C   C347      1.0  0.08779  0.57079  0.65394  1.0000
  H   H572      1.0  0.02416  0.55630  0.63685  1.0000
  H   H573      1.0  0.26603  0.73054  0.38329  1.0000
  C   C348      1.0  0.23831  0.90372  0.42611  1.0000
  H   H574      1.0  0.22634  0.84073  0.42496  1.0000
  C   C349      1.0  0.37464  0.88322  0.66757  1.0000
  N   N25       1.0  0.07084  0.60434  0.65420  1.0000
  C   C350      1.0  0.09609  0.65962  0.41516  1.0000
  H   H575      1.0  0.14497  0.66136  0.36680  1.0000
  H   H576      1.0  0.25024  0.93992  0.44990  1.0000
  C   C351      1.0  0.08087  0.77181  0.67242  1.0000
  C   C352      1.0  0.04327  0.60824  0.63819  1.0000
  H   H577      1.0  0.39983  0.76978  0.40926  1.0000
  H   H578      1.0  0.25357  0.57166  0.67039  1.0000
  H   H579      1.0  0.03498  0.78681  0.62079  1.0000
  C   C353      1.0  0.31281  0.75207  0.39765  1.0000
  H   H580      1.0  0.19279  0.82935  0.39423  1.0000
  S   S105      1.0  0.40643  0.99428  0.38650  1.0000
  H   H581      1.0  0.28954  0.90980  0.66866  1.0000
  C   C354      1.0  0.22631  0.61700  0.38887  1.0000
  H   H582      1.0  0.32939  0.80473  0.37414  1.0000
  C   C355      1.0  0.36358  0.71346  0.39766  1.0000
  C   C356      1.0  0.24609  0.93900  0.43380  1.0000
  C   C357      1.0  0.16760  0.64884  0.37293  1.0000
  C   C358      1.0  0.36576  0.76224  0.37627  1.0000
  H   H583      1.0  0.15062  0.88863  0.46422  1.0000
  H   H584      1.0  0.37464  0.77624  0.44311  1.0000
  H   H585      1.0  0.05296  0.79211  0.41495  1.0000
  C   C359      1.0  0.11221  0.64045  0.63251  1.0000
  C   C360      1.0  0.19564  0.85522  0.39954  1.0000
  C   C361      1.0  0.02468  0.63244  0.41085  1.0000
  C   C362      1.0  0.36497  0.75686  0.43271  1.0000
  N   N26       1.0  0.05085  0.62305  0.39528  1.0000
  H   H586      1.0  0.40157  0.89244  0.66840  1.0000
  C   C363      1.0  0.17349  0.61559  0.36817  1.0000
  H   H587      1.0  0.12221  0.62544  0.66206  1.0000
  H   H588      1.0  0.24029  0.90535  0.40991  1.0000
  H   H589      1.0  0.24936  0.60471  0.39482  1.0000
  H   H590      1.0  0.13141  0.56612  0.63297  1.0000
  H   H591      1.0  0.07802  0.67905  0.42052  1.0000
  H   H592      1.0  0.33666  0.75279  0.43585  1.0000
  H   H593      1.0  0.15815  0.69110  0.67009  1.0000
  H   H594      1.0  0.02314  0.65130  0.37305  1.0000
  C   C364      1.0  0.27804  0.55736  0.66766  1.0000
  H   H595      1.0  0.11930  0.71620  0.37190  1.0000
  H   H596      1.0  0.03235  0.74926  0.68247  1.0000
  H   H597      1.0  0.07945  0.66657  0.38553  1.0000
  H   H598      1.0  0.22505  0.53069  0.64706  1.0000
  H   H599      1.0  0.12040  0.71285  0.67845  1.0000
  H   H600      1.0  0.10209  0.53118  0.63393  1.0000
  H   H601      1.0  0.06591  0.58617  0.43036  1.0000
  H   H602      1.0  0.13393  0.86897  0.42866  1.0000
  H   H603      1.0  0.26489  0.52222  0.63438  1.0000
  C   C365      1.0  0.24691  0.51220  0.68334  1.0000
  H   H604      1.0  0.36480  0.80503  0.35704  1.0000
  C   C366      1.0  0.29612  0.57322  0.64983  1.0000
  C   C367      1.0  0.21487  0.64579  0.67162  1.0000
  S   S106      1.0  0.44491  0.93151  0.36410  1.0000
  H   H605      1.0  0.02169  0.76282  0.38749  1.0000
  H   H606      1.0  0.02590  0.68559  0.40295  1.0000
  H   H607      1.0  0.35537  0.74825  0.36346  1.0000
  H   H608      1.0  0.35556  0.69485  0.36721  1.0000
  H   H609      1.0  0.30215  0.73177  0.36715  1.0000
  H   H610      1.0  0.00783  0.60991  0.37526  1.0000
  H   H611      1.0  0.03030  0.63270  0.63948  1.0000
  H   H612      1.0  0.05512  0.60850  0.62342  1.0000
  C   C368      1.0  0.00719  0.66651  0.40826  1.0000
  H   H613      1.0  0.29565  0.56276  0.68051  1.0000
  S   S107      1.0  0.47037  0.00774  0.35459  1.0000
  S   S108      1.0  0.13686  0.51276  0.38045  1.0000
  N   N27       1.0  0.26987  0.52081  0.66612  1.0000
  Fe  Fe53      1.0  0.40622  0.97170  0.68045  1.0000
  S   S109      1.0  0.04819  0.71676  0.35802  1.0000
  H   H614      1.0  0.02111  0.82552  0.64621  1.0000
  C   C369      1.0  0.18562  0.59586  0.68324  1.0000
  C   C370      1.0  0.01361  0.58176  0.63743  1.0000
  H   H615      1.0  0.01558  0.81348  0.67115  1.0000
  C   C371      1.0  0.24913  0.51497  0.64735  1.0000
  H   H616      1.0  0.32407  0.51456  0.67595  1.0000
  Fe  Fe54      1.0  0.13719  0.54017  0.35224  1.0000
  H   H617      1.0  0.00453  0.75319  0.62497  1.0000
  H   H618      1.0  0.08296  0.78896  0.68461  1.0000
  S   S110      1.0  0.50349  0.98228  0.40503  1.0000
  Fe  Fe55      1.0  0.46394  0.98117  0.71153  1.0000
  H   H619      1.0  0.13389  0.61763  0.91940  1.0000
  C   C372      1.0  0.48755  0.93243  0.87382  1.0000
  H   H620      1.0  0.31879  0.90918  0.73454  1.0000
  H   H621      1.0  0.38940  0.81145  0.01343  1.0000
  H   H622      1.0  0.42457  0.83419  0.72002  1.0000
  H   H623      1.0  0.45515  0.99318  0.78092  1.0000
  C   C373      1.0  0.45122  0.92561  0.87188  1.0000
  H   H624      1.0  0.32839  0.86214  0.97678  1.0000
  C   C374      1.0  0.33414  0.92414  0.72405  1.0000
  Fe  Fe56      1.0  0.05475  0.70506  0.85622  1.0000
  S   S111      1.0  0.06957  0.66170  0.83788  1.0000
  H   H625      1.0  0.18581  0.74263  0.71997  1.0000
  Fe  Fe57      1.0  0.13249  0.72216  0.86531  1.0000
  S   S112      1.0  0.15252  0.67976  0.84692  1.0000
  S   S113      1.0  0.16678  0.74838  0.88849  1.0000
  Fe  Fe58      1.0  0.11000  0.69541  0.82524  1.0000
  S   S114      1.0  0.11102  0.69107  0.79216  1.0000
  Fe  Fe59      1.0  0.10961  0.65002  0.86104  1.0000
  S   S115      1.0  0.10722  0.59945  0.87465  1.0000
  S   S116      1.0  0.09318  0.74026  0.84245  1.0000
  S   S117      1.0  0.09157  0.69099  0.88049  1.0000
  H   H626      1.0  0.40246  0.91520  0.88685  1.0000
  H   H627      1.0  0.14717  0.64923  0.93702  1.0000
  Fe  Fe60      1.0  0.36168  0.92242  0.92566  1.0000
  S   S118      1.0  0.42072  0.91430  0.92822  1.0000
  H   H628      1.0  0.19552  0.68195  0.95377  1.0000
  S   S119      1.0  0.25768  0.88141  0.88355  1.0000
  S   S120      1.0  0.31959  0.88456  0.93240  1.0000
  C   C375      1.0  0.19344  0.78443  0.88649  1.0000
  C   C376      1.0  0.19743  0.80104  0.86875  1.0000
  C   C377      1.0  0.21749  0.83049  0.86811  1.0000
  C   C378      1.0  0.23383  0.84362  0.88513  1.0000
  C   C379      1.0  0.23002  0.82683  0.90285  1.0000
  C   C380      1.0  0.20996  0.79737  0.90350  1.0000
  H   H629      1.0  0.18500  0.79133  0.85554  1.0000
  H   H630      1.0  0.22037  0.84328  0.85433  1.0000
  H   H631      1.0  0.24234  0.83671  0.91606  1.0000
  H   H632      1.0  0.20696  0.78478  0.91732  1.0000
  C   C381      1.0  0.06987  0.69932  0.78065  1.0000
  C   C382      1.0  0.05968  0.68188  0.76363  1.0000
  H   H633      1.0  0.15526  0.75590  0.75173  1.0000
  H   H634      1.0  0.11912  0.79894  0.87283  1.0000
  Fe  Fe61      1.0  0.29656  0.92421  0.95161  1.0000
  C   C383      1.0  0.09921  0.71707  0.71656  1.0000
  H   H635      1.0  0.07635  0.66240  0.75819  1.0000
  C   C384      1.0  0.15640  0.74514  0.71985  1.0000
  H   H636      1.0  0.16048  0.79107  0.73640  1.0000
  H   H637      1.0  0.35292  0.87209  0.75646  1.0000
  C   C385      1.0  0.40991  0.83010  0.00974  1.0000
  H   H638      1.0  0.36713  0.92781  0.75748  1.0000
  N   N28       1.0  0.13859  0.71165  0.71887  1.0000
  C   C386      1.0  0.19975  0.52953  0.88622  1.0000
  C   C387      1.0  0.42362  0.83476  0.95348  1.0000
  C   C388      1.0  0.13877  0.54609  0.89103  1.0000
  C   C389      1.0  0.14376  0.57381  0.87921  1.0000
  C   C390      1.0  0.17699  0.57970  0.87100  1.0000
  C   C391      1.0  0.20493  0.55755  0.87451  1.0000
  C   C392      1.0  0.15450  0.69310  0.70194  1.0000
  H   H639      1.0  0.11310  0.54127  0.89737  1.0000
  H   H640      1.0  0.18096  0.60086  0.86167  1.0000
  H   H641      1.0  0.23049  0.56182  0.86796  1.0000
  C   C393      1.0  0.44602  0.92163  0.90718  1.0000
  C   C394      1.0  0.48246  0.92815  0.90915  1.0000
  C   C395      1.0  0.39980  0.87688  0.97495  1.0000
  H   H642      1.0  0.40835  0.88836  0.77660  1.0000
  H   H643      1.0  0.08032  0.76739  0.89268  1.0000
  C   C396      1.0  0.43041  0.92061  0.88852  1.0000
  H   H644      1.0  0.45277  0.89532  0.96623  1.0000
  H   H645      1.0  0.40210  0.78588  0.94435  1.0000
  N   N29       1.0  0.09955  0.83742  0.89202  1.0000
  C   C397      1.0  0.10280  0.81158  0.90782  1.0000
  C   C398      1.0  0.13101  0.86039  0.89425  1.0000
  C   C399      1.0  0.10038  0.82003  0.87234  1.0000
  C   C400      1.0  0.06479  0.85482  0.89482  1.0000
  C   C401      1.0  0.07672  0.78205  0.90628  1.0000
  C   C402      1.0  0.13414  0.87926  0.91390  1.0000
  H   H646      1.0  0.03970  0.58846  0.79373  1.0000
  C   C403      1.0  0.05700  0.88466  0.88160  1.0000
  H   H647      1.0  0.12999  0.80114  0.90817  1.0000
  H   H648      1.0  0.09887  0.82258  0.92262  1.0000
  H   H649      1.0  0.13187  0.87929  0.88260  1.0000
  H   H650      1.0  0.15599  0.84640  0.89242  1.0000
  H   H651      1.0  0.16719  0.55583  0.82091  1.0000
  H   H652      1.0  0.07401  0.80900  0.86864  1.0000
  H   H653      1.0  0.04234  0.83742  0.89219  1.0000
  H   H654      1.0  0.06114  0.86263  0.91035  1.0000
  H   H655      1.0  0.04872  0.78975  0.90747  1.0000
  H   H656      1.0  0.14437  0.64700  0.75305  1.0000
  H   H657      1.0  0.08207  0.76504  0.91866  1.0000
  H   H658      1.0  0.15718  0.89645  0.91321  1.0000
  H   H659      1.0  0.11044  0.89441  0.91682  1.0000
  H   H660      1.0  0.13955  0.86250  0.92635  1.0000
  H   H661      1.0  0.03876  0.90159  0.88935  1.0000
  C   C404      1.0  0.03698  0.58227  0.90940  1.0000
  Fe  Fe62      1.0  0.14671  0.52141  0.69844  1.0000
  S   S121      1.0  0.16781  0.57343  0.70292  1.0000
  H   H662      1.0  0.08050  0.89998  0.87842  1.0000
  C   C405      1.0  0.16659  0.52411  0.89453  1.0000
  C   C406      1.0  0.02410  0.61157  0.79297  1.0000
  C   C407      1.0  0.33685  0.83761  0.98217  1.0000
  H   H663      1.0  0.43908  0.92434  0.85745  1.0000
  H   H664      1.0  0.20495  0.63501  0.70199  1.0000
  H   H665      1.0  0.38281  0.88276  0.98745  1.0000
  H   H666      1.0  0.13004  0.70325  0.74993  1.0000
  H   H667      1.0  0.44084  0.90835  0.72420  1.0000
  H   H668      1.0  0.09341  0.73849  0.70697  1.0000
  H   H669      1.0  0.14058  0.84676  0.85533  1.0000
  S   S122      1.0  0.26257  0.94581  0.92765  1.0000
  C   C408      1.0  0.00561  0.71389  0.76100  1.0000
  C   C409      1.0  0.42387  0.82451  0.98881  1.0000
  C   C410      1.0  0.14399  0.51412  0.83612  1.0000
  H   H670      1.0  0.14992  0.76000  0.70660  1.0000
  H   H671      1.0  0.32603  0.85428  0.72527  1.0000
  H   H672      1.0  0.17467  0.69925  0.74272  1.0000
  C   C411      1.0  0.39363  0.92095  0.75183  1.0000
  H   H673      1.0  0.36527  0.88994  0.70757  1.0000
  H   H674      1.0  0.44481  0.91257  0.76702  1.0000
  H   H675      1.0  0.39149  0.84858  0.75265  1.0000
  H   H676      1.0  0.05494  0.73719  0.80115  1.0000
  C   C412      1.0  0.29885  0.91365  0.00265  1.0000
  H   H677      1.0  0.35775  0.82634  0.95419  1.0000
  H   H678      1.0  0.40491  0.94399  0.74549  1.0000
  H   H679      1.0  0.36881  0.79707  0.97250  1.0000
  C   C413      1.0  0.36735  0.82406  0.96966  1.0000
  Fe  Fe63      1.0  0.30949  0.97852  0.92142  1.0000
  C   C414      1.0  0.41605  0.91238  0.77018  1.0000
  H   H680      1.0  0.10814  0.82521  0.84100  1.0000
  C   C415      1.0  0.33465  0.92238  0.00206  1.0000
  H   H681      1.0  0.38634  0.92815  0.71191  1.0000
  H   H682      1.0  0.45853  0.85817  0.70909  1.0000
  C   C416      1.0  0.14690  0.69397  0.73783  1.0000
  C   C417      1.0  0.04746  0.72363  0.78802  1.0000
  H   H683      1.0  0.38599  0.88789  0.96207  1.0000
  S   S123      1.0  0.41027  0.00393  0.70749  1.0000
  C   C418      1.0  0.07622  0.68809  0.70894  1.0000
  H   H684      1.0  0.01375  0.53329  0.70304  1.0000
  S   S124      1.0  0.33292  0.94337  0.89969  1.0000
  H   H685      1.0  0.08760  0.67527  0.69623  1.0000
  H   H686      1.0  0.16610  0.64447  0.73003  1.0000
  C   C419      1.0  0.11193  0.84045  0.85447  1.0000
  N   N30       1.0  0.39032  0.89429  0.73631  1.0000
  C   C420      1.0  0.37025  0.90864  0.71917  1.0000
  C   C421      1.0  0.42728  0.88590  0.72983  1.0000
  C   C422      1.0  0.37195  0.86454  0.74493  1.0000
  C   C423      1.0  0.14055  0.54766  0.82574  1.0000
  C   C424      1.0  0.43060  0.85893  0.71401  1.0000
  C   C425      1.0  0.35045  0.84207  0.73065  1.0000
  H   H687      1.0  0.44450  0.78427  0.95721  1.0000
  H   H688      1.0  0.49466  0.92887  0.92358  1.0000
  H   H689      1.0  0.44382  0.87719  0.74231  1.0000
  H   H690      1.0  0.11730  0.65800  0.91758  1.0000
  H   H691      1.0  0.01603  0.77183  0.87151  1.0000
  S   S125      1.0  0.47965  0.96175  0.74142  1.0000
  S   S126      1.0  0.27221  0.91388  0.98123  1.0000
  H   H692      1.0  0.33782  0.94951  0.73002  1.0000
  Fe  Fe64      1.0  0.28846  0.90840  0.90799  1.0000
  H   H693      1.0  0.06490  0.59020  0.91186  1.0000
  H   H694      1.0  0.34179  0.81959  0.73856  1.0000
  H   H695      1.0  0.36566  0.83365  0.71783  1.0000
  H   H696      1.0  0.03305  0.56096  0.91933  1.0000
  H   H697      1.0  0.09984  0.62003  0.69196  1.0000
  C   C426      1.0  0.14349  0.65600  0.73768  1.0000
  S   S127      1.0  0.34114  0.95973  0.94698  1.0000
  H   H698      1.0  0.41055  0.84797  0.94109  1.0000
  H   H699      1.0  0.01949  0.67501  0.74107  1.0000
  H   H700      1.0  0.46458  0.98490  0.80599  1.0000
  H   H701      1.0  0.31804  0.92639  0.71038  1.0000
  H   H702      1.0  0.34599  0.93060  0.98845  1.0000
  H   H703      1.0  0.09639  0.86316  0.85245  1.0000
  H   H704      1.0  0.44813  0.88843  0.99237  1.0000
  H   H705      1.0  0.26207  0.54712  0.70686  1.0000
  H   H706      1.0  0.13004  0.56671  0.83583  1.0000
  H   H707      1.0  0.45461  0.99435  0.90699  1.0000
  H   H708      1.0  0.12427  0.54683  0.81219  1.0000
  H   H709      1.0  0.00806  0.60876  0.93100  1.0000
  N   N31       1.0  0.20874  0.65485  0.91504  1.0000
  C   C427      1.0  0.23405  0.64938  0.89833  1.0000
  C   C428      1.0  0.21624  0.62851  0.93006  1.0000
  C   C429      1.0  0.21707  0.68825  0.92390  1.0000
  C   C430      1.0  0.17126  0.65362  0.90701  1.0000
  C   C431      1.0  0.23445  0.67616  0.88232  1.0000
  C   C432      1.0  0.21202  0.59260  0.92271  1.0000
  C   C433      1.0  0.19421  0.69919  0.94126  1.0000
  C   C434      1.0  0.14155  0.64398  0.92140  1.0000
  H   H710      1.0  0.26178  0.64697  0.90392  1.0000
  H   H711      1.0  0.22792  0.62575  0.89055  1.0000
  H   H712      1.0  0.19947  0.63093  0.94316  1.0000
  H   H713      1.0  0.24383  0.63116  0.93590  1.0000
  H   H714      1.0  0.24535  0.68953  0.92877  1.0000
  H   H715      1.0  0.21372  0.70812  0.91288  1.0000
  H   H716      1.0  0.16404  0.67774  0.90040  1.0000
  H   H717      1.0  0.16926  0.63545  0.89477  1.0000
  H   H718      1.0  0.24919  0.69854  0.88731  1.0000
  H   H719      1.0  0.24839  0.66656  0.86924  1.0000
  H   H720      1.0  0.20747  0.68320  0.87753  1.0000
  H   H721      1.0  0.23425  0.58526  0.91314  1.0000
  H   H722      1.0  0.21251  0.57557  0.93541  1.0000
  H   H723      1.0  0.18665  0.58845  0.91480  1.0000
  H   H724      1.0  0.16638  0.70331  0.93654  1.0000
  H   H725      1.0  0.20430  0.72340  0.94676  1.0000
  H   H726      1.0  0.02751  0.63457  0.91292  1.0000
  H   H727      1.0  0.11784  0.77212  0.73802  1.0000
  H   H728      1.0  0.14434  0.66741  0.70091  1.0000
  C   C435      1.0  0.42790  0.79853  0.94682  1.0000
  S   S128      1.0  0.45797  0.94605  0.68587  1.0000
  H   H729      1.0  0.41425  0.86373  0.70081  1.0000
  H   H730      1.0  0.05091  0.69807  0.70311  1.0000
  N   N32       1.0  0.40344  0.84014  0.97221  1.0000
  H   H731      1.0  0.45090  0.84516  0.95461  1.0000
  H   H732      1.0  0.03517  0.57381  0.89399  1.0000
  H   H733      1.0  0.04056  0.63108  0.80011  1.0000
  H   H734      1.0  0.08746  0.72464  0.73078  1.0000
  H   H735      1.0  0.41206  0.93166  0.78158  1.0000
  C   C436      1.0  0.14662  0.76691  0.73763  1.0000
  H   H736      1.0  0.42452  0.79726  0.98687  1.0000
  C   C437      1.0  0.26291  0.52021  0.70373  1.0000
  H   H737      1.0  0.04404  0.87663  0.86764  1.0000
  C   C438      1.0  0.43444  0.89643  0.97876  1.0000
  H   H738      1.0  0.11853  0.64696  0.73097  1.0000
  H   H739      1.0  0.06007  0.61189  0.70517  1.0000
  H   H740      1.0  0.06998  0.67034  0.72064  1.0000
  H   H741      1.0  0.43363  0.99199  0.87427  1.0000
  H   H742      1.0  0.49742  0.00066  0.87527  1.0000
  H   H743      1.0  0.31341  0.82105  0.98058  1.0000
  C   C439      1.0  0.02758  0.68903  0.75388  1.0000
  H   H744      1.0  0.34337  0.83939  0.99798  1.0000
  H   H745      1.0  0.03309  0.61996  0.87467  1.0000
  C   C440      1.0  0.45510  0.00436  0.79581  1.0000
  H   H746      1.0  0.45239  0.83173  0.98861  1.0000
  H   H747      1.0  0.44180  0.79825  0.93254  1.0000
  H   H748      1.0  0.42776  0.92289  0.98076  1.0000
  H   H749      1.0  0.03918  0.51940  0.82925  1.0000
  C   C441      1.0  0.20194  0.62643  0.68704  1.0000
  H   H750      1.0  0.15188  0.52012  0.85145  1.0000
  H   H751      1.0  0.18364  0.69077  0.70423  1.0000
  H   H752      1.0  0.07195  0.55180  0.83291  1.0000
  H   H753      1.0  0.02020  0.61736  0.77724  1.0000
  C   C442      1.0  0.01559  0.73100  0.77816  1.0000
  C   C443      1.0  0.05799  0.53106  0.83991  1.0000
  H   H754      1.0  0.09487  0.51669  0.86239  1.0000
  H   H755      1.0  0.04183  0.54178  0.85185  1.0000
  C   C444      1.0  0.01232  0.61119  0.91494  1.0000
  H   H756      1.0  0.29038  0.51118  0.70540  1.0000
  H   H757      1.0  0.39938  0.85508  0.01241  1.0000
  H   H758      1.0  0.00494  0.53577  0.76503  1.0000
  H   H759      1.0  0.42776  0.01034  0.80001  1.0000
  H   H760      1.0  0.08338  0.57860  0.69431  1.0000
  H   H761      1.0  0.38387  0.92595  0.01836  1.0000
  C   C445      1.0  0.07558  0.60461  0.69213  1.0000
  C   C446      1.0  0.00508  0.61674  0.86997  1.0000
  C   C447      1.0  0.50315  0.93397  0.89250  1.0000
  C   C448      1.0  0.01426  0.51138  0.76874  1.0000
  Fe  Fe65      1.0  0.88338  0.46738  0.19218  1.0000
  Fe  Fe66      1.0  0.63734  0.23361  0.34759  1.0000
  S   S129      1.0  0.83252  0.43935  0.18535  1.0000
  H   H762      1.0  0.50569  0.07095  0.26327  1.0000
  H   H763      1.0  0.53201  0.10131  0.16339  1.0000
  Fe  Fe67      1.0  0.93696  0.49392  0.22236  1.0000
  H   H764      1.0  0.53345  0.26502  0.10584  1.0000
  Fe  Fe68      1.0  0.72565  0.27484  0.09433  1.0000
  S   S130      1.0  0.77250  0.24531  0.10461  1.0000
  S   S131      1.0  0.71543  0.29948  0.06488  1.0000
  Fe  Fe69      1.0  0.69038  0.27126  0.13446  1.0000
  S   S132      1.0  0.73452  0.24235  0.14803  1.0000
  S   S133      1.0  0.64257  0.28577  0.15206  1.0000
  Fe  Fe70      1.0  0.77067  0.27714  0.13194  1.0000
  S   S134      1.0  0.82177  0.29652  0.14612  1.0000
  Fe  Fe71      1.0  0.73247  0.21320  0.11999  1.0000
  S   S135      1.0  0.72699  0.15753  0.11867  1.0000
  S   S136      1.0  0.72634  0.30867  0.12069  1.0000
  S   S137      1.0  0.68603  0.24017  0.10732  1.0000
  H   H765      1.0  0.53700  0.04321  0.29070  1.0000
  S   S138      1.0  0.65449  0.18351  0.33700  1.0000
  Fe  Fe72      1.0  0.60399  0.18360  0.31900  1.0000
  S   S139      1.0  0.59972  0.16654  0.28724  1.0000
  H   H766      1.0  0.74216  0.20441  0.02249  1.0000
  H   H767      1.0  0.96124  0.39568  0.15851  1.0000
  H   H768      1.0  0.72046  0.32051  0.28348  1.0000
  H   H769      1.0  0.88487  0.37635  0.13678  1.0000
  N   N33       1.0  0.94796  0.48349  0.34231  1.0000
  C   C449      1.0  0.56316  0.18130  0.27349  1.0000
  H   H770      1.0  0.57667  0.05487  0.34608  1.0000
  C   C450      1.0  0.60501  0.28197  0.28423  1.0000
  C   C451      1.0  0.69200  0.10420  0.17424  1.0000
  C   C452      1.0  0.67359  0.28076  0.26137  1.0000
  C   C453      1.0  0.55683  0.16972  0.25428  1.0000
  H   H771      1.0  0.91504  0.44635  0.13233  1.0000
  S   S140      1.0  0.95103  0.50447  0.25440  1.0000
  H   H772      1.0  0.57373  0.15089  0.24822  1.0000
  C   C454      1.0  0.71250  0.13788  0.14015  1.0000
  C   C455      1.0  0.72245  0.15006  0.15863  1.0000
  H   H773      1.0  0.73880  0.17199  0.15983  1.0000
  H   H774      1.0  0.72131  0.14208  0.18980  1.0000
  C   C456      1.0  0.60539  0.25975  0.14940  1.0000
  C   C457      1.0  0.60724  0.23041  0.13860  1.0000
  C   C458      1.0  0.57690  0.21078  0.13576  1.0000
  C   C459      1.0  0.54484  0.21977  0.14430  1.0000
  C   C460      1.0  0.54306  0.24871  0.15550  1.0000
  C   C461      1.0  0.57327  0.26881  0.15791  1.0000
  H   H775      1.0  0.63207  0.22258  0.13256  1.0000
  H   H776      1.0  0.57850  0.18819  0.12728  1.0000
  S   S141      1.0  0.58629  0.04289  0.19940  1.0000
  H   H777      1.0  0.57169  0.29148  0.16632  1.0000
  C   C462      1.0  0.83024  0.39955  0.17457  1.0000
  C   C463      1.0  0.85784  0.37693  0.17655  1.0000
  C   C464      1.0  0.85452  0.34515  0.16817  1.0000
  C   C465      1.0  0.82393  0.33594  0.15746  1.0000
  C   C466      1.0  0.79629  0.35851  0.15562  1.0000
  C   C467      1.0  0.79936  0.39006  0.16426  1.0000
  H   H778      1.0  0.88133  0.38372  0.18490  1.0000
  H   H779      1.0  0.87562  0.32753  0.17008  1.0000
  H   H780      1.0  0.77252  0.35172  0.14754  1.0000
  H   H781      1.0  0.77773  0.40729  0.16285  1.0000
  H   H782      1.0  0.51575  0.30263  0.11473  1.0000
  H   H783      1.0  0.91017  0.42558  0.15571  1.0000
  H   H784      1.0  0.56425  0.09962  0.13559  1.0000
  H   H785      1.0  0.99760  0.33921  0.14377  1.0000
  C   C468      1.0  0.70363  0.26801  0.24839  1.0000
  H   H786      1.0  0.64864  0.27605  0.25294  1.0000
  C   C469      1.0  0.72884  0.24506  0.04154  1.0000
  C   C470      1.0  0.71491  0.27685  0.04265  1.0000
  S   S142      1.0  0.90636  0.49747  0.16791  1.0000
  H   H787      1.0  0.73896  0.23330  0.05464  1.0000
  C   C471      1.0  0.98010  0.34552  0.15605  1.0000
  H   H788      1.0  0.70052  0.24141  0.24508  1.0000
  H   H789      1.0  0.56202  0.30515  0.06405  1.0000
  N   N34       1.0  0.62060  0.19133  0.20106  1.0000
  C   C472      1.0  0.58842  0.18283  0.18861  1.0000
  C   C473      1.0  0.60952  0.21735  0.21563  1.0000
  C   C474      1.0  0.63175  0.16033  0.21159  1.0000
  C   C475      1.0  0.64933  0.20326  0.18758  1.0000
  C   C476      1.0  0.59263  0.15394  0.17395  1.0000
  H   H790      1.0  0.94180  0.50108  0.31259  1.0000
  C   C477      1.0  0.65426  0.16451  0.23046  1.0000
  C   C478      1.0  0.68305  0.21827  0.19707  1.0000
  H   H791      1.0  0.56531  0.17676  0.19801  1.0000
  H   H792      1.0  0.58013  0.20430  0.17971  1.0000
  H   H793      1.0  0.63085  0.22348  0.22633  1.0000
  H   H794      1.0  0.58757  0.20781  0.22476  1.0000
  H   H795      1.0  0.60814  0.14555  0.21600  1.0000
  H   H796      1.0  0.64682  0.14404  0.20159  1.0000
  H   H797      1.0  0.65871  0.18277  0.17811  1.0000
  H   H798      1.0  0.63903  0.22132  0.17679  1.0000
  H   H799      1.0  0.61345  0.15885  0.16300  1.0000
  H   H800      1.0  0.59789  0.13018  0.18139  1.0000
  H   H801      1.0  0.56743  0.15096  0.16554  1.0000
  H   H802      1.0  0.64609  0.04256  0.32395  1.0000
  S   S143      1.0  0.57295  0.15916  0.34263  1.0000
  H   H803      1.0  0.53107  0.04823  0.12906  1.0000
  H   H804      1.0  0.66375  0.13981  0.23510  1.0000
  H   H805      1.0  0.63812  0.17422  0.24270  1.0000
  H   H806      1.0  0.67790  0.18021  0.22843  1.0000
  H   H807      1.0  0.70315  0.19898  0.19989  1.0000
  H   H808      1.0  0.67827  0.23244  0.21059  1.0000
  H   H809      1.0  0.66560  0.06990  0.15467  1.0000
  C   C479      1.0  0.54055  0.20488  0.28141  1.0000
  C   C480      1.0  0.71261  0.13303  0.17558  1.0000
  C   C481      1.0  0.70561  0.27014  0.29304  1.0000
  C   C482      1.0  0.52962  0.01817  0.28676  1.0000
  N   N35       1.0  0.67125  0.26642  0.28167  1.0000
  H   H810      1.0  0.70167  0.31847  0.30793  1.0000
  H   H811      1.0  0.69453  0.23660  0.18684  1.0000
  H   H812      1.0  0.64208  0.22550  0.26807  1.0000
  H   H813      1.0  0.61982  0.35452  0.05738  1.0000
  S   S144      1.0  0.56730  0.02900  0.25341  1.0000
  C   C483      1.0  0.62205  0.25270  0.06910  1.0000
  H   H814      1.0  0.79120  0.04541  0.19385  1.0000
  H   H815      1.0  0.70246  0.28104  0.23410  1.0000
  H   H816      1.0  0.93204  0.35105  0.10324  1.0000
  H   H817      1.0  0.59940  0.32577  0.04115  1.0000
  H   H818      1.0  0.70264  0.20228  0.29514  1.0000
  H   H819      1.0  0.99290  0.51074  0.33094  1.0000
  Fe  Fe73      1.0  0.95844  0.48098  0.18012  1.0000
  C   C484      1.0  0.99130  0.49315  0.26597  1.0000
  H   H820      1.0  0.00142  0.45151  0.24721  1.0000
  H   H821      1.0  0.61166  0.26008  0.05451  1.0000
  C   C485      1.0  0.54234  0.09996  0.12460  1.0000
  S   S145      1.0  0.88263  0.51088  0.21297  1.0000
  C   C486      1.0  0.93903  0.34566  0.11881  1.0000
  C   C487      1.0  0.59712  0.25034  0.20685  1.0000
  H   H822      1.0  0.74551  0.30492  0.30374  1.0000
  H   H823      1.0  0.91421  0.31556  0.14206  1.0000
  H   H824      1.0  0.92814  0.36465  0.16032  1.0000
  C   C488      1.0  0.90482  0.39264  0.12984  1.0000
  C   C489      1.0  0.90110  0.42634  0.14021  1.0000
  H   H825      1.0  0.93370  0.43395  0.33244  1.0000
  H   H826      1.0  0.79620  0.07802  0.15310  1.0000
  N   N36       1.0  0.59646  0.30117  0.08952  1.0000
  C   C490      1.0  0.57080  0.30706  0.10601  1.0000
  C   C491      1.0  0.63229  0.31294  0.09678  1.0000
  C   C492      1.0  0.59781  0.26447  0.08570  1.0000
  C   C493      1.0  0.58360  0.31939  0.07157  1.0000
  C   C494      1.0  0.98316  0.44535  0.31899  1.0000
  C   C495      1.0  0.63461  0.34951  0.10307  1.0000
  C   C496      1.0  0.51566  0.07155  0.12794  1.0000
  H   H827      1.0  0.70999  0.20870  0.26937  1.0000
  H   H828      1.0  0.58163  0.29742  0.12004  1.0000
  H   H829      1.0  0.56703  0.33394  0.10860  1.0000
  H   H830      1.0  0.65323  0.30889  0.08592  1.0000
  H   H831      1.0  0.64092  0.29822  0.10968  1.0000
  H   H832      1.0  0.60592  0.25131  0.09930  1.0000
  H   H833      1.0  0.57123  0.25452  0.08161  1.0000
  H   H834      1.0  0.58659  0.29447  0.29442  1.0000
  H   H835      1.0  0.57157  0.34330  0.07599  1.0000
  H   H836      1.0  0.95613  0.40764  0.10594  1.0000
  H   H837      1.0  0.70333  0.25788  0.30753  1.0000
  H   H838      1.0  0.74183  0.05193  0.14881  1.0000
  H   H839      1.0  0.66295  0.35666  0.10486  1.0000
  H   H840      1.0  0.62263  0.36623  0.09211  1.0000
  H   H841      1.0  0.62213  0.35342  0.11755  1.0000
  C   C497      1.0  0.53334  0.29210  0.10337  1.0000
  N   N37       1.0  0.76597  0.01830  0.16978  1.0000
  H   H842      1.0  0.52182  0.11406  0.28355  1.0000
  H   H843      1.0  0.72764  0.25727  0.28567  1.0000
  C   C498      1.0  0.68959  0.20422  0.28051  1.0000
  C   C499      1.0  0.71855  0.30576  0.29705  1.0000
  S   S146      1.0  0.58922  0.23494  0.32776  1.0000
  H   H844      1.0  0.59587  0.25600  0.28292  1.0000
  C   C500      1.0  0.92569  0.49781  0.32600  1.0000
  H   H845      1.0  0.52950  0.12448  0.12477  1.0000
  S   S147      1.0  0.68069  0.27258  0.34555  1.0000
  C   C501      1.0  0.61164  0.32823  0.05599  1.0000
  H   H846      1.0  0.68454  0.09918  0.12449  1.0000
  Fe  Fe74      1.0  0.64514  0.03904  0.19690  1.0000
  H   H847      1.0  0.75100  0.02005  0.21242  1.0000
  H   H848      1.0  0.77441  0.02604  0.13860  1.0000
  H   H849      1.0  0.64426  0.22395  0.29399  1.0000
  H   H850      1.0  0.89554  0.39570  0.11438  1.0000
  H   H851      1.0  0.75611  0.06683  0.18205  1.0000
  C   C502      1.0  0.52836  0.18213  0.24299  1.0000
  C   C503      1.0  0.66007  0.23045  0.28084  1.0000
  H   H852      1.0  0.64256  0.27742  0.30821  1.0000
  H   H853      1.0  0.88443  0.32682  0.12230  1.0000
  H   H854      1.0  0.73020  0.27332  0.25478  1.0000
  H   H855      1.0  0.91680  0.29581  0.11864  1.0000
  C   C504      1.0  0.64316  0.28521  0.29258  1.0000
  C   C505      1.0  0.95771  0.44872  0.33644  1.0000
  C   C506      1.0  0.68142  0.09219  0.15582  1.0000
  H   H856      1.0  0.79528  0.31686  0.04488  1.0000
  H   H857      1.0  0.60210  0.29435  0.26986  1.0000
  H   H858      1.0  0.61699  0.26134  0.19693  1.0000
  C   C507      1.0  0.77883  0.05006  0.17925  1.0000
  H   H859      1.0  0.97212  0.45606  0.30534  1.0000
  C   C508      1.0  0.51683  0.07772  0.16330  1.0000
  H   H860      1.0  0.57126  0.24765  0.19910  1.0000
  H   H861      1.0  0.54445  0.21344  0.29628  1.0000
  C   C509      1.0  0.69213  0.10878  0.13878  1.0000
  H   H862      1.0  0.59289  0.26832  0.21894  1.0000
  H   H863      1.0  0.53704  0.05784  0.16288  1.0000
  H   H864      1.0  0.67748  0.17966  0.27729  1.0000
  S   S148      1.0  0.93567  0.44787  0.20328  1.0000
  C   C510      1.0  0.91205  0.31981  0.12608  1.0000
  H   H865      1.0  0.81309  0.09294  0.17596  1.0000
  H   H866      1.0  0.52151  0.29771  0.08884  1.0000
  C   C511      1.0  0.60262  0.04206  0.34511  1.0000
  H   H867      1.0  0.51835  0.25582  0.16212  1.0000
  H   H868      1.0  0.83149  0.05632  0.16578  1.0000
  H   H869      1.0  0.67636  0.30811  0.26217  1.0000
  H   H870      1.0  0.64909  0.31214  0.29294  1.0000
  H   H871      1.0  0.96746  0.32265  0.16163  1.0000
  H   H872      1.0  0.64982  0.26103  0.07098  1.0000
  S   S149      1.0  0.68146  0.08352  0.19602  1.0000
  H   H873      1.0  0.62267  0.22529  0.06909  1.0000
  C   C512      1.0  0.75244  0.02633  0.14935  1.0000
  H   H874      1.0  0.98752  0.41873  0.31595  1.0000
  H   H875      1.0  0.71416  0.02289  0.18241  1.0000
  N   N38       1.0  0.94121  0.37730  0.13057  1.0000
  C   C513      1.0  0.80645  0.07004  0.16761  1.0000
  C   C514      1.0  0.78992  0.33098  0.03125  1.0000
  H   H876      1.0  0.87404  0.47194  0.34984  1.0000
  H   H877      1.0  0.87262  0.43314  0.14044  1.0000
  C   C515      1.0  0.61787  0.04974  0.32480  1.0000
  H   H878      1.0  0.55466  0.09676  0.11001  1.0000
  H   H879      1.0  0.90445  0.48030  0.32109  1.0000
  C   C516      1.0  0.95176  0.37206  0.15175  1.0000
  C   C517      1.0  0.96633  0.40102  0.12080  1.0000
  H   H880      1.0  0.63553  0.31269  0.05588  1.0000
  C   C518      1.0  0.73066  0.22876  0.02330  1.0000
  C   C519      1.0  0.98187  0.50308  0.34529  1.0000
  H   H881      1.0  0.96484  0.33302  0.11805  1.0000
  H   H882      1.0  0.69079  0.31632  0.02631  1.0000
  C   C520      1.0  0.50637  0.20644  0.25085  1.0000
  H   H883      1.0  0.96829  0.42458  0.12918  1.0000
  H   H884      1.0  0.74176  0.31480  0.34815  1.0000
  H   H885      1.0  0.99768  0.35447  0.16816  1.0000
  H   H886      1.0  0.80718  0.35306  0.03167  1.0000
  H   H887      1.0  0.52348  0.17304  0.22827  1.0000
  C   C521      1.0  0.70181  0.29179  0.02552  1.0000
  H   H888      1.0  0.76173  0.33846  0.03199  1.0000
  H   H889      1.0  0.61726  0.07689  0.32258  1.0000
  C   C522      1.0  0.51257  0.21758  0.27009  1.0000
  H   H890      1.0  0.60218  0.03869  0.31256  1.0000
  H   H891      1.0  0.69665  0.01097  0.14788  1.0000
  H   H892      1.0  0.51872  0.08224  0.19514  1.0000
  S   S150      1.0  0.50774  0.19405  0.14100  1.0000
  S   S151      1.0  0.99730  0.47447  0.15580  1.0000
  H   H893      1.0  0.97028  0.43559  0.34897  1.0000
  H   H894      1.0  0.54327  0.08025  0.38293  1.0000
  S   S152      1.0  0.92489  0.38450  0.64581  1.0000
  C   C523      1.0  0.73599  0.15670  0.63668  1.0000
  S   S153      1.0  0.74522  0.38348  0.63891  1.0000
  S   S154      1.0  0.83905  0.37173  0.61393  1.0000
  H   H895      1.0  0.57174  0.10671  0.66445  1.0000
  C   C524      1.0  0.52886  0.07647  0.65095  1.0000
  C   C525      1.0  0.96835  0.41307  0.58468  1.0000
  H   H896      1.0  0.60156  0.04944  0.38557  1.0000
  H   H897      1.0  0.66662  0.01145  0.57582  1.0000
  H   H898      1.0  0.73845  0.21590  0.36589  1.0000
  H   H899      1.0  0.71104  0.14204  0.63788  1.0000
  H   H900      1.0  0.82207  0.14103  0.65108  1.0000
  C   C526      1.0  0.72460  0.15206  0.41583  1.0000
  S   S155      1.0  0.55956  0.19737  0.64236  1.0000
  Fe  Fe75      1.0  0.83806  0.46701  0.61885  1.0000
  H   H901      1.0  0.54151  0.15826  0.41471  1.0000
  H   H902      1.0  0.68156  0.25049  0.41736  1.0000
  H   H903      1.0  0.82491  0.48350  0.51793  1.0000
  S   S156      1.0  0.65235  0.17471  0.65917  1.0000
  C   C527      1.0  0.55062  0.08578  0.41367  1.0000
  Fe  Fe76      1.0  0.87230  0.40826  0.41405  1.0000
  S   S157      1.0  0.92416  0.38823  0.40283  1.0000
  Fe  Fe77      1.0  0.79338  0.39315  0.41661  1.0000
  S   S158      1.0  0.74741  0.35618  0.41633  1.0000
  S   S159      1.0  0.83915  0.38527  0.43768  1.0000
  Fe  Fe78      1.0  0.84103  0.40908  0.58964  1.0000
  H   H904      1.0  0.00261  0.48745  0.35229  1.0000
  H   H905      1.0  0.98365  0.33269  0.56941  1.0000
  C   C528      1.0  0.80192  0.15462  0.64230  1.0000
  H   H906      1.0  0.79745  0.26939  0.40719  1.0000
  H   H907      1.0  0.95745  0.42389  0.59838  1.0000
  H   H908      1.0  0.50684  0.14374  0.64672  1.0000
  H   H909      1.0  0.68712  0.21055  0.42869  1.0000
  H   H910      1.0  0.94795  0.45414  0.56766  1.0000
  H   H911      1.0  0.50908  0.02879  0.60101  1.0000
  C   C529      1.0  0.83107  0.45751  0.51820  1.0000
  C   C530      1.0  0.83537  0.44157  0.53636  1.0000
  C   C531      1.0  0.73412  0.16319  0.36929  1.0000
  S   S160      1.0  0.63291  0.12704  0.38548  1.0000
  C   C532      1.0  0.84695  0.39049  0.51919  1.0000
  S   S161      1.0  0.60704  0.21421  0.37336  1.0000
  C   C533      1.0  0.66395  0.09482  0.38430  1.0000
  C   C534      1.0  0.68331  0.08819  0.36739  1.0000
  C   C535      1.0  0.70709  0.06156  0.36711  1.0000
  C   C536      1.0  0.71140  0.04135  0.38364  1.0000
  C   C537      1.0  0.69231  0.04837  0.40056  1.0000
  C   C538      1.0  0.66879  0.07504  0.40089  1.0000
  H   H912      1.0  0.64818  0.21954  0.41458  1.0000
  C   C539      1.0  0.80042  0.19003  0.65075  1.0000
  C   C540      1.0  0.54551  0.09621  0.66823  1.0000
  H   H913      1.0  0.65405  0.08013  0.41407  1.0000
  C   C541      1.0  0.72820  0.33496  0.39603  1.0000
  C   C542      1.0  0.74423  0.33423  0.37766  1.0000
  C   C543      1.0  0.55071  0.11182  0.62478  1.0000
  C   C544      1.0  0.69754  0.29735  0.36504  1.0000
  C   C545      1.0  0.68109  0.29859  0.38328  1.0000
  C   C546      1.0  0.69652  0.31717  0.39872  1.0000
  H   H914      1.0  0.76862  0.34781  0.37544  1.0000
  H   H915      1.0  0.98428  0.49092  0.63670  1.0000
  H   H916      1.0  0.65666  0.28515  0.38554  1.0000
  H   H917      1.0  0.68387  0.31781  0.41286  1.0000
  H   H918      1.0  0.54553  0.05878  0.41443  1.0000
  H   H919      1.0  0.98471  0.49195  0.41977  1.0000
  C   C547      1.0  0.95879  0.44575  0.41297  1.0000
  C   C548      1.0  0.95838  0.41763  0.40103  1.0000
  H   H920      1.0  0.00081  0.33955  0.60192  1.0000
  H   H921      1.0  0.56262  0.12975  0.63534  1.0000
  C   C549      1.0  0.99241  0.40207  0.65684  1.0000
  H   H922      1.0  0.93930  0.44859  0.42425  1.0000
  H   H923      1.0  0.78599  0.20705  0.64085  1.0000
  C   C550      1.0  0.52544  0.22653  0.64283  1.0000
  H   H924      1.0  0.60220  0.02099  0.56522  1.0000
  C   C551      1.0  0.72893  0.31549  0.36224  1.0000
  H   H925      1.0  0.72736  0.15460  0.60474  1.0000
  H   H926      1.0  0.69961  0.02155  0.55834  1.0000
  Fe  Fe79      1.0  0.82978  0.43744  0.44768  1.0000
  H   H927      1.0  0.91284  0.47563  0.67222  1.0000
  S   S162      1.0  0.82737  0.41227  0.39222  1.0000
  H   H928      1.0  0.81378  0.15723  0.62750  1.0000
  C   C552      1.0  0.70263  0.03811  0.63481  1.0000
  C   C553      1.0  0.71051  0.02675  0.65365  1.0000
  C   C554      1.0  0.69758  0.04351  0.67015  1.0000
  C   C555      1.0  0.67608  0.07139  0.66799  1.0000
  C   C556      1.0  0.66760  0.08245  0.64912  1.0000
  C   C557      1.0  0.68108  0.06600  0.63260  1.0000
  H   H929      1.0  0.91853  0.41982  0.56758  1.0000
  H   H930      1.0  0.89938  0.32207  0.59756  1.0000
  H   H931      1.0  0.65085  0.10373  0.64725  1.0000
  H   H932      1.0  0.67496  0.07498  0.61806  1.0000
  H   H933      1.0  0.84510  0.39262  0.48748  1.0000
  H   H934      1.0  0.85307  0.36446  0.51949  1.0000
  C   C558      1.0  0.74112  0.34187  0.64627  1.0000
  C   C559      1.0  0.77088  0.32254  0.65020  1.0000
  Fe  Fe80      1.0  0.62144  0.16411  0.36160  1.0000
  C   C560      1.0  0.73284  0.27717  0.66083  1.0000
  C   C561      1.0  0.70304  0.29625  0.65658  1.0000
  C   C562      1.0  0.70721  0.32850  0.64937  1.0000
  H   H935      1.0  0.79710  0.33265  0.64797  1.0000
  H   H936      1.0  0.99505  0.42430  0.58356  1.0000
  H   H937      1.0  0.98500  0.39150  0.37795  1.0000
  H   H938      1.0  0.68408  0.34331  0.64630  1.0000
  H   H939      1.0  0.95808  0.41902  0.55288  1.0000
  S   S163      1.0  0.84978  0.38687  0.55935  1.0000
  H   H940      1.0  0.93589  0.31092  0.58273  1.0000
  C   C563      1.0  0.96070  0.41218  0.64788  1.0000
  C   C564      1.0  0.95783  0.44432  0.64081  1.0000
  H   H941      1.0  0.52792  0.11594  0.67369  1.0000
  C   C565      1.0  0.76672  0.29034  0.65751  1.0000
  H   H942      1.0  0.84268  0.50476  0.66135  1.0000
  H   H943      1.0  0.93325  0.45266  0.63441  1.0000
  H   H944      1.0  0.53966  0.06165  0.59632  1.0000
  H   H945      1.0  0.94217  0.32028  0.60869  1.0000
  C   C566      1.0  0.60144  0.02228  0.38718  1.0000
  H   H946      1.0  0.80195  0.50395  0.44774  1.0000
  Fe  Fe81      1.0  0.67550  0.21493  0.67814  1.0000
  H   H947      1.0  0.76163  0.18354  0.61238  1.0000
  H   H948      1.0  0.64143  0.01649  0.54161  1.0000
  S   S164      1.0  0.88271  0.43993  0.60474  1.0000
  S   S165      1.0  0.83531  0.43413  0.64516  1.0000
  C   C567      1.0  0.83448  0.44000  0.50045  1.0000
  H   H949      1.0  0.50566  0.06278  0.65691  1.0000
  C   C568      1.0  0.94691  0.42674  0.56714  1.0000
  H   H950      1.0  0.55546  0.12038  0.38969  1.0000
  C   C569      1.0  0.84242  0.40637  0.50102  1.0000
  H   H951      1.0  0.82353  0.09167  0.63245  1.0000
  C   C570      1.0  0.77000  0.10998  0.62489  1.0000
  H   H952      1.0  0.74380  0.09791  0.62210  1.0000
  C   C571      1.0  0.98486  0.47009  0.41058  1.0000
  Fe  Fe82      1.0  0.59992  0.19684  0.66671  1.0000
  N   N39       1.0  0.73405  0.20733  0.39705  1.0000
  C   C572      1.0  0.74930  0.24125  0.40139  1.0000
  C   C573      1.0  0.69427  0.21070  0.39647  1.0000
  C   C574      1.0  0.74659  0.19719  0.37699  1.0000
  C   C575      1.0  0.74692  0.18377  0.41261  1.0000
  H   H953      1.0  0.77722  0.12183  0.61079  1.0000
  C   C576      1.0  0.67730  0.22353  0.41550  1.0000
  S   S166      1.0  0.62347  0.23986  0.68322  1.0000
  H   H954      1.0  0.53941  0.15699  0.60827  1.0000
  H   H955      1.0  0.73924  0.25943  0.39058  1.0000
  H   H956      1.0  0.74086  0.25041  0.41601  1.0000
  H   H957      1.0  0.68066  0.18722  0.39274  1.0000
  H   H958      1.0  0.68618  0.22766  0.38444  1.0000
  H   H959      1.0  0.67975  0.10329  0.35451  1.0000
  H   H960      1.0  0.77596  0.19620  0.37659  1.0000
  H   H961      1.0  0.77454  0.17596  0.40953  1.0000
  H   H962      1.0  0.74818  0.19661  0.42711  1.0000
  H   H963      1.0  0.57119  0.12997  0.59715  1.0000
  H   H964      1.0  0.92205  0.50571  0.36739  1.0000
  H   H965      1.0  0.73343  0.17705  0.64748  1.0000
  H   H966      1.0  0.54509  0.25342  0.66807  1.0000
  H   H967      1.0  0.80306  0.22621  0.41115  1.0000
  N   N40       1.0  0.76753  0.13532  0.64118  1.0000
  H   H968      1.0  0.78990  0.27576  0.66077  1.0000
  C   C577      1.0  0.52416  0.25130  0.65717  1.0000
  H   H969      1.0  0.58774  0.01712  0.40112  1.0000
  H   H970      1.0  0.74621  0.14284  0.37781  1.0000
  C   C578      1.0  0.51458  0.16524  0.40965  1.0000
  H   H971      1.0  0.52434  0.27042  0.38126  1.0000
  C   C579      1.0  0.98163  0.35983  0.56751  1.0000
  C   C580      1.0  0.92792  0.32714  0.59502  1.0000
  H   H972      1.0  0.54849  0.05732  0.64709  1.0000
  H   H973      1.0  0.70748  0.14432  0.40342  1.0000
  H   H974      1.0  0.79982  0.06790  0.61424  1.0000
  H   H975      1.0  0.92085  0.37803  0.60263  1.0000
  Fe  Fe83      1.0  0.87730  0.40515  0.62990  1.0000
  H   H976      1.0  0.74317  0.16009  0.35396  1.0000
  H   H977      1.0  0.88038  0.46375  0.37526  1.0000
  C   C581      1.0  0.76113  0.11683  0.65997  1.0000
  C   C582      1.0  0.73560  0.17274  0.61622  1.0000
  H   H978      1.0  0.97770  0.36710  0.61731  1.0000
  N   N41       1.0  0.96963  0.37595  0.58624  1.0000
  H   H979      1.0  0.73901  0.09897  0.65778  1.0000
  H   H980      1.0  0.74267  0.13106  0.41872  1.0000
  N   N42       1.0  0.51792  0.09629  0.63319  1.0000
  H   H981      1.0  0.70822  0.15445  0.42918  1.0000
  H   H982      1.0  0.70496  0.16051  0.36884  1.0000
  H   H983      1.0  0.96143  0.36226  0.55555  1.0000
  C   C583      1.0  0.93236  0.36410  0.59016  1.0000
  H   H984      1.0  0.57960  0.09034  0.41515  1.0000
  C   C584      1.0  0.99277  0.36583  0.60340  1.0000
  H   H985      1.0  0.80089  0.24298  0.38646  1.0000
  C   C585      1.0  0.54604  0.13076  0.60540  1.0000
  C   C586      1.0  0.79006  0.24447  0.40148  1.0000
  S   S167      1.0  0.78214  0.44418  0.42805  1.0000
  H   H986      1.0  0.83254  0.45526  0.54991  1.0000
  C   C587      1.0  0.52512  0.04874  0.60807  1.0000
  H   H987      1.0  0.67680  0.28629  0.65891  1.0000
  H   H988      1.0  0.78742  0.06413  0.63917  1.0000
  H   H989      1.0  0.97480  0.50269  0.67891  1.0000
  H   H990      1.0  0.71581  0.19293  0.61599  1.0000
  C   C588      1.0  0.79699  0.08207  0.62814  1.0000
  H   H991      1.0  0.91462  0.36859  0.57737  1.0000
  H   H992      1.0  0.78450  0.10173  0.66413  1.0000
  Fe  Fe84      1.0  0.79701  0.40352  0.62695  1.0000
  C   C589      1.0  0.84334  0.40795  0.53693  1.0000
  S   S168      1.0  0.82911  0.46130  0.47801  1.0000
  Fe  Fe85      1.0  0.82036  0.46274  0.40554  1.0000
  Fe  Fe86      1.0  0.56062  0.21061  0.35251  1.0000
  H   H993      1.0  0.94529  0.46983  0.37281  1.0000
  S   S169      1.0  0.86694  0.45974  0.42587  1.0000
  C   C590      1.0  0.98510  0.41337  0.38713  1.0000
  H   H994      1.0  0.82779  0.19999  0.65232  1.0000
  S   S170      1.0  0.79611  0.43905  0.60153  1.0000
  C   C591      1.0  0.98670  0.46609  0.64229  1.0000
  H   H995      1.0  0.70726  0.37594  0.68272  1.0000
  C   C592      1.0  0.53753  0.09975  0.39394  1.0000
  S   S171      1.0  0.72894  0.23732  0.67101  1.0000
  H   H996      1.0  0.57220  0.09341  0.62288  1.0000
  H   H997      1.0  0.52578  0.11987  0.59545  1.0000
  S   S172      1.0  0.72187  0.01972  0.61399  1.0000
  H   H998      1.0  0.51661  0.17905  0.39579  1.0000
  H   H999      1.0  0.69583  0.03338  0.41347  1.0000
  H   H1000     1.0  0.53897  0.09808  0.42654  1.0000
  H   H1001     1.0  0.54466  0.03676  0.61782  1.0000
  H   H1002     1.0  0.78836  0.19130  0.66537  1.0000
  H   H1003     1.0  0.51102  0.14668  0.37072  1.0000
  H   H1004     1.0  0.72196  0.05633  0.35400  1.0000
  H   H1005     1.0  0.50387  0.18272  0.42067  1.0000
  H   H1006     1.0  0.99466  0.37724  0.66243  1.0000
  C   C593      1.0  0.89305  0.46173  0.36068  1.0000
  H   H1007     1.0  0.59755  0.02215  0.66210  1.0000
  H   H1008     1.0  0.73557  0.50582  0.44088  1.0000
  H   H1009     1.0  0.73022  0.15465  0.67617  1.0000
  H   H1010     1.0  0.62884  0.01300  0.38889  1.0000
  S   S173      1.0  0.81037  0.50894  0.38749  1.0000
  C   C594      1.0  0.75239  0.13729  0.67837  1.0000
  H   H1011     1.0  0.55003  0.07922  0.68070  1.0000
  C   C595      1.0  0.92825  0.48119  0.36135  1.0000
  H   H1012     1.0  0.70521  0.03533  0.68462  1.0000
  H   H1013     1.0  0.89715  0.43502  0.35800  1.0000
  H   H1014     1.0  0.55395  0.01512  0.36967  1.0000
  H   H1015     1.0  0.56832  0.01205  0.68148  1.0000
  C   C596      1.0  0.59631  0.01755  0.67811  1.0000
  H   H1016     1.0  0.89222  0.43914  0.68096  1.0000
  H   H1017     1.0  0.95680  0.43823  0.68520  1.0000
  H   H1018     1.0  0.62067  0.05492  0.35565  1.0000
  H   H1019     1.0  0.77614  0.15021  0.68432  1.0000
  H   H1020     1.0  0.52568  0.09509  0.35313  1.0000
  H   H1021     1.0  0.63679  0.20448  0.88333  1.0000
  H   H1022     1.0  0.51496  0.24865  0.71566  1.0000
  C   C597      1.0  0.71085  0.26068  0.72590  1.0000
  H   H1023     1.0  0.89281  0.48261  0.72869  1.0000
  Fe  Fe87      1.0  0.89532  0.46178  0.85566  1.0000
  S   S174      1.0  0.85998  0.41587  0.85486  1.0000
  H   H1024     1.0  0.66172  0.02646  0.74348  1.0000
  Fe  Fe88      1.0  0.74681  0.29317  0.92263  1.0000
  S   S175      1.0  0.70349  0.29839  0.94500  1.0000
  S   S176      1.0  0.78864  0.33460  0.92409  1.0000
  Fe  Fe89      1.0  0.71935  0.22359  0.91025  1.0000
  S   S177      1.0  0.67583  0.22443  0.93216  1.0000
  S   S178      1.0  0.72516  0.17988  0.88931  1.0000
  Fe  Fe90      1.0  0.66754  0.27614  0.92178  1.0000
  S   S179      1.0  0.61372  0.29523  0.91252  1.0000
  Fe  Fe91      1.0  0.71581  0.24613  0.95321  1.0000
  S   S180      1.0  0.72436  0.22361  0.98337  1.0000
  S   S181      1.0  0.70966  0.27486  0.89878  1.0000
  S   S182      1.0  0.76072  0.24153  0.93198  1.0000
  S   S183      1.0  0.61045  0.06404  0.88824  1.0000
  H   H1025     1.0  0.58436  0.11808  0.84324  1.0000
  H   H1026     1.0  0.99852  0.43200  0.73299  1.0000
  H   H1027     1.0  0.56757  0.11723  0.86755  1.0000
  C   C598      1.0  0.64285  0.09565  0.88819  1.0000
  H   H1028     1.0  0.52796  0.19833  0.82205  1.0000
  S   S184      1.0  0.67284  0.18467  0.70557  1.0000
  Fe  Fe92      1.0  0.61878  0.20653  0.70945  1.0000
  S   S185      1.0  0.60306  0.23057  0.73824  1.0000
  C   C599      1.0  0.52196  0.17350  0.75788  1.0000
  C   C600      1.0  0.67004  0.09649  0.87444  1.0000
  C   C601      1.0  0.55054  0.18522  0.74682  1.0000
  C   C602      1.0  0.56815  0.21427  0.75238  1.0000
  C   C603      1.0  0.55728  0.23120  0.76931  1.0000
  H   H1029     1.0  0.60475  0.04076  0.68547  1.0000
  N   N43       1.0  0.96170  0.37233  0.89794  1.0000
  H   H1030     1.0  0.57069  0.25380  0.77367  1.0000
  H   H1031     1.0  0.68588  0.24743  0.72928  1.0000
  H   H1032     1.0  0.85093  0.32100  0.98949  1.0000
  Fe  Fe93      1.0  0.96212  0.49277  0.87177  1.0000
  H   H1033     1.0  0.51981  0.23325  0.79305  1.0000
  H   H1034     1.0  0.67153  0.07748  0.86330  1.0000
  H   H1035     1.0  0.69341  0.28707  0.99415  1.0000
  C   C604      1.0  0.69541  0.12216  0.87507  1.0000
  C   C605      1.0  0.69367  0.14724  0.88936  1.0000
  C   C606      1.0  0.66659  0.14604  0.90313  1.0000
  H   H1036     1.0  0.71630  0.12280  0.86436  1.0000
  H   H1037     1.0  0.66489  0.16480  0.91428  1.0000
  C   C607      1.0  0.58243  0.26467  0.90555  1.0000
  C   C608      1.0  0.55542  0.27199  0.89195  1.0000
  C   C609      1.0  0.53103  0.24743  0.88586  1.0000
  C   C610      1.0  0.53339  0.21560  0.89359  1.0000
  C   C611      1.0  0.55994  0.20852  0.90739  1.0000
  C   C612      1.0  0.58434  0.23291  0.91332  1.0000
  H   H1038     1.0  0.55366  0.29659  0.88597  1.0000
  C   C613      1.0  0.95083  0.48504  0.72672  1.0000
  H   H1039     1.0  0.56184  0.18399  0.91347  1.0000
  H   H1040     1.0  0.60416  0.22722  0.92423  1.0000
  C   C614      1.0  0.83784  0.39528  0.87418  1.0000
  C   C615      1.0  0.83979  0.40644  0.89361  1.0000
  C   C616      1.0  0.82394  0.38792  0.90865  1.0000
  C   C617      1.0  0.80547  0.35836  0.90442  1.0000
  C   C618      1.0  0.80276  0.34768  0.88492  1.0000
  C   C619      1.0  0.81900  0.36597  0.86993  1.0000
  H   H1041     1.0  0.85362  0.42921  0.89703  1.0000
  H   H1042     1.0  0.82606  0.39649  0.92367  1.0000
  H   H1043     1.0  0.78876  0.32497  0.88144  1.0000
  H   H1044     1.0  0.81725  0.35714  0.85494  1.0000
  H   H1045     1.0  0.72866  0.24227  0.71907  1.0000
  H   H1046     1.0  0.72125  0.06768  0.93253  1.0000
  C   C620      1.0  0.74414  0.33652  0.73685  1.0000
  H   H1047     1.0  0.63920  0.24767  0.87861  1.0000
  H   H1048     1.0  0.85826  0.38540  0.98986  1.0000
  H   H1049     1.0  0.75666  0.33262  0.72250  1.0000
  H   H1050     1.0  0.75603  0.31914  0.74756  1.0000
  H   H1051     1.0  0.89427  0.35444  0.88562  1.0000
  C   C621      1.0  0.76402  0.34770  0.99216  1.0000
  H   H1052     1.0  0.80743  0.25229  0.99383  1.0000
  C   C622      1.0  0.00106  0.46592  0.70772  1.0000
  H   H1053     1.0  0.89628  0.31347  0.89438  1.0000
  H   H1054     1.0  0.75856  0.28734  0.98006  1.0000
  H   H1055     1.0  0.55879  0.17188  0.73390  1.0000
  C   C623      1.0  0.91435  0.50139  0.72880  1.0000
  H   H1056     1.0  0.98435  0.38075  0.92704  1.0000
  H   H1057     1.0  0.94919  0.46177  0.73524  1.0000
  Fe  Fe94      1.0  0.64582  0.14610  0.68678  1.0000
  H   H1058     1.0  0.99182  0.34256  0.87757  1.0000
  H   H1059     1.0  0.67272  0.13809  0.82192  1.0000
  H   H1060     1.0  0.66896  0.22106  0.86636  1.0000
  H   H1061     1.0  0.57960  0.17636  0.87246  1.0000
  S   S186      1.0  0.60872  0.01605  0.79303  1.0000
  C   C624      1.0  0.69847  0.02825  0.90094  1.0000
  H   H1062     1.0  0.85660  0.36297  0.01260  1.0000
  H   H1063     1.0  0.75217  0.34862  0.96041  1.0000
  C   C625      1.0  0.92672  0.41563  0.91758  1.0000
  N   N44       1.0  0.96340  0.47812  0.70621  1.0000
  C   C626      1.0  0.59555  0.16294  0.86145  1.0000
  H   H1064     1.0  0.93306  0.33758  0.86268  1.0000
  H   H1065     1.0  0.75231  0.36160  0.74191  1.0000
  C   C627      1.0  0.64568  0.14159  0.82781  1.0000
  H   H1066     1.0  0.51035  0.10694  0.81324  1.0000
  H   H1067     1.0  0.88363  0.34529  0.91065  1.0000
  N   N45       1.0  0.68523  0.31853  0.71922  1.0000
  H   H1068     1.0  0.55083  0.01997  0.89180  1.0000
  C   C628      1.0  0.70454  0.28896  0.71126  1.0000
  H   H1069     1.0  0.74825  0.05160  0.95156  1.0000
  C   C629      1.0  0.70315  0.33380  0.73702  1.0000
  N   N46       1.0  0.79426  0.32358  0.99323  1.0000
  H   H1070     1.0  0.62241  0.03029  0.71596  1.0000
  H   H1071     1.0  0.72370  0.26921  0.73970  1.0000
  H   H1072     1.0  0.93057  0.38203  0.85916  1.0000
  H   H1073     1.0  0.94846  0.42459  0.92737  1.0000
  H   H1074     1.0  0.97046  0.50000  0.73528  1.0000
  H   H1075     1.0  0.73058  0.29543  0.70505  1.0000
  H   H1076     1.0  0.59900  0.32048  0.73814  1.0000
  H   H1077     1.0  0.73855  0.33489  0.99532  1.0000
  H   H1078     1.0  0.69766  0.05485  0.90455  1.0000
  H   H1079     1.0  0.69268  0.35903  0.73969  1.0000
  H   H1080     1.0  0.69644  0.31946  0.75039  1.0000
  C   C630      1.0  0.64880  0.30653  0.72497  1.0000
  H   H1081     1.0  0.50579  0.18205  0.71083  1.0000
  C   C631      1.0  0.97582  0.36549  0.87772  1.0000
  C   C632      1.0  0.52861  0.21947  0.78041  1.0000
  N   N47       1.0  0.60895  0.18606  0.84586  1.0000
  H   H1082     1.0  0.50700  0.04251  0.86993  1.0000
  H   H1083     1.0  0.73707  0.38342  0.97371  1.0000
  H   H1084     1.0  0.76620  0.36724  0.00352  1.0000
  C   C633      1.0  0.52476  0.02566  0.89825  1.0000
  H   H1085     1.0  0.73402  0.04364  0.87781  1.0000
  C   C634      1.0  0.58363  0.18913  0.82871  1.0000
  S   S187      1.0  0.90530  0.49680  0.88097  1.0000
  C   C635      1.0  0.62240  0.33306  0.73174  1.0000
  C   C636      1.0  0.64453  0.17515  0.83846  1.0000
  C   C637      1.0  0.99306  0.37811  0.91159  1.0000
  C   C638      1.0  0.81031  0.26561  0.97977  1.0000
  C   C639      1.0  0.78628  0.29630  0.97858  1.0000
  H   H1086     1.0  0.96283  0.35828  0.84694  1.0000
  H   H1087     1.0  0.50808  0.15144  0.75311  1.0000
  H   H1088     1.0  0.82988  0.34494  0.97175  1.0000
  C   C640      1.0  0.64131  0.12048  0.90253  1.0000
  C   C641      1.0  0.70340  0.27536  0.00729  1.0000
  S   S188      1.0  0.95298  0.45528  0.84786  1.0000
  H   H1089     1.0  0.62033  0.12012  0.91321  1.0000
  H   H1090     1.0  0.66428  0.01883  0.70737  1.0000
  C   C642      1.0  0.54791  0.20544  0.83342  1.0000
  H   H1091     1.0  0.95450  0.31971  0.90169  1.0000
  H   H1092     1.0  0.53751  0.19782  0.84782  1.0000
  H   H1093     1.0  0.80200  0.24779  0.96816  1.0000
  H   H1094     1.0  0.95725  0.42446  0.89166  1.0000
  H   H1095     1.0  0.51053  0.25312  0.87524  1.0000
  H   H1096     1.0  0.61222  0.34772  0.71923  1.0000
  H   H1097     1.0  0.77668  0.28804  0.01475  1.0000
  H   H1098     1.0  0.62162  0.23826  0.84338  1.0000
  H   H1099     1.0  0.62698  0.04956  0.94226  1.0000
  C   C643      1.0  0.65480  0.04771  0.93728  1.0000
  H   H1100     1.0  0.52271  0.07248  0.77326  1.0000
  C   C644      1.0  0.75933  0.36579  0.97249  1.0000
  H   H1101     1.0  0.94003  0.34385  0.92175  1.0000
  H   H1102     1.0  0.59592  0.20377  0.81675  1.0000
  H   H1103     1.0  0.72706  0.37633  0.70645  1.0000
  H   H1104     1.0  0.65564  0.19397  0.82834  1.0000
  S   S189      1.0  0.59131  0.16515  0.69313  1.0000
  H   H1105     1.0  0.61807  0.15288  0.87002  1.0000
  C   C645      1.0  0.64139  0.22291  0.87168  1.0000
  H   H1106     1.0  0.68959  0.27821  0.69854  1.0000
  H   H1107     1.0  0.55044  0.23276  0.83332  1.0000
  H   H1108     1.0  0.90896  0.43701  0.91522  1.0000
  H   H1109     1.0  0.78810  0.30536  0.96327  1.0000
  S   S190      1.0  0.50478  0.18347  0.88590  1.0000
  H   H1110     1.0  0.57745  0.16477  0.82194  1.0000
  H   H1111     1.0  0.91110  0.39618  0.92495  1.0000
  H   H1112     1.0  0.93364  0.43206  0.70732  1.0000
  H   H1113     1.0  0.53701  0.07032  0.80920  1.0000
  C   C646      1.0  0.94077  0.40394  0.89760  1.0000
  C   C647      1.0  0.94118  0.45130  0.69652  1.0000
  H   H1114     1.0  0.65062  0.28875  0.73729  1.0000
  C   C648      1.0  0.84115  0.36996  0.99933  1.0000
  H   H1115     1.0  0.58871  0.22921  0.86099  1.0000
  C   C649      1.0  0.94087  0.34316  0.90543  1.0000
  H   H1116     1.0  0.64135  0.12099  0.83811  1.0000
  C   C650      1.0  0.94847  0.36074  0.86099  1.0000
  C   C651      1.0  0.82912  0.33905  0.98770  1.0000
  H   H1117     1.0  0.91763  0.40258  0.88753  1.0000
  H   H1118     1.0  0.73390  0.34198  0.68963  1.0000
  H   H1119     1.0  0.78316  0.38027  0.96852  1.0000
  C   C652      1.0  0.57219  0.13342  0.85473  1.0000
  C   C653      1.0  0.71450  0.35990  0.69529  1.0000
  H   H1120     1.0  0.52757  0.04965  0.90591  1.0000
  S   S191      1.0  0.66129  0.09225  0.68914  1.0000
  H   H1121     1.0  0.54570  0.14153  0.84962  1.0000
  H   H1122     1.0  0.82270  0.29651  0.01580  1.0000
  H   H1123     1.0  0.66405  0.17311  0.85073  1.0000
  C   C654      1.0  0.61394  0.22004  0.85478  1.0000
  H   H1124     1.0  0.62715  0.13985  0.81514  1.0000
  C   C655      1.0  0.79649  0.30834  0.01340  1.0000
  H   H1125     1.0  0.65850  0.06760  0.92650  1.0000
  C   C656      1.0  0.52592  0.09288  0.80240  1.0000
  C   C657      1.0  0.90187  0.33960  0.89845  1.0000
  H   H1126     1.0  0.63370  0.34955  0.74326  1.0000
  C   C658      1.0  0.71847  0.24399  0.00608  1.0000
  H   H1127     1.0  0.81926  0.38635  0.00355  1.0000
  C   C659      1.0  0.73161  0.02293  0.88833  1.0000
  C   C660      1.0  0.74022  0.04788  0.93597  1.0000
  H   H1128     1.0  0.67196  0.05206  0.95036  1.0000
  H   H1129     1.0  0.83849  0.27164  0.97718  1.0000
  H   H1130     1.0  0.76475  0.05173  0.92744  1.0000
  S   S192      1.0  0.88700  0.50283  0.83382  1.0000
  H   H1131     1.0  0.63573  0.29274  0.71266  1.0000
  H   H1132     1.0  0.50669  0.02473  0.79240  1.0000
  C   C661      1.0  0.68059  0.34345  0.70306  1.0000
  Fe  Fe95      1.0  0.61142  0.02129  0.86680  1.0000
  H   H1133     1.0  0.75634  0.02221  0.89719  1.0000
  H   H1134     1.0  0.66398  0.36440  0.70793  1.0000
  H   H1135     1.0  0.50625  0.26106  0.74019  1.0000
  H   H1136     1.0  0.52858  0.01702  0.73581  1.0000
  H   H1137     1.0  0.54888  0.10873  0.79849  1.0000
  C   C662      1.0  0.99986  0.49486  0.78488  1.0000
  H   H1138     1.0  0.57946  0.03744  0.75613  1.0000
  H   H1139     1.0  0.74367  0.12012  0.69004  1.0000
  C   C663      1.0  0.51074  0.19058  0.77467  1.0000
  H   H1140     1.0  0.67505  0.02409  0.89111  1.0000
  C   C664      1.0  0.66053  0.01312  0.92851  1.0000
  H   H1141     1.0  0.99395  0.38577  0.87324  1.0000
  C   C665      1.0  0.50432  0.08503  0.78353  1.0000
  H   H1142     1.0  0.88901  0.47612  0.69513  1.0000
  C   C666      1.0  0.56443  0.01609  0.76076  1.0000
  Fe  Fe96      1.0  0.94525  0.49891  0.82798  1.0000
  H   H1143     1.0  0.66636  0.33198  0.69027  1.0000
  H   H1144     1.0  0.99201  0.41175  0.70933  1.0000
  H   H1145     1.0  0.00105  0.45049  0.80201  1.0000
  S   S193      1.0  0.56862  0.01384  0.84415  1.0000
  C   C667      1.0  0.96392  0.50862  0.69363  1.0000
  C   C668      1.0  0.72610  0.01210  0.93324  1.0000
  H   H1146     1.0  0.51682  0.18568  0.68598  1.0000
  C   C669      1.0  0.90691  0.46170  0.68577  1.0000
  Fe  Fe97      1.0  0.80081  0.73790  0.14341  1.0000
  S   S194      1.0  0.84281  0.73300  0.12075  1.0000
  S   S195      1.0  0.78949  0.69618  0.16455  1.0000
  Fe  Fe98      1.0  0.78188  0.80797  0.13074  1.0000
  S   S196      1.0  0.82358  0.80835  0.10737  1.0000
  S   S197      1.0  0.74734  0.85378  0.13131  1.0000
  Fe  Fe99      1.0  0.80454  0.75723  0.10006  1.0000
  S   S198      1.0  0.79884  0.73419  0.06975  1.0000
  Fe  Fe100     1.0  0.85841  0.78423  0.12994  1.0000
  S   S199      1.0  0.91508  0.80075  0.13533  1.0000
  S   S200      1.0  0.76049  0.75789  0.12197  1.0000
  S   S201      1.0  0.81857  0.78816  0.15402  1.0000
  C   C670      1.0  0.80780  0.73903  0.03008  1.0000
  H   H1147     1.0  0.64436  0.94857  0.33118  1.0000
  C   C671      1.0  0.96411  0.77554  0.06594  1.0000
  H   H1148     1.0  0.61932  0.94542  0.11474  1.0000
  S   S202      1.0  0.58521  0.96249  0.20802  1.0000
  H   H1149     1.0  0.97419  0.74323  0.23329  1.0000
  Fe  Fe101     1.0  0.64442  0.96474  0.20398  1.0000
  S   S203      1.0  0.68040  0.92043  0.20672  1.0000
  C   C672      1.0  0.53694  0.85068  0.15213  1.0000
  H   H1150     1.0  0.92915  0.68616  0.20608  1.0000
  C   C673      1.0  0.64937  0.97555  0.33242  1.0000
  H   H1151     1.0  0.58334  0.98968  0.32081  1.0000
  H   H1152     1.0  0.98976  0.79531  0.19110  1.0000
  S   S204      1.0  0.97807  0.66658  0.33838  1.0000
  S   S205      1.0  0.89599  0.68678  0.33394  1.0000
  Fe  Fe102     1.0  0.94568  0.69329  0.31625  1.0000
  C   C674      1.0  0.78826  0.95909  0.16258  1.0000
  C   C675      1.0  0.90492  0.60152  0.29069  1.0000
  H   H1153     1.0  0.88355  0.53321  0.32097  1.0000
  H   H1154     1.0  0.94945  0.68994  0.17035  1.0000
  C   C676      1.0  0.95473  0.59684  0.12793  1.0000
  S   S206      1.0  0.65132  0.00855  0.22398  1.0000
  H   H1155     1.0  0.54812  0.00406  0.33498  1.0000
  C   C677      1.0  0.90841  0.53161  0.32977  1.0000
  H   H1156     1.0  0.70636  0.87397  0.34652  1.0000
  H   H1157     1.0  0.57541  0.88733  0.18466  1.0000
  H   H1158     1.0  0.94309  0.77161  0.22363  1.0000
  H   H1159     1.0  0.71865  0.01038  0.12495  1.0000
  H   H1160     1.0  0.84280  0.66289  0.23566  1.0000
  H   H1161     1.0  0.95298  0.60124  0.21460  1.0000
  C   C678      1.0  0.96523  0.67966  0.18261  1.0000
  C   C679      1.0  0.91888  0.59423  0.26992  1.0000
  H   H1162     1.0  0.89991  0.53559  0.34502  1.0000
  C   C680      1.0  0.82281  0.66633  0.16808  1.0000
  S   S207      1.0  0.95287  0.67637  0.28466  1.0000
  C   C681      1.0  0.85673  0.67119  0.16064  1.0000
  H   H1163     1.0  0.90905  0.65154  0.15771  1.0000
  H   H1164     1.0  0.86278  0.69327  0.15259  1.0000
  C   C682      1.0  0.94786  0.77022  0.13655  1.0000
  H   H1165     1.0  0.92780  0.60295  0.30108  1.0000
  H   H1166     1.0  0.78933  0.63354  0.18449  1.0000
  H   H1167     1.0  0.81610  0.59588  0.24252  1.0000
  C   C683      1.0  0.87617  0.61911  0.17463  1.0000
  C   C684      1.0  0.94060  0.73776  0.13067  1.0000
  H   H1168     1.0  0.60423  0.93066  0.15114  1.0000
  H   H1169     1.0  0.98122  0.58785  0.16449  1.0000
  H   H1170     1.0  0.85922  0.63692  0.26390  1.0000
  H   H1171     1.0  0.91466  0.73102  0.12530  1.0000
  C   C685      1.0  0.73070  0.87234  0.15274  1.0000
  C   C686      1.0  0.71186  0.90189  0.15091  1.0000
  C   C687      1.0  0.69655  0.91687  0.16736  1.0000
  C   C688      1.0  0.70018  0.90260  0.18586  1.0000
  C   C689      1.0  0.71953  0.87329  0.18777  1.0000
  C   C690      1.0  0.73470  0.85811  0.17125  1.0000
  H   H1172     1.0  0.70879  0.91300  0.13662  1.0000
  H   H1173     1.0  0.68167  0.93924  0.16564  1.0000
  H   H1174     1.0  0.72250  0.86206  0.20204  1.0000
  H   H1175     1.0  0.74915  0.83529  0.17281  1.0000
  C   C691      1.0  0.81339  0.79027  0.04825  1.0000
  C   C692      1.0  0.80700  0.75625  0.04801  1.0000
  C   C693      1.0  0.50766  0.99988  0.29921  1.0000
  H   H1176     1.0  0.81253  0.80382  0.06194  1.0000
  C   C694      1.0  0.95010  0.74495  0.22377  1.0000
  N   N48       1.0  0.59647  0.87895  0.14406  1.0000
  C   C695      1.0  0.61297  0.86697  0.16295  1.0000
  C   C696      1.0  0.60474  0.85422  0.12815  1.0000
  C   C697      1.0  0.55689  0.88203  0.14571  1.0000
  H   H1177     1.0  0.88741  0.58149  0.29598  1.0000
  C   C698      1.0  0.64363  0.85353  0.12141  1.0000
  H   H1178     1.0  0.98780  0.80369  0.14791  1.0000
  H   H1179     1.0  0.55040  0.94218  0.32738  1.0000
  H   H1180     1.0  0.59840  0.82871  0.13305  1.0000
  H   H1181     1.0  0.54997  0.90221  0.15603  1.0000
  H   H1182     1.0  0.54488  0.88951  0.13143  1.0000
  H   H1183     1.0  0.64075  0.91284  0.13992  1.0000
  C   C699      1.0  0.92674  0.72819  0.07347  1.0000
  C   C700      1.0  0.57316  0.98977  0.33595  1.0000
  H   H1184     1.0  0.54505  0.84266  0.16701  1.0000
  H   H1185     1.0  0.65168  0.87683  0.11422  1.0000
  H   H1186     1.0  0.64679  0.83351  0.11038  1.0000
  N   N49       1.0  0.95781  0.73275  0.20328  1.0000
  H   H1187     1.0  0.77834  0.95762  0.14728  1.0000
  C   C701      1.0  0.95578  0.69559  0.20241  1.0000
  C   C702      1.0  0.91126  0.79603  0.03474  1.0000
  C   C703      1.0  0.93355  0.74871  0.18845  1.0000
  C   C704      1.0  0.60413  0.88690  0.18156  1.0000
  C   C705      1.0  0.86252  0.57375  0.25696  1.0000
  C   C706      1.0  0.92089  0.72675  0.23516  1.0000
  C   C707      1.0  0.89380  0.73987  0.18916  1.0000
  H   H1188     1.0  0.94277  0.60420  0.14201  1.0000
  H   H1189     1.0  0.97374  0.68482  0.21368  1.0000
  C   C708      1.0  0.53226  0.97198  0.26420  1.0000
  H   H1190     1.0  0.93796  0.80720  0.03353  1.0000
  S   S208      1.0  0.64270  0.99521  0.17678  1.0000
  H   H1191     1.0  0.93477  0.77604  0.18989  1.0000
  H   H1192     1.0  0.94264  0.74437  0.17326  1.0000
  H   H1193     1.0  0.80282  0.71271  0.02980  1.0000
  H   H1194     1.0  0.84072  0.56818  0.22670  1.0000
  C   C709      1.0  0.82053  0.80687  0.03066  1.0000
  C   C710      1.0  0.98194  0.77856  0.14343  1.0000
  C   C711      1.0  0.91114  0.58726  0.23470  1.0000
  H   H1195     1.0  0.92945  0.70158  0.23932  1.0000
  H   H1196     1.0  0.76855  0.98012  0.20506  1.0000
  H   H1197     1.0  0.87974  0.75612  0.19963  1.0000
  H   H1198     1.0  0.88817  0.71378  0.19254  1.0000
  H   H1199     1.0  0.88193  0.74347  0.17433  1.0000
  H   H1200     1.0  0.96737  0.59937  0.23936  1.0000
  H   H1201     1.0  0.91912  0.56096  0.23567  1.0000
  Fe  Fe103     1.0  0.59205  0.00959  0.22550  1.0000
  H   H1202     1.0  0.89360  0.58830  0.22163  1.0000
  S   S209      1.0  0.55126  0.98901  0.15433  1.0000
  H   H1203     1.0  0.88456  0.65915  0.22456  1.0000
  S   S210      1.0  0.91183  0.59258  0.17980  1.0000
  H   H1204     1.0  0.89539  0.72542  0.22708  1.0000
  H   H1205     1.0  0.72893  0.81671  0.34672  1.0000
  C   C712      1.0  0.59859  0.92824  0.12011  1.0000
  H   H1206     1.0  0.85288  0.62587  0.22301  1.0000
  H   H1207     1.0  0.96125  0.68882  0.12685  1.0000
  H   H1208     1.0  0.83645  0.59173  0.19019  1.0000
  H   H1209     1.0  0.89126  0.62559  0.29163  1.0000
  C   C713      1.0  0.83190  0.57293  0.24185  1.0000
  C   C714      1.0  0.86435  0.64506  0.23273  1.0000
  H   H1210     1.0  0.81359  0.55238  0.24557  1.0000
  S   S211      1.0  0.96406  0.52488  0.19991  1.0000
  C   C715      1.0  0.61137  0.91258  0.13952  1.0000
  C   C716      1.0  0.87966  0.63276  0.25253  1.0000
  H   H1211     1.0  0.82537  0.83321  0.03093  1.0000
  C   C717      1.0  0.54170  0.00438  0.26913  1.0000
  H   H1212     1.0  0.61731  0.87518  0.19437  1.0000
  C   C718      1.0  0.00099  0.72202  0.13869  1.0000
  H   H1213     1.0  0.60575  0.84076  0.16575  1.0000
  C   C719      1.0  0.88315  0.64766  0.16383  1.0000
  H   H1214     1.0  0.90190  0.64994  0.25629  1.0000
  C   C720      1.0  0.96717  0.71385  0.13149  1.0000
  H   H1215     1.0  0.94171  0.61131  0.26803  1.0000
  H   H1216     1.0  0.58766  0.85777  0.11495  1.0000
  N   N50       1.0  0.89253  0.59757  0.25318  1.0000
  N   N51       1.0  0.59842  0.00614  0.35037  1.0000
  H   H1217     1.0  0.89237  0.81370  0.04116  1.0000
  C   C721      1.0  0.98544  0.77172  0.08525  1.0000
  H   H1218     1.0  0.66229  0.84809  0.13362  1.0000
  H   H1219     1.0  0.92631  0.55207  0.32541  1.0000
  C   C722      1.0  0.81559  0.63751  0.17875  1.0000
  H   H1220     1.0  0.93035  0.56896  0.27015  1.0000
  H   H1221     1.0  0.99315  0.73810  0.28684  1.0000
  C   C723      1.0  0.94491  0.60696  0.22982  1.0000
  N   N52       1.0  0.92625  0.76347  0.06644  1.0000
  H   H1222     1.0  0.81051  0.99358  0.18341  1.0000
  C   C724      1.0  0.72204  0.00479  0.14078  1.0000
  C   C725      1.0  0.91109  0.76310  0.04585  1.0000
  C   C726      1.0  0.90336  0.78364  0.08000  1.0000
  C   C727      1.0  0.89077  0.70995  0.07321  1.0000
  S   S212      1.0  0.95959  0.74302  0.32864  1.0000
  H   H1223     1.0  0.95035  0.57011  0.12524  1.0000
  C   C728      1.0  0.91241  0.82074  0.08228  1.0000
  H   H1224     1.0  0.51739  0.95189  0.18564  1.0000
  H   H1225     1.0  0.97015  0.77955  0.09819  1.0000
  H   H1226     1.0  0.93644  0.72689  0.08891  1.0000
  H   H1227     1.0  0.94544  0.71314  0.06466  1.0000
  H   H1228     1.0  0.64034  0.98781  0.31887  1.0000
  H   H1229     1.0  0.88291  0.75490  0.04575  1.0000
  H   H1230     1.0  0.87498  0.78178  0.07543  1.0000
  H   H1231     1.0  0.90400  0.77360  0.09516  1.0000
  H   H1232     1.0  0.87028  0.72429  0.08086  1.0000
  H   H1233     1.0  0.88152  0.70397  0.05809  1.0000
  H   H1234     1.0  0.89344  0.68616  0.08107  1.0000
  C   C729      1.0  0.84217  0.61378  0.18193  1.0000
  H   H1235     1.0  0.91429  0.83387  0.06821  1.0000
  H   H1236     1.0  0.94083  0.63392  0.23086  1.0000
  H   H1237     1.0  0.83019  0.83647  0.34988  1.0000
  C   C730      1.0  0.99542  0.74248  0.19849  1.0000
  H   H1238     1.0  0.92536  0.74489  0.03658  1.0000
  H   H1239     1.0  0.93721  0.82474  0.09084  1.0000
  H   H1240     1.0  0.89121  0.83290  0.09077  1.0000
  H   H1241     1.0  0.99030  0.54221  0.14366  1.0000
  H   H1242     1.0  0.87288  0.54809  0.25821  1.0000
  H   H1243     1.0  0.64235  0.86706  0.16200  1.0000
  H   H1244     1.0  0.72501  0.98193  0.17593  1.0000
  H   H1245     1.0  0.59421  0.91013  0.10814  1.0000
  H   H1246     1.0  0.84962  0.57936  0.27113  1.0000
  Fe  Fe104     1.0  0.91003  0.53920  0.18933  1.0000
  H   H1247     1.0  0.96576  0.80195  0.06186  1.0000
  H   H1248     1.0  0.76955  0.94669  0.17259  1.0000
  H   H1249     1.0  0.95932  0.65282  0.18324  1.0000
  H   H1250     1.0  0.90161  0.79141  0.01949  1.0000
  H   H1251     1.0  0.81717  0.00393  0.15857  1.0000
  H   H1252     1.0  0.61473  0.91239  0.18087  1.0000
  H   H1253     1.0  0.91612  0.74020  0.24913  1.0000
  H   H1254     1.0  0.67868  0.97838  0.33302  1.0000
  C   C731      1.0  0.98780  0.69268  0.27056  1.0000
  H   H1255     1.0  0.54147  0.96116  0.25066  1.0000
  H   H1256     1.0  0.81303  0.94446  0.16308  1.0000
  H   H1257     1.0  0.98947  0.65026  0.25157  1.0000
  C   C732      1.0  0.73638  0.00502  0.18218  1.0000
  H   H1258     1.0  0.99381  0.68213  0.17941  1.0000
  C   C733      1.0  0.51412  0.96261  0.15478  1.0000
  H   H1259     1.0  0.99410  0.74584  0.08736  1.0000
  H   H1260     1.0  0.98819  0.53204  0.28760  1.0000
  C   C734      1.0  0.51073  0.95352  0.27682  1.0000
  H   H1261     1.0  0.99581  0.63374  0.12983  1.0000
  H   H1262     1.0  0.54015  0.83014  0.14151  1.0000
  H   H1263     1.0  0.93985  0.61023  0.11634  1.0000
  S   S213      1.0  0.87038  0.77677  0.34860  1.0000
  H   H1264     1.0  0.97895  0.76222  0.05431  1.0000
  H   H1265     1.0  0.57370  0.94218  0.12231  1.0000
  C   C735      1.0  0.99419  0.60674  0.12700  1.0000
  C   C736      1.0  0.56267  0.95383  0.34063  1.0000
  H   H1266     1.0  0.72659  0.97801  0.14205  1.0000
  Fe  Fe105     1.0  0.91174  0.73569  0.34797  1.0000
  H   H1267     1.0  0.00177  0.60387  0.11146  1.0000
  C   C737      1.0  0.79679  0.99484  0.16891  1.0000
  C   C738      1.0  0.74595  0.99727  0.20371  1.0000
  Fe  Fe106     1.0  0.58414  0.99583  0.18184  1.0000
  H   H1268     1.0  0.50816  0.85624  0.15272  1.0000
  H   H1269     1.0  0.72301  0.98472  0.21055  1.0000
  H   H1270     1.0  0.58564  0.93867  0.34511  1.0000
  C   C739      1.0  0.00027  0.67445  0.25453  1.0000
  C   C740      1.0  0.00314  0.51102  0.28256  1.0000
  C   C741      1.0  0.63394  0.98928  0.35172  1.0000
  H   H1271     1.0  0.77406  0.78140  0.34899  1.0000
  H   H1272     1.0  0.00230  0.78785  0.21653  1.0000
  H   H1273     1.0  0.00168  0.73631  0.18304  1.0000
  H   H1274     1.0  0.50357  0.92838  0.27298  1.0000
  H   H1275     1.0  0.50370  0.96839  0.12387  1.0000
  H   H1276     1.0  0.67301  0.84323  0.34954  1.0000
  C   C742      1.0  0.00273  0.72363  0.27465  1.0000
  H   H1277     1.0  0.90534  0.77871  0.64159  1.0000
  H   H1278     1.0  0.59094  0.96365  0.50182  1.0000
  H   H1279     1.0  0.84680  0.89217  0.52817  1.0000
  H   H1280     1.0  0.74180  0.84202  0.39762  1.0000
  C   C743      1.0  0.73175  0.94348  0.50077  1.0000
  Fe  Fe107     1.0  0.72874  0.94556  0.44820  1.0000
  H   H1281     1.0  0.84890  0.63239  0.63968  1.0000
  H   H1282     1.0  0.73323  0.69219  0.67503  1.0000
  C   C744      1.0  0.83514  0.87561  0.46683  1.0000
  S   S214      1.0  0.77757  0.93729  0.60137  1.0000
  H   H1283     1.0  0.92055  0.88581  0.47409  1.0000
  H   H1284     1.0  0.63229  0.96775  0.36180  1.0000
  H   H1285     1.0  0.64751  0.88011  0.54710  1.0000
  Fe  Fe108     1.0  0.73554  0.96716  0.40545  1.0000
  S   S215      1.0  0.92337  0.67519  0.66702  1.0000
  C   C745      1.0  0.83229  0.65396  0.64356  1.0000
  S   S216      1.0  0.64610  0.88474  0.64321  1.0000
  S   S217      1.0  0.82502  0.88702  0.64401  1.0000
  S   S218      1.0  0.73548  0.86884  0.61396  1.0000
  C   C746      1.0  0.72484  0.90956  0.50035  1.0000
  C   C747      1.0  0.58125  0.00479  0.37025  1.0000
  H   H1286     1.0  0.77534  0.51858  0.46658  1.0000
  H   H1287     1.0  0.73285  0.58249  0.46769  1.0000
  C   C748      1.0  0.83088  0.54668  0.48855  1.0000
  Fe  Fe109     1.0  0.97548  0.69554  0.67738  1.0000
  S   S219      1.0  0.73326  0.88294  0.55748  1.0000
  H   H1288     1.0  0.95313  0.79529  0.66404  1.0000
  Fe  Fe110     1.0  0.98923  0.71571  0.35220  1.0000
  H   H1289     1.0  0.59022  0.99021  0.62746  1.0000
  H   H1290     1.0  0.76038  0.60488  0.48425  1.0000
  H   H1291     1.0  0.75033  0.61547  0.64362  1.0000
  C   C749      1.0  0.79126  0.59966  0.62447  1.0000
  H   H1292     1.0  0.81130  0.52691  0.49142  1.0000
  S   S220      1.0  0.94314  0.71251  0.37269  1.0000
  H   H1293     1.0  0.77496  0.79653  0.38344  1.0000
  S   S221      1.0  0.63569  0.88683  0.40435  1.0000
  S   S222      1.0  0.80727  0.85976  0.41977  1.0000
  S   S223      1.0  0.72073  0.89232  0.43990  1.0000
  C   C750      1.0  0.85525  0.80074  0.36868  1.0000
  C   C751      1.0  0.86146  0.79158  0.38814  1.0000
  C   C752      1.0  0.84705  0.81026  0.40359  1.0000
  C   C753      1.0  0.82648  0.83838  0.39980  1.0000
  C   C754      1.0  0.82092  0.84801  0.38036  1.0000
  S   S224      1.0  0.84450  0.52266  0.62014  1.0000
  H   H1294     1.0  0.87695  0.76983  0.39126  1.0000
  H   H1295     1.0  0.85161  0.80260  0.41856  1.0000
  H   H1296     1.0  0.80568  0.86989  0.37724  1.0000
  H   H1297     1.0  0.80179  0.56536  0.42171  1.0000
  C   C755      1.0  0.84432  0.53849  0.38364  1.0000
  C   C756      1.0  0.93617  0.73946  0.62960  1.0000
  C   C757      1.0  0.86380  0.59039  0.36890  1.0000
  C   C758      1.0  0.89695  0.58742  0.37806  1.0000
  C   C759      1.0  0.90368  0.55993  0.38990  1.0000
  C   C760      1.0  0.87759  0.53556  0.39263  1.0000
  C   C761      1.0  0.59175  0.99897  0.57275  1.0000
  H   H1298     1.0  0.67276  0.98841  0.53275  1.0000
  H   H1299     1.0  0.92926  0.55743  0.39705  1.0000
  C   C762      1.0  0.85006  0.58956  0.43016  1.0000
  C   C763      1.0  0.53845  0.95375  0.40558  1.0000
  C   C764      1.0  0.56647  0.95882  0.41893  1.0000
  C   C765      1.0  0.59623  0.93829  0.41865  1.0000
  C   C766      1.0  0.59800  0.91223  0.40518  1.0000
  C   C767      1.0  0.56948  0.90647  0.39220  1.0000
  C   C768      1.0  0.53979  0.92727  0.39234  1.0000
  H   H1300     1.0  0.83937  0.94265  0.45420  1.0000
  H   H1301     1.0  0.61753  0.94235  0.42909  1.0000
  H   H1302     1.0  0.57053  0.88617  0.38185  1.0000
  C   C769      1.0  0.76026  0.76474  0.35933  1.0000
  H   H1303     1.0  0.71884  0.89735  0.48654  1.0000
  H   H1304     1.0  0.71993  0.86514  0.51743  1.0000
  C   C770      1.0  0.84351  0.77968  0.66317  1.0000
  C   C771      1.0  0.81570  0.78723  0.65013  1.0000
  C   C772      1.0  0.80930  0.82001  0.64446  1.0000
  C   C773      1.0  0.83062  0.84568  0.65182  1.0000
  C   C774      1.0  0.85812  0.83819  0.66512  1.0000
  C   C775      1.0  0.86463  0.80534  0.67077  1.0000
  H   H1305     1.0  0.79911  0.76761  0.64422  1.0000
  H   H1306     1.0  0.78809  0.82536  0.63422  1.0000
  H   H1307     1.0  0.70118  0.78209  0.41401  1.0000
  C   C776      1.0  0.87584  0.90045  0.49260  1.0000
  H   H1308     1.0  0.72767  0.00573  0.65555  1.0000
  C   C777      1.0  0.91106  0.84348  0.61694  1.0000
  H   H1309     1.0  0.98603  0.77162  0.65278  1.0000
  C   C778      1.0  0.73933  0.95901  0.51884  1.0000
  H   H1310     1.0  0.95746  0.85496  0.63393  1.0000
  H   H1311     1.0  0.79142  0.92261  0.47766  1.0000
  C   C779      1.0  0.82337  0.56083  0.43260  1.0000
  C   C780      1.0  0.61376  0.96017  0.51201  1.0000
  C   C781      1.0  0.86398  0.54042  0.64138  1.0000
  H   H1312     1.0  0.87678  0.58276  0.43569  1.0000
  N   N53       1.0  0.71939  0.80593  0.37742  1.0000
  H   H1313     1.0  0.85831  0.61152  0.35977  1.0000
  C   C782      1.0  0.89740  0.58575  0.65658  1.0000
  C   C783      1.0  0.88348  0.56985  0.63978  1.0000
  H   H1314     1.0  0.96445  0.79756  0.60146  1.0000
  H   H1315     1.0  0.80785  0.67334  0.61604  1.0000
  H   H1316     1.0  0.58810  0.99055  0.53338  1.0000
  H   H1317     1.0  0.88793  0.58029  0.62545  1.0000
  C   C784      1.0  0.55561  0.95901  0.64423  1.0000
  C   C785      1.0  0.58706  0.96656  0.63451  1.0000
  C   C786      1.0  0.61507  0.94408  0.63444  1.0000
  C   C787      1.0  0.61136  0.91341  0.64348  1.0000
  C   C788      1.0  0.57968  0.90568  0.65303  1.0000
  C   C789      1.0  0.55188  0.92857  0.65353  1.0000
  H   H1318     1.0  0.69523  0.84137  0.39729  1.0000
  H   H1319     1.0  0.63965  0.95075  0.62762  1.0000
  H   H1320     1.0  0.57671  0.88198  0.66005  1.0000
  H   H1321     1.0  0.67159  0.93274  0.55915  1.0000
  H   H1322     1.0  0.65417  0.00617  0.35844  1.0000
  H   H1323     1.0  0.88545  0.87814  0.50046  1.0000
  H   H1324     1.0  0.81626  0.94074  0.49720  1.0000
  H   H1325     1.0  0.98909  0.84590  0.66170  1.0000
  H   H1326     1.0  0.87447  0.85796  0.67106  1.0000
  H   H1327     1.0  0.65005  0.79947  0.39771  1.0000
  H   H1328     1.0  0.84134  0.61278  0.43717  1.0000
  C   C790      1.0  0.97945  0.80101  0.61549  1.0000
  H   H1329     1.0  0.92246  0.83906  0.60227  1.0000
  H   H1330     1.0  0.58005  0.94797  0.53635  1.0000
  H   H1331     1.0  0.99302  0.82541  0.61430  1.0000
  C   C791      1.0  0.71856  0.82500  0.39647  1.0000
  C   C792      1.0  0.93718  0.83489  0.63369  1.0000
  H   H1332     1.0  0.66535  0.93202  0.53354  1.0000
  N   N54       1.0  0.95441  0.80133  0.63259  1.0000
  C   C793      1.0  0.69621  0.85515  0.35686  1.0000
  C   C794      1.0  0.74009  0.94081  0.53636  1.0000
  H   H1333     1.0  0.87880  0.84095  0.47395  1.0000
  H   H1334     1.0  0.52751  0.92251  0.66091  1.0000
  C   C795      1.0  0.97289  0.79588  0.65203  1.0000
  C   C796      1.0  0.61296  0.96725  0.56859  1.0000
  H   H1335     1.0  0.86121  0.96229  0.47524  1.0000
  C   C797      1.0  0.78848  0.58674  0.45863  1.0000
  N   N55       1.0  0.79722  0.64362  0.65193  1.0000
  C   C798      1.0  0.81847  0.87564  0.50111  1.0000
  S   S225      1.0  0.73168  0.96728  0.47912  1.0000
  H   H1336     1.0  0.84848  0.66713  0.65487  1.0000
  H   H1337     1.0  0.00277  0.61386  0.41139  1.0000
  H   H1338     1.0  0.62871  0.78390  0.37613  1.0000
  S   S226      1.0  0.52188  0.98851  0.64457  1.0000
  H   H1339     1.0  0.81342  0.60902  0.61549  1.0000
  S   S227      1.0  0.74074  0.00765  0.38278  1.0000
  S   S228      1.0  0.93099  0.61709  0.37537  1.0000
  H   H1340     1.0  0.80721  0.60638  0.46381  1.0000
  H   H1341     1.0  0.77467  0.59705  0.44552  1.0000
  H   H1342     1.0  0.76227  0.64536  0.62631  1.0000
  Fe  Fe111     1.0  0.73253  0.96467  0.61549  1.0000
  H   H1343     1.0  0.69717  0.98048  0.56730  1.0000
  H   H1344     1.0  0.90426  0.87008  0.61800  1.0000
  H   H1345     1.0  0.76259  0.56121  0.48414  1.0000
  H   H1346     1.0  0.80595  0.91397  0.52341  1.0000
  C   C799      1.0  0.75972  0.58282  0.47450  1.0000
  H   H1347     1.0  0.91080  0.77964  0.61577  1.0000
  H   H1348     1.0  0.61856  0.89815  0.56441  1.0000
  H   H1349     1.0  0.88588  0.79990  0.68099  1.0000
  Fe  Fe112     1.0  0.68565  0.91156  0.41574  1.0000
  H   H1350     1.0  0.83484  0.82278  0.47423  1.0000
  Fe  Fe113     1.0  0.69465  0.90210  0.62719  1.0000
  H   H1351     1.0  0.60787  0.89888  0.53831  1.0000
  S   S229      1.0  0.72957  0.91524  0.39400  1.0000
  Fe  Fe114     1.0  0.76538  0.90008  0.41874  1.0000
  Fe  Fe115     1.0  0.77513  0.90365  0.62772  1.0000
  Fe  Fe116     1.0  0.73529  0.90411  0.58849  1.0000
  S   S230      1.0  0.69069  0.93372  0.60056  1.0000
  C   C800      1.0  0.83496  0.82908  0.36489  1.0000
  C   C801      1.0  0.72561  0.82986  0.36091  1.0000
  H   H1352     1.0  0.74631  0.79562  0.41872  1.0000
  C   C802      1.0  0.92530  0.77595  0.62986  1.0000
  C   C803      1.0  0.78569  0.52554  0.45206  1.0000
  H   H1353     1.0  0.83665  0.53786  0.42753  1.0000
  H   H1354     1.0  0.91295  0.60798  0.65509  1.0000
  H   H1355     1.0  0.74492  0.98523  0.51925  1.0000
  H   H1356     1.0  0.92220  0.92734  0.48224  1.0000
  H   H1357     1.0  0.56543  0.97903  0.42933  1.0000
  H   H1358     1.0  0.99502  0.58426  0.64981  1.0000
  H   H1359     1.0  0.80495  0.87283  0.53196  1.0000
  H   H1360     1.0  0.82198  0.57038  0.49495  1.0000
  H   H1361     1.0  0.80673  0.87204  0.46258  1.0000
  H   H1362     1.0  0.77884  0.60759  0.67309  1.0000
  N   N56       1.0  0.63013  0.96514  0.54879  1.0000
  C   C804      1.0  0.89121  0.57271  0.67517  1.0000
  C   C805      1.0  0.87160  0.54335  0.67678  1.0000
  H   H1363     1.0  0.59380  0.94659  0.57051  1.0000
  C   C806      1.0  0.85829  0.52707  0.65994  1.0000
  C   C807      1.0  0.68090  0.00184  0.56288  1.0000
  C   C808      1.0  0.77378  0.62713  0.63666  1.0000
  H   H1364     1.0  0.72324  0.65733  0.65979  1.0000
  C   C809      1.0  0.90380  0.90779  0.47671  1.0000
  C   C810      1.0  0.73306  0.90688  0.53592  1.0000
  H   H1365     1.0  0.88563  0.82980  0.61839  1.0000
  H   H1366     1.0  0.77341  0.69143  0.64722  1.0000
  C   C811      1.0  0.77901  0.67405  0.65945  1.0000
  H   H1367     1.0  0.98450  0.66465  0.39779  1.0000
  H   H1368     1.0  0.85899  0.57080  0.46610  1.0000
  S   S231      1.0  0.85125  0.73776  0.66898  1.0000
  H   H1369     1.0  0.75076  0.84385  0.36351  1.0000
  H   H1370     1.0  0.79661  0.68827  0.66966  1.0000
  N   N57       1.0  0.83808  0.89503  0.48573  1.0000
  H   H1371     1.0  0.59338  0.00483  0.58868  1.0000
  C   C812      1.0  0.65100  0.79970  0.38147  1.0000
  C   C813      1.0  0.81895  0.92729  0.48310  1.0000
  H   H1372     1.0  0.89328  0.91655  0.46252  1.0000
  C   C814      1.0  0.60147  0.96614  0.53325  1.0000
  H   H1373     1.0  0.95099  0.73216  0.64293  1.0000
  H   H1374     1.0  0.87707  0.92095  0.50357  1.0000
  H   H1375     1.0  0.81773  0.97395  0.46784  1.0000
  C   C815      1.0  0.71896  0.80388  0.41522  1.0000
  H   H1376     1.0  0.91176  0.72397  0.62918  1.0000
  H   H1377     1.0  0.99753  0.58523  0.62386  1.0000
  C   C816      1.0  0.75078  0.78301  0.37846  1.0000
  H   H1378     1.0  0.68854  0.76068  0.38040  1.0000
  H   H1379     1.0  0.85294  0.59486  0.41431  1.0000
  C   C817      1.0  0.83755  0.56600  0.37174  1.0000
  H   H1380     1.0  0.84640  0.88911  0.45427  1.0000
  C   C818      1.0  0.75385  0.52666  0.43767  1.0000
  H   H1381     1.0  0.95962  0.55193  0.35360  1.0000
  C   C819      1.0  0.68620  0.78561  0.37374  1.0000
  H   H1382     1.0  0.71014  0.81912  0.42782  1.0000
  H   H1383     1.0  0.83033  0.70382  0.63101  1.0000
  C   C820      1.0  0.83080  0.67771  0.62593  1.0000
  S   S232      1.0  0.73406  0.93452  0.64295  1.0000
  C   C821      1.0  0.85221  0.84109  0.46697  1.0000
  H   H1384     1.0  0.85455  0.67393  0.61676  1.0000
  H   H1385     1.0  0.74661  0.76350  0.38962  1.0000
  C   C822      1.0  0.62931  0.90118  0.54947  1.0000
  H   H1386     1.0  0.79013  0.87219  0.49673  1.0000
  C   C823      1.0  0.72548  0.89137  0.51786  1.0000
  S   S233      1.0  0.77565  0.95253  0.42850  1.0000
  S   S234      1.0  0.68950  0.96427  0.42575  1.0000
  H   H1387     1.0  0.82942  0.85038  0.50256  1.0000
  H   H1388     1.0  0.92248  0.83773  0.64764  1.0000
  C   C824      1.0  0.83581  0.95252  0.46921  1.0000
  N   N58       1.0  0.80859  0.55615  0.45290  1.0000
  H   H1389     1.0  0.74641  0.95290  0.55015  1.0000
  H   H1390     1.0  0.85528  0.83242  0.45161  1.0000
  H   H1391     1.0  0.80063  0.57918  0.63382  1.0000
  H   H1392     1.0  0.51816  0.92299  0.38211  1.0000
  H   H1393     1.0  0.77135  0.58888  0.61411  1.0000
  C   C825      1.0  0.81947  0.88996  0.52218  1.0000
  H   H1394     1.0  0.95113  0.73319  0.61621  1.0000
  H   H1395     1.0  0.56348  0.99558  0.56844  1.0000
  H   H1396     1.0  0.81184  0.56853  0.36477  1.0000
  H   H1397     1.0  0.62314  0.93456  0.50973  1.0000
  C   C826      1.0  0.65075  0.93350  0.54756  1.0000
  H   H1398     1.0  0.64707  0.99507  0.67698  1.0000
  C   C827      1.0  0.00121  0.82190  0.65782  1.0000
  C   C828      1.0  0.83948  0.55022  0.46665  1.0000
  H   H1399     1.0  0.63241  0.96354  0.58072  1.0000
  H   H1400     1.0  0.74662  0.65229  0.68298  1.0000
  H   H1401     1.0  0.85409  0.52763  0.46208  1.0000
  H   H1402     1.0  0.85035  0.64192  0.68318  1.0000
  H   H1403     1.0  0.64548  0.82504  0.37647  1.0000
  H   H1404     1.0  0.73676  0.75327  0.35208  1.0000
  H   H1405     1.0  0.82018  0.59831  0.66275  1.0000
  H   H1406     1.0  0.68244  0.78082  0.35774  1.0000
  Fe  Fe117     1.0  0.89951  0.71640  0.68444  1.0000
  H   H1407     1.0  0.63472  0.97784  0.50759  1.0000
  H   H1408     1.0  0.73859  0.54976  0.43882  1.0000
  C   C829      1.0  0.62088  0.98852  0.68313  1.0000
  C   C830      1.0  0.65559  0.99347  0.54559  1.0000
  H   H1409     1.0  0.61174  0.96671  0.67449  1.0000
  H   H1410     1.0  0.57815  0.97882  0.37505  1.0000
  H   H1411     1.0  0.68771  0.86866  0.37011  1.0000
  H   H1412     1.0  0.77936  0.74478  0.36277  1.0000
  Fe  Fe118     1.0  0.93046  0.66425  0.35744  1.0000
  C   C831      1.0  0.98022  0.53438  0.35828  1.0000
  C   C832      1.0  0.80396  0.61922  0.66815  1.0000
  H   H1413     1.0  0.99643  0.67507  0.42248  1.0000
  H   H1414     1.0  0.76251  0.52315  0.42230  1.0000
  C   C833      1.0  0.74355  0.66807  0.66987  1.0000
  H   H1415     1.0  0.85543  0.53962  0.49659  1.0000
  H   H1416     1.0  0.97636  0.52800  0.37392  1.0000
  H   H1417     1.0  0.68569  0.95470  0.68289  1.0000
  H   H1418     1.0  0.88334  0.51458  0.40174  1.0000
  H   H1419     1.0  0.54231  0.95306  0.35223  1.0000
  Fe  Fe119     1.0  0.78445  0.78650  0.92306  1.0000
  S   S235      1.0  0.82392  0.82268  0.93560  1.0000
  S   S236      1.0  0.73238  0.79685  0.90718  1.0000
  Fe  Fe120     1.0  0.83016  0.72712  0.93407  1.0000
  S   S237      1.0  0.87308  0.75856  0.94781  1.0000
  S   S238      1.0  0.83266  0.67118  0.93395  1.0000
  Fe  Fe121     1.0  0.82875  0.78764  0.96103  1.0000
  S   S239      1.0  0.83247  0.81125  0.99122  1.0000
  Fe  Fe122     1.0  0.86497  0.79079  0.92159  1.0000
  S   S240      1.0  0.91183  0.81291  0.90611  1.0000
  S   S241      1.0  0.78610  0.75355  0.94956  1.0000
  S   S242      1.0  0.82516  0.75731  0.90680  1.0000
  Fe  Fe123     1.0  0.56738  0.96126  0.85401  1.0000
  H   H1420     1.0  0.93076  0.69244  0.81844  1.0000
  H   H1421     1.0  0.81777  0.81099  0.82592  1.0000
  Fe  Fe124     1.0  0.64810  0.95693  0.85683  1.0000
  C   C834      1.0  0.53581  0.00444  0.74918  1.0000
  S   S243      1.0  0.70084  0.93401  0.86590  1.0000
  N   N59       1.0  0.62431  0.98017  0.70456  1.0000
  C   C835      1.0  0.95112  0.55910  0.91865  1.0000
  H   H1422     1.0  0.51018  0.94019  0.77761  1.0000
  H   H1423     1.0  0.90940  0.58617  0.79299  1.0000
  S   S244      1.0  0.60628  0.96995  0.87880  1.0000
  S   S245      1.0  0.60869  0.94372  0.83282  1.0000
  C   C836      1.0  0.77978  0.78071  0.85791  1.0000
  H   H1424     1.0  0.67125  0.82054  0.88615  1.0000
  S   S246      1.0  0.89623  0.68567  0.71177  1.0000
  Fe  Fe125     1.0  0.95112  0.70498  0.71873  1.0000
  H   H1425     1.0  0.92630  0.56829  0.92525  1.0000
  C   C837      1.0  0.98867  0.60617  0.80364  1.0000
  S   S247      1.0  0.96585  0.51409  0.79814  1.0000
  H   H1426     1.0  0.82839  0.85062  0.89529  1.0000
  H   H1427     1.0  0.98200  0.81414  0.89012  1.0000
  H   H1428     1.0  0.88578  0.58946  0.81552  1.0000
  C   C838      1.0  0.56445  0.94855  0.70218  1.0000
  H   H1429     1.0  0.84928  0.78542  0.85248  1.0000
  C   C839      1.0  0.81492  0.83505  0.83366  1.0000
  H   H1430     1.0  0.77407  0.87398  0.83476  1.0000
  H   H1431     1.0  0.88731  0.82319  0.83382  1.0000
  H   H1432     1.0  0.69260  0.63657  0.88910  1.0000
  H   H1433     1.0  0.63486  0.92857  0.69826  1.0000
  H   H1434     1.0  0.97265  0.55911  0.92981  1.0000
  H   H1435     1.0  0.71408  0.64495  0.93233  1.0000
  H   H1436     1.0  0.87645  0.65956  0.86666  1.0000
  H   H1437     1.0  0.63109  0.99318  0.74585  1.0000
  C   C840      1.0  0.97045  0.79017  0.88704  1.0000
  S   S248      1.0  0.97861  0.66298  0.70379  1.0000
  S   S249      1.0  0.99556  0.70585  0.85827  1.0000
  H   H1438     1.0  0.81587  0.74210  0.99879  1.0000
  C   C841      1.0  0.84906  0.64917  0.91362  1.0000
  C   C842      1.0  0.85892  0.66531  0.89645  1.0000
  C   C843      1.0  0.85032  0.61454  0.91429  1.0000
  H   H1439     1.0  0.85809  0.69192  0.89577  1.0000
  H   H1440     1.0  0.68246  0.71016  0.92285  1.0000
  C   C844      1.0  0.93617  0.78296  0.89354  1.0000
  H   H1441     1.0  0.57868  0.93018  0.69329  1.0000
  N   N60       1.0  0.96147  0.63311  0.80143  1.0000
  C   C845      1.0  0.75957  0.65832  0.88983  1.0000
  C   C846      1.0  0.93959  0.72886  0.87847  1.0000
  C   C847      1.0  0.92102  0.75214  0.88942  1.0000
  H   H1442     1.0  0.69218  0.71158  0.88299  1.0000
  S   S250      1.0  0.90744  0.59250  0.69663  1.0000
  H   H1443     1.0  0.92739  0.70525  0.87502  1.0000
  H   H1444     1.0  0.89481  0.74630  0.89446  1.0000
  C   C848      1.0  0.72203  0.83632  0.89771  1.0000
  C   C849      1.0  0.74598  0.86270  0.89924  1.0000
  C   C850      1.0  0.73884  0.89258  0.88960  1.0000
  C   C851      1.0  0.70708  0.89687  0.87899  1.0000
  C   C852      1.0  0.68236  0.87103  0.87821  1.0000
  C   C853      1.0  0.69002  0.84076  0.88736  1.0000
  H   H1445     1.0  0.77032  0.85982  0.90751  1.0000
  H   H1446     1.0  0.75804  0.91249  0.89037  1.0000
  H   H1447     1.0  0.65788  0.87398  0.87001  1.0000
  H   H1448     1.0  0.90885  0.52034  0.71764  1.0000
  H   H1449     1.0  0.79527  0.81308  0.88122  1.0000
  H   H1450     1.0  0.77834  0.85383  0.81154  1.0000
  H   H1451     1.0  0.85797  0.80627  0.87478  1.0000
  C   C854      1.0  0.95126  0.63160  0.91702  1.0000
  H   H1452     1.0  0.72913  0.00002  0.87940  1.0000
  H   H1453     1.0  0.59137  0.96446  0.72863  1.0000
  C   C855      1.0  0.69003  0.94486  0.92776  1.0000
  H   H1454     1.0  0.87055  0.86228  0.88541  1.0000
  N   N61       1.0  0.82134  0.83168  0.85543  1.0000
  H   H1455     1.0  0.71222  0.59683  0.90858  1.0000
  C   C856      1.0  0.93044  0.62379  0.81405  1.0000
  C   C857      1.0  0.86925  0.64691  0.87997  1.0000
  H   H1456     1.0  0.64771  0.94121  0.72206  1.0000
  C   C858      1.0  0.68503  0.95274  0.69911  1.0000
  C   C859      1.0  0.57333  0.00057  0.77849  1.0000
  H   H1457     1.0  0.80081  0.87923  0.86434  1.0000
  H   H1458     1.0  0.78311  0.77725  0.84196  1.0000
  C   C860      1.0  0.64669  0.94966  0.70657  1.0000
  C   C861      1.0  0.79017  0.81564  0.86524  1.0000
  H   H1459     1.0  0.69126  0.67774  0.86553  1.0000
  S   S251      1.0  0.51220  0.93950  0.85252  1.0000
  H   H1460     1.0  0.86188  0.56947  0.89848  1.0000
  H   H1461     1.0  0.57346  0.99697  0.71427  1.0000
  H   H1462     1.0  0.97015  0.71615  0.81605  1.0000
  H   H1463     1.0  0.97487  0.54643  0.71643  1.0000
  C   C862      1.0  0.96060  0.66805  0.92147  1.0000
  H   H1464     1.0  0.92774  0.56977  0.81541  1.0000
  C   C863      1.0  0.82644  0.86582  0.86407  1.0000
  H   H1465     1.0  0.76016  0.59915  0.90694  1.0000
  H   H1466     1.0  0.69978  0.97373  0.70583  1.0000
  C   C864      1.0  0.96094  0.57924  0.90035  1.0000
  H   H1467     1.0  0.76076  0.64766  0.93006  1.0000
  H   H1468     1.0  0.89555  0.63129  0.77141  1.0000
  H   H1469     1.0  0.74849  0.69812  0.86838  1.0000
  H   H1470     1.0  0.84252  0.60189  0.92750  1.0000
  H   H1471     1.0  0.78683  0.70519  0.88405  1.0000
  H   H1472     1.0  0.78442  0.65043  0.89725  1.0000
  H   H1473     1.0  0.93875  0.62277  0.82979  1.0000
  H   H1474     1.0  0.78857  0.67588  0.86459  1.0000
  N   N62       1.0  0.69570  0.00695  0.91892  1.0000
  H   H1475     1.0  0.94774  0.70335  0.79429  1.0000
  C   C865      1.0  0.86122  0.59614  0.89788  1.0000
  C   C866      1.0  0.51630  0.97688  0.75512  1.0000
  S   S252      1.0  0.96481  0.72323  0.74943  1.0000
  C   C867      1.0  0.68297  0.68599  0.88033  1.0000
  S   S253      1.0  0.88296  0.59047  0.85936  1.0000
  H   H1476     1.0  0.71509  0.73786  0.93232  1.0000
  H   H1477     1.0  0.90936  0.64258  0.81375  1.0000
  C   C868      1.0  0.73690  0.60526  0.91604  1.0000
  C   C869      1.0  0.84181  0.86756  0.88512  1.0000
  H   H1478     1.0  0.95191  0.61152  0.77275  1.0000
  C   C870      1.0  0.52528  0.96137  0.77280  1.0000
  C   C871      1.0  0.71004  0.71154  0.92852  1.0000
  H   H1479     1.0  0.76407  0.70241  0.92004  1.0000
  S   S254      1.0  0.95941  0.53551  0.85145  1.0000
  C   C872      1.0  0.77882  0.84976  0.82763  1.0000
  H   H1480     1.0  0.75131  0.63694  0.88046  1.0000
  H   H1481     1.0  0.94603  0.53305  0.91427  1.0000
  H   H1482     1.0  0.99006  0.65670  0.88789  1.0000
  C   C873      1.0  0.77098  0.68627  0.87599  1.0000
  C   C874      1.0  0.73589  0.64227  0.92162  1.0000
  H   H1483     1.0  0.67443  0.66050  0.90770  1.0000
  H   H1484     1.0  0.65361  0.68763  0.88041  1.0000
  H   H1485     1.0  0.97202  0.65122  0.77223  1.0000
  C   C875      1.0  0.87042  0.61231  0.88061  1.0000
  C   C876      1.0  0.91507  0.65113  0.77496  1.0000
  H   H1486     1.0  0.71270  0.69756  0.94238  1.0000
  C   C877      1.0  0.69501  0.66132  0.89615  1.0000
  C   C878      1.0  0.97809  0.66454  0.80924  1.0000
  H   H1487     1.0  0.97845  0.56353  0.89146  1.0000
  H   H1488     1.0  0.73720  0.71964  0.90169  1.0000
  H   H1489     1.0  0.65632  0.99608  0.94096  1.0000
  H   H1490     1.0  0.66206  0.94378  0.93252  1.0000
  C   C879      1.0  0.65285  0.00274  0.73671  1.0000
  H   H1491     1.0  0.91027  0.80729  0.85470  1.0000
  H   H1492     1.0  0.54845  0.93460  0.71295  1.0000
  H   H1493     1.0  0.69964  0.92991  0.70292  1.0000
  H   H1494     1.0  0.54486  0.96157  0.69282  1.0000
  H   H1495     1.0  0.93644  0.58146  0.89124  1.0000
  H   H1496     1.0  0.95339  0.63384  0.87819  1.0000
  C   C880      1.0  0.82157  0.78961  0.01275  1.0000
  H   H1497     1.0  0.94835  0.61971  0.93157  1.0000
  H   H1498     1.0  0.71888  0.00268  0.94798  1.0000
  H   H1499     1.0  0.67565  0.98571  0.73755  1.0000
  H   H1500     1.0  0.92438  0.63128  0.91019  1.0000
  C   C881      1.0  0.91255  0.59042  0.80896  1.0000
  H   H1501     1.0  0.70800  0.94814  0.94059  1.0000
  H   H1502     1.0  0.79531  0.76161  0.86573  1.0000
  H   H1503     1.0  0.82687  0.61238  0.69720  1.0000
  C   C882      1.0  0.64100  0.00912  0.71533  1.0000
  H   H1504     1.0  0.76621  0.83144  0.86460  1.0000
  H   H1505     1.0  0.99859  0.75009  0.78386  1.0000
  H   H1506     1.0  0.99939  0.59064  0.86641  1.0000
  H   H1507     1.0  0.56001  0.96118  0.79816  1.0000
  H   H1508     1.0  0.69572  0.92025  0.92129  1.0000
  H   H1509     1.0  0.80834  0.65237  0.69411  1.0000
  C   C883      1.0  0.98965  0.76634  0.87660  1.0000
  Fe  Fe126     1.0  0.61154  0.99704  0.82421  1.0000
  C   C884      1.0  0.97999  0.63124  0.88531  1.0000
  H   H1510     1.0  0.75114  0.77649  0.86063  1.0000
  C   C885      1.0  0.73723  0.70040  0.91316  1.0000
  S   S255      1.0  0.65491  0.00918  0.84611  1.0000
  H   H1511     1.0  0.73960  0.59060  0.92968  1.0000
  C   C886      1.0  0.82341  0.63280  0.68655  1.0000
  C   C887      1.0  0.58852  0.97355  0.71334  1.0000
  C   C888      1.0  0.85345  0.81052  0.85884  1.0000
  C   C889      1.0  0.95173  0.63629  0.77996  1.0000
  N   N63       1.0  0.73161  0.66614  0.90482  1.0000
  C   C890      1.0  0.98502  0.53831  0.70201  1.0000
  H   H1512     1.0  0.83553  0.85115  0.82704  1.0000
  N   N64       1.0  0.97697  0.61285  0.90437  1.0000
  H   H1513     1.0  0.91734  0.66579  0.76130  1.0000
  H   H1514     1.0  0.75658  0.83269  0.83089  1.0000
  Fe  Fe127     1.0  0.90186  0.53733  0.85857  1.0000
  H   H1515     1.0  0.84404  0.88122  0.85480  1.0000
  C   C891      1.0  0.88824  0.82366  0.85008  1.0000
  H   H1516     1.0  0.90415  0.66792  0.78612  1.0000
  H   H1517     1.0  0.83863  0.89297  0.89101  1.0000
  H   H1518     1.0  0.72129  0.96527  0.90494  1.0000
  C   C892      1.0  0.95467  0.69544  0.80937  1.0000
  H   H1519     1.0  0.53118  0.93912  0.89408  1.0000
  H   H1520     1.0  0.89507  0.84884  0.85533  1.0000
  C   C893      1.0  0.55355  0.97323  0.78449  1.0000
  H   H1521     1.0  0.98169  0.55947  0.69190  1.0000
  C   C894      1.0  0.97397  0.73577  0.87221  1.0000
  H   H1522     1.0  0.97803  0.58238  0.79786  1.0000
  H   H1523     1.0  0.00184  0.63068  0.85612  1.0000
  H   H1524     1.0  0.98796  0.66090  0.82453  1.0000
  H   H1525     1.0  0.94259  0.67742  0.93299  1.0000
  C   C895      1.0  0.81511  0.75561  0.01250  1.0000
  H   H1526     1.0  0.91371  0.51504  0.74298  1.0000
  H   H1527     1.0  0.98813  0.67130  0.92697  1.0000
  H   H1528     1.0  0.95604  0.68385  0.90849  1.0000
  H   H1529     1.0  0.99501  0.60177  0.81942  1.0000
  S   S256      1.0  0.95210  0.73921  0.69267  1.0000
  H   H1530     1.0  0.86612  0.53343  0.69110  1.0000
  Fe  Fe128     1.0  0.92402  0.64619  0.69469  1.0000
  H   H1531     1.0  0.74932  0.99727  0.92856  1.0000
  H   H1532     1.0  0.51943  0.00573  0.90893  1.0000
  H   H1533     1.0  0.00161  0.67154  0.80055  1.0000
  C   C896      1.0  0.69571  0.97147  0.91197  1.0000
  H   H1534     1.0  0.67496  0.96739  0.90045  1.0000
  H   H1535     1.0  0.93698  0.51792  0.69054  1.0000
  H   H1536     1.0  0.63840  0.00824  0.91786  1.0000
