data_image0
_chemical_formula_structural       H2FeCSFeNSHCH2SC2HC2HC4H2CHC2HCH4CH2SH9CSCFeH5C3SHSHFeSFeSH2SC2H2C2H2CH6CHC3H3NC8H14CH2FeC2HFeHCH2CH4FeS2FeS2FeSFeS2HFeS2FeSC2H3FeS2FeS2FeSFeS3FeS2FeS2FeSFeS3C2HC6H4C6H4C3HC2H6C3H4C7H5CHC8HCH2C6H4CSCNC9H19C2HCH3NC5H20C2HC3H10CH2C2HC2HNCH2CH2C2H3CH2CH2CH6CHCH2CH8CH3CSH2SHC2H6CH4C2HCHNCH4FeHCH3CHC2HSHCH4C2HSH6CH2CH2CSH3CHCNH3CHCH2CH2C2HCNHCHSC3H6NCH2CH2CHCH2C2HFeH5C2H2CHNHC2H2SHCHCH2NHC3HSHC2H3FeS2HSFeCFeSHSFeS2NCHSH2FeS2FeS2FeSFeS3HFeSCFeS2FeSFeS4C5HC6H4C6H5C3H7CH2CHCH5SH2C9H4C5H4CNC2NCH3CH6CHCH5SCHCH3CH5CHC2HCH2CH6CH5SC2HCH3SCH3C2HCHSHCH6CH2CNHNHCH6CH6CH5CHCHCHC2H2CH3CFeH5C3HCH2CH2C2HCHCHNCH6CH3C4H3C3HSC3HCH5CH8SH2CHCNH9SCH2CHCH2CH3CHCHFeH6CHSH2SCH2SH2FeS2FeS2FeSFeS3HC4H3C4H2C6H4CH5C4H2CH2C3HCN2H3CH3CHNH2FeH2C2H2CH5C5H3C2H5CH3SH2CH2CH4CHCNC2H5C2H6CH2CNC3H9CFe2SH3SCFeS2FeS2FeSFeS3C3HC2H4CH2CHCHC2HC3HC3H2C6H6SH2CHC2HSFeH8CH3CH3SH2NC2H2CH3CH3CHCH5C3HCH3SHCH2C3H9CNH3CFeH3CHNC3H4CH6C2HFeSCFeS2FeSFeS3H3FeSHFeSCSFeSH2FeS2FeS2FeSFeS3H2CHC2HCH2CHC2H2CHC3H2C2H4C6H6SH4CH3CH3C6H5C2HSH3C6H6CH2NC3H4CH2C3NH7C2H2CNC4H2CH8CSH2C2H4CH2CH3CH3N2H6C4HC3H3CHNH3CH4CH3FeH2C2HNHCH2CH7SH4CH2C2H2NHCHC2H6C4H2CH3CH3FeSHFeS2FeSFeS3C2FeS2FeCH2CH3S2FeS2FeS2FeSFeS3CH5CHCHC7H4C6H5CH3CH2NH3CH2CHC6H4C6H6CHCHC3HCHC2NC8H20CH4CHCHCH4CH13C3H2CHCHNCH2NHCHSHC2H6C2H5CH3C2HCHCH2CH5CH6C2HCH2CH5CHC3NHCHSH2CHCH2NH2C2HCHCH4CH3SHSHCH3C2HFeH2CH2C2FeS2FeS2FeSFeS4HCSNFeSFeS2FeS2FeSFeS3FeHS2C6H4C6H5CHC7H4C2H2C6H4C6H6C3H3SFeCH3CNC8H21CH11CH3NC7H3CH22SHSH2SH2C2S2H2C2HC2H3NHCH3CH6C5H3FeC2H4CHC3H2CH5CH2FeHC2HSH4FeC2HSHFeH3CFeHC2H2CHCSHCH3CSHCHC2NH5CH3C2HSH7CNHCH3C2H4CH3CSH2SH3NC2H6C2H4CH4C2H2CHCHFeS2FeS2FeSFeS4FeS2FeS2FeSFeS4H2SC3FeSHC6HCHC6HCH2C6H4NH3C6H4C6H4C4HSC6H4CH3CH3SC3H4CH2CH5C4H2CH4CSHCH2NH4CH11CH2CSH2CHCH2SH4CNC2H2SH10C2H4Fe3H2CH2CHCH4CHCH2CH5FeCH2CHNH3NC8H17FeCH3C2H6C2H4C2H2CH6NHNFeS2FeS2FeSFeS3FeSHSHFeSFeSFeS2FeS2FeSFeS3CHC2H2CHC6H4C2H7C4H4C2HSHCH3C3SC2H2CHC6H4C6H6CH2C2HCHCH3CHCHCHCH4CHNC6H18SH4C2H13SC3FeHCH4CHC2FeS2H3CH3C2H2CHCHCH2C4H4CFeNC8H20NHC2H3C2HCH2CHNHC2HSC3H3CN2C7H15CH10C2SCH3CH2FeSHCH3FeS2FeS2FeSFeS4FeSCHFeHFeSHFeS2FeS2FeSFeS3C4H2C6H4C2H2C2HC5H2SC3HC2H2CHC6H4C6H4CH2SHCHCH2C2SH5CH5CH3NC3H3CHNHCHNCNC9H14CH2CH2FeHCH7CH3NHSH3SH3C2H2CH2CHCSH2CH4SC3H2CNH4C2NH3CH2C2H3SH2CH2FeNC8H19CHCH3C2HCH7CHCH3CHCHC2NH4CH2CHCH3CHC2H2CH4CH8CHSHCH3CH4CH2C3SHFeCH4CHCHCSNCHCH4CH2CHCSC2HC2H2CH3CFeSHFe2S2FeS2FeSFeS5H2FeS2FeS2FeSFeS3Fe2S4C6H5C2HCH2C6H4C6H4C6HCH2C3H7C2HCH2CHCHCHNHCH2CNH2C2H4CFeCH6CH3CH3CH2CHCHCSCH3C2HC5H3CH6CHC4HCHCH2C3H4CH3CFeCH12CHCHSNC8H23S2H2CH8NC8H9CSH3CHCSH8CSHFeCSCFeH2CH2CH3CH2NCHCH2CHCH3SH2CHNCNH4SCH3C2HCHSH3CH3FeSFeS2FeS2FeSFeS4FeS2FeS2FeHFeS3CFeS2FeHS2H3C6H5C6H4C6H4C6H3C3HCH2FeH2CHCH2C2SCSH2SC2H4CH5CHNC8H20CHC2H9FeHSC2H4FeC2H3CH8NCH3CH5C2H3SCFeCH2CHSHCHSH4C2HNH5CSH2CH3NC7H16SC2HC2HNHCH3CH3C2H3CH5NC3H2C2H2C2H7FeH4SCHSFeS2FeS2FeSFeHS2H2CH2CHC3NFeSH4FeS2FeS2FeSFeS3FeSCFeS2FeSHSHC6H4C2HC6H8C6H4C2H3C3SC2HC2H2CHSCH3C4H2NH4C7H6C6H6FeHC2HCH3CH2SHCH5NC2HCHCHCH3CH5CHCHCNH3CHNSCH5C2SH2CH2CNC8H20SNC8H20CH3CH2CSH5CH2CH5CHCH3CH5NH3CHCHC2HCH4CHSH7C2HSH2NCH2C3FeH2SCHC2H5CFeHFeSCH4CFeS2FeS2FeSFeS3HC3H2CH2NFeSHC2FeSHSFeS2FeS2FeSFeS3FeS2FeSHFeHFeCS2C6H4C5H4C6H5SC2NHCH4SHC6H5CNH2C2HC4H4SH2CH3FeH2C2HNHCHC4H4CH2NC8H14FeCHCH2C2H3CHCH3CNCH4C2SC2HCHCSHNC4H6CHNHC3H2CH10CHCH3CH6SH2CNHC2H2SC2H2CHSH3C3H4CH2CHC2HCH3C2H3SCH5FeHCSCH2C2H2CH13C3H6C2HCSCHCH2CHCH2CH9CH3CHC3H2SCH3FeSCHCFeS2FeS2FeSFeS3FeS2FeSHFeSFeS2FeSFeS2FeSFeS3CH2CHCH2C2H3C6H4CHC7H4CHC2H2CH3CHCHSH2CH7CH2CNC6H4CH2SH2C2H2C2HNC2HC3HCH5CH8NH2CH2CHCH5CH2NC4HCH6CH3NH9NCHCHC2H3CH7SHCHCHCH2CH3NHC3H2CH2CH9CH3CHCH2CHC2HCH3CHCHCHCH3CSHCH2CHCH7CHC2H4C2H2SHSH2FeSFeS2FeHS2FeS2FeS2FeSFeCS2HFeS2FeS2FeSFeHS2NH4FeH3C2HC4HC5HSH3CH2C4H4C6H4C6H4C6H5C2H2CHCH2C6H4C3H6CH2FeH2SC2HNC6HCH16CH2CFeHNCHCH2SHSHNCHCHCHCFeH4C2HCH2CH11CHSC4HCH6CH3NH4CH2SCH4CHCHCH4NC2H2C2H4C2H4CHCHCHCH4C2SH2C2H6CH2CH2CNH5C2H6FeS2HSCFeSFeHSHCFeSFeS2FeSHFeSFeS3FeS2FeS2FeSFeSC2H5NH2C6H6CHSC3H3C6H4C6H4CHC2HSC2H6CH5CH3C2SCH5FeC2SCHCH5CHCH2CH2NCH4N2H2CH2CH2SH7C2H2C2H4SNH3CHSHCHCHCHC2HCHCH3CHCH4CH2C2H3CH3NCHCH4CHCHSH2SCFeSFeCSHCFeS2FeSFeSFeS3FeS2FeS2FeS2C7H4C2H2C6H4CSC3H2C7H4C2H2CH2CH2CH2CHCHNCFeCH7CH2CHNC8H20CHCNH2CHCHC2H2CH2CHCNH2CH2CHSCHNHCH2CSCH2FeH3SCH2CHC2H3C2HCHFeHCH5C3H4FeHCSH9CHSH4S2H2C2HNC2H2CHCHSH8CH3FeS2FeHS2HFeS2FeH2S2FeS2FeS2FeSFeHS3H2FeSHFeS2FeS2FeSFeS3CH4CHCHCH2C6H4C6H4C6H4CH3C2H3C7H4C3H10CH4C2HCH4FeSCH4SHCHCHCHCH4C2HSHCH2SHNCHSHCHC2H3FeHCH3CHCH2C2NCHC3HCH3CH11C2HFeSCNC7H3CH6CH3CH2CH2CHSFeC2H2NH9CHCHC2H3CH4FeHCH2NH2CH3CH3C2H2FeS2H2FeCH2S2CSH2SHFeSH2CNFeS2FeS2FeSFeHS2HSFeSFeS2FeSFeS3H2C7HCH2C6H6C7H6C3H6CHCNCH6CH2C6H5C2NH4CH4NC4H2C2HCH6CSH2CH4SFeNC8H19CHC2FeC2SH8C2HCH3C2H3C2HCH2SFeSCHC2H4CHNH2C3H2CH2C2HFeH2CSC2H3CH2N2HC2H4CH2CH2C3HCH2SCH6C2HCH2SCHCHCH2SH6C3H2CH2SCFe2HCH6CHC2FeHCHNH3C2HCH4CH11NH2C2HC2H2SFeH7CHNCH4CH6C4HSCHCH3CH2CH2CH5NHCHCH3CH3C2HSC2H2
_chemical_formula_sum              "H3456 Fe288 C2016 S576 N144"
_cell_length_a       77.1276
_cell_length_b       76.8238
_cell_length_c       62.6751
_cell_angle_alpha    82.0995
_cell_angle_beta     82.1016
_cell_angle_gamma    104.227

_space_group_name_H-M_alt    "P 1"
_space_group_IT_number       1

loop_
  _space_group_symop_operation_xyz
  'x, y, z'

loop_
  _atom_site_type_symbol
  _atom_site_label
  _atom_site_symmetry_multiplicity
  _atom_site_fract_x
  _atom_site_fract_y
  _atom_site_fract_z
  _atom_site_occupancy
  H   H1        1.0  0.19176  0.29994  0.02343  1.0000
  H   H2        1.0  0.02936  0.31428  0.02241  1.0000
  Fe  Fe1       1.0  0.10502  0.31030  0.08097  1.0000
  C   C1        1.0  0.00146  0.25510  0.14278  1.0000
  S   S1        1.0  0.12795  0.30118  0.09524  1.0000
  Fe  Fe2       1.0  0.06385  0.30241  0.07617  1.0000
  N   N1        1.0  0.02864  0.29568  0.99921  1.0000
  S   S2        1.0  0.03305  0.28842  0.08571  1.0000
  H   H3        1.0  0.01234  0.22882  0.06219  1.0000
  C   C2        1.0  0.99090  0.24227  0.06541  1.0000
  H   H4        1.0  0.99771  0.27551  0.11819  1.0000
  H   H5        1.0  0.05002  0.31860  0.00364  1.0000
  S   S3        1.0  0.08777  0.29386  0.06037  1.0000
  C   C3        1.0  0.03269  0.28221  0.01642  1.0000
  C   C4        1.0  0.18294  0.31268  0.09397  1.0000
  H   H6        1.0  0.05386  0.27388  0.03134  1.0000
  C   C5        1.0  0.15166  0.31285  0.08994  1.0000
  C   C6        1.0  0.05282  0.28511  0.01879  1.0000
  H   H7        1.0  0.10903  0.31190  0.13577  1.0000
  C   C7        1.0  0.98666  0.25829  0.06977  1.0000
  C   C8        1.0  0.01769  0.27106  0.07603  1.0000
  C   C9        1.0  0.02212  0.25532  0.07093  1.0000
  C   C10       1.0  0.99704  0.27146  0.00585  1.0000
  H   H8        1.0  0.05829  0.29791  0.02478  1.0000
  H   H9        1.0  0.02793  0.26797  0.01372  1.0000
  C   C11       1.0  0.99996  0.27253  0.07501  1.0000
  H   H10       1.0  0.03562  0.25385  0.07175  1.0000
  C   C12       1.0  0.00835  0.29162  0.99954  1.0000
  C   C13       1.0  0.03501  0.31440  0.00498  1.0000
  H   H11       1.0  0.99642  0.28474  0.07854  1.0000
  C   C14       1.0  0.00882  0.24107  0.06563  1.0000
  H   H12       1.0  0.06162  0.28467  0.00343  1.0000
  H   H13       1.0  0.02501  0.28247  0.03266  1.0000
  H   H14       1.0  0.99592  0.26635  0.02356  1.0000
  H   H15       1.0  0.13199  0.31851  0.13959  1.0000
  C   C15       1.0  0.16419  0.30367  0.09686  1.0000
  H   H16       1.0  0.01626  0.26189  0.14046  1.0000
  H   H17       1.0  0.00550  0.29725  0.98343  1.0000
  S   S4        1.0  0.08029  0.31597  0.09978  1.0000
  H   H18       1.0  0.15935  0.28946  0.10463  1.0000
  H   H19       1.0  0.19232  0.30538  0.09947  1.0000
  H   H20       1.0  0.19322  0.30296  0.05082  1.0000
  H   H21       1.0  0.00190  0.29853  0.01169  1.0000
  H   H22       1.0  0.99691  0.24881  0.16029  1.0000
  H   H23       1.0  0.20250  0.31398  0.98941  1.0000
  H   H24       1.0  0.98384  0.30270  0.13231  1.0000
  H   H25       1.0  0.00008  0.24433  0.13252  1.0000
  H   H26       1.0  0.99583  0.28077  0.14487  1.0000
  C   C16       1.0  0.99160  0.26956  0.13559  1.0000
  S   S5        1.0  0.10554  0.31860  0.00251  1.0000
  C   C17       1.0  0.19332  0.31029  0.03421  1.0000
  Fe  Fe3       1.0  0.09444  0.32053  0.03713  1.0000
  H   H27       1.0  0.00247  0.26221  0.99648  1.0000
  H   H28       1.0  0.18136  0.31593  0.03563  1.0000
  H   H29       1.0  0.98578  0.30921  0.27914  1.0000
  H   H30       1.0  0.22589  0.31739  0.99089  1.0000
  H   H31       1.0  0.22271  0.31897  0.02773  1.0000
  C   C18       1.0  0.09341  0.32110  0.98110  1.0000
  C   C19       1.0  0.11924  0.32286  0.14066  1.0000
  C   C20       1.0  0.14388  0.31104  0.93893  1.0000
  S   S6        1.0  0.08942  0.29285  0.84466  1.0000
  H   H32       1.0  0.09177  0.19248  0.87858  1.0000
  S   S7        1.0  0.08245  0.29072  0.89682  1.0000
  H   H33       1.0  0.13846  0.29719  0.93524  1.0000
  Fe  Fe4       1.0  0.10657  0.30259  0.86945  1.0000
  S   S8        1.0  0.13299  0.29574  0.87664  1.0000
  Fe  Fe5       1.0  0.06482  0.28354  0.87176  1.0000
  S   S9        1.0  0.04531  0.25460  0.87941  1.0000
  H   H34       1.0  0.99769  0.19719  0.89341  1.0000
  H   H35       1.0  0.08883  0.30574  0.93327  1.0000
  S   S10       1.0  0.05791  0.31041  0.86755  1.0000
  C   C21       1.0  0.02244  0.24182  0.87947  1.0000
  C   C22       1.0  0.00891  0.24923  0.87195  1.0000
  H   H36       1.0  0.06999  0.20998  0.85326  1.0000
  H   H37       1.0  0.07597  0.20417  0.88825  1.0000
  C   C23       1.0  0.00061  0.21170  0.88744  1.0000
  C   C24       1.0  0.01793  0.22302  0.88743  1.0000
  H   H38       1.0  0.01209  0.26372  0.86575  1.0000
  H   H39       1.0  0.98610  0.23199  0.92222  1.0000
  C   C25       1.0  0.03541  0.27782  0.96831  1.0000
  H   H40       1.0  0.02799  0.21702  0.89351  1.0000
  H   H41       1.0  0.15877  0.31330  0.93759  1.0000
  H   H42       1.0  0.01069  0.23048  0.94140  1.0000
  H   H43       1.0  0.10185  0.30005  0.96652  1.0000
  H   H44       1.0  0.09516  0.20311  0.90153  1.0000
  H   H45       1.0  0.02126  0.27314  0.96559  1.0000
  C   C26       1.0  0.99673  0.22324  0.95033  1.0000
  H   H46       1.0  0.05872  0.22580  0.84213  1.0000
  C   C27       1.0  0.15668  0.30761  0.86923  1.0000
  C   C28       1.0  0.16942  0.30015  0.87871  1.0000
  C   C29       1.0  0.18828  0.30906  0.87357  1.0000
  H   H47       1.0  0.05822  0.22212  0.87075  1.0000
  H   H48       1.0  0.16470  0.28738  0.89016  1.0000
  H   H49       1.0  0.19782  0.30310  0.88101  1.0000
  N   N2        1.0  0.09660  0.23894  0.86762  1.0000
  C   C30       1.0  0.11288  0.25535  0.86010  1.0000
  C   C31       1.0  0.08663  0.24160  0.88888  1.0000
  C   C32       1.0  0.08447  0.23891  0.85065  1.0000
  C   C33       1.0  0.10321  0.22195  0.86988  1.0000
  C   C34       1.0  0.12407  0.25690  0.83720  1.0000
  C   C35       1.0  0.09784  0.24388  0.90740  1.0000
  C   C36       1.0  0.06696  0.22317  0.85483  1.0000
  C   C37       1.0  0.09057  0.20478  0.88551  1.0000
  H   H50       1.0  0.10869  0.26818  0.86020  1.0000
  H   H51       1.0  0.12272  0.25572  0.87160  1.0000
  H   H52       1.0  0.07415  0.23043  0.89556  1.0000
  H   H53       1.0  0.08159  0.25397  0.88608  1.0000
  H   H54       1.0  0.08037  0.25191  0.84852  1.0000
  H   H55       1.0  0.09175  0.23818  0.83436  1.0000
  H   H56       1.0  0.10627  0.21812  0.85354  1.0000
  H   H57       1.0  0.11632  0.22470  0.87608  1.0000
  H   H58       1.0  0.11690  0.26112  0.82404  1.0000
  H   H59       1.0  0.13695  0.26787  0.83524  1.0000
  H   H60       1.0  0.12778  0.24415  0.83489  1.0000
  H   H61       1.0  0.10542  0.23345  0.90959  1.0000
  H   H62       1.0  0.10745  0.25772  0.90445  1.0000
  H   H63       1.0  0.08850  0.24257  0.92306  1.0000
  C   C38       1.0  0.03877  0.29602  0.97673  1.0000
  H   H64       1.0  0.99640  0.22461  0.96776  1.0000
  H   H65       1.0  0.13742  0.31079  0.95591  1.0000
  Fe  Fe6       1.0  0.08332  0.32028  0.84183  1.0000
  C   C39       1.0  0.99125  0.23773  0.87210  1.0000
  C   C40       1.0  0.08747  0.31383  0.94578  1.0000
  H   H66       1.0  0.04435  0.27995  0.95213  1.0000
  Fe  Fe7       1.0  0.07708  0.31812  0.89094  1.0000
  H   H67       1.0  0.03890  0.26707  0.97922  1.0000
  C   C41       1.0  0.98711  0.21877  0.87967  1.0000
  H   H68       1.0  0.99441  0.20869  0.94874  1.0000
  H   H69       1.0  0.14330  0.32236  0.90586  1.0000
  C   C42       1.0  0.09477  0.31055  0.96474  1.0000
  H   H70       1.0  0.05363  0.30103  0.97614  1.0000
  H   H71       1.0  0.03548  0.30580  0.96415  1.0000
  H   H72       1.0  0.98665  0.24663  0.94141  1.0000
  H   H73       1.0  0.12380  0.32097  0.92500  1.0000
  Fe  Fe8       1.0  0.14804  0.48574  0.34521  1.0000
  S   S11       1.0  0.17670  0.49257  0.32666  1.0000
  S   S12       1.0  0.12183  0.47588  0.33229  1.0000
  Fe  Fe9       1.0  0.16018  0.50328  0.38417  1.0000
  S   S13       1.0  0.18948  0.51124  0.36850  1.0000
  S   S14       1.0  0.15255  0.51458  0.41455  1.0000
  Fe  Fe10      1.0  0.17998  0.51967  0.33755  1.0000
  S   S15       1.0  0.19173  0.54696  0.31547  1.0000
  Fe  Fe11      1.0  0.18357  0.48351  0.35948  1.0000
  S   S16       1.0  0.15109  0.51364  0.35368  1.0000
  S   S17       1.0  0.15458  0.47456  0.37760  1.0000
  H   H74       1.0  0.16447  0.48214  0.42603  1.0000
  Fe  Fe12      1.0  0.19390  0.63110  0.36376  1.0000
  S   S18       1.0  0.16411  0.62109  0.37719  1.0000
  S   S19       1.0  0.21036  0.61095  0.36901  1.0000
  Fe  Fe13      1.0  0.16081  0.63736  0.34604  1.0000
  S   S20       1.0  0.13687  0.62232  0.33212  1.0000
  C   C43       1.0  0.18938  0.33121  0.08463  1.0000
  C   C44       1.0  0.09246  0.64374  0.13693  1.0000
  H   H75       1.0  0.07769  0.64263  0.11011  1.0000
  H   H76       1.0  0.15300  0.65248  0.05450  1.0000
  H   H77       1.0  0.09807  0.62773  0.32050  1.0000
  Fe  Fe14      1.0  0.07427  0.45188  0.19281  1.0000
  S   S21       1.0  0.06812  0.44841  0.22938  1.0000
  S   S22       1.0  0.07258  0.47824  0.17306  1.0000
  Fe  Fe15      1.0  0.07773  0.41268  0.19331  1.0000
  S   S23       1.0  0.07195  0.40675  0.23025  1.0000
  S   S24       1.0  0.08030  0.38740  0.17888  1.0000
  Fe  Fe16      1.0  0.05004  0.42107  0.22739  1.0000
  S   S25       1.0  0.02036  0.41199  0.24315  1.0000
  Fe  Fe17      1.0  0.09075  0.43470  0.22865  1.0000
  S   S26       1.0  0.11504  0.44081  0.24622  1.0000
  S   S27       1.0  0.05463  0.42539  0.19086  1.0000
  S   S28       1.0  0.09809  0.43974  0.19176  1.0000
  Fe  Fe18      1.0  0.10754  0.61269  0.21924  1.0000
  S   S29       1.0  0.11504  0.60039  0.18988  1.0000
  S   S30       1.0  0.12967  0.63186  0.23184  1.0000
  Fe  Fe19      1.0  0.06705  0.59496  0.22238  1.0000
  S   S31       1.0  0.07154  0.58094  0.19395  1.0000
  S   S32       1.0  0.03837  0.59275  0.23792  1.0000
  Fe  Fe20      1.0  0.09466  0.57474  0.20871  1.0000
  S   S33       1.0  0.10087  0.54751  0.21628  1.0000
  Fe  Fe21      1.0  0.09113  0.60797  0.17789  1.0000
  S   S34       1.0  0.08799  0.61974  0.14377  1.0000
  S   S35       1.0  0.08857  0.58671  0.23879  1.0000
  S   S36       1.0  0.08524  0.62228  0.20567  1.0000
  C   C45       1.0  0.12176  0.34091  0.12476  1.0000
  C   C46       1.0  0.16465  0.48931  0.43974  1.0000
  H   H78       1.0  0.13144  0.35167  0.16587  1.0000
  C   C47       1.0  0.00298  0.53412  0.24797  1.0000
  C   C48       1.0  0.99506  0.54866  0.24596  1.0000
  C   C49       1.0  0.00593  0.56667  0.24339  1.0000
  C   C50       1.0  0.02480  0.57017  0.24203  1.0000
  C   C51       1.0  0.03277  0.55564  0.24340  1.0000
  C   C52       1.0  0.02183  0.53763  0.24678  1.0000
  H   H79       1.0  0.17710  0.35331  0.02161  1.0000
  H   H80       1.0  0.99974  0.57788  0.24234  1.0000
  H   H81       1.0  0.04733  0.55826  0.24230  1.0000
  H   H82       1.0  0.02801  0.52642  0.24836  1.0000
  C   C53       1.0  0.07990  0.49753  0.18524  1.0000
  C   C54       1.0  0.08915  0.49639  0.20282  1.0000
  C   C55       1.0  0.09508  0.51176  0.21237  1.0000
  C   C56       1.0  0.09197  0.52847  0.20439  1.0000
  C   C57       1.0  0.08244  0.52963  0.18700  1.0000
  C   C58       1.0  0.07646  0.51417  0.17740  1.0000
  H   H83       1.0  0.09216  0.48378  0.20876  1.0000
  H   H84       1.0  0.10228  0.51070  0.22586  1.0000
  H   H85       1.0  0.08004  0.54249  0.18069  1.0000
  H   H86       1.0  0.06935  0.51514  0.16375  1.0000
  C   C59       1.0  0.08140  0.38292  0.15182  1.0000
  C   C60       1.0  0.07921  0.36479  0.14872  1.0000
  C   C61       1.0  0.08034  0.36041  0.12758  1.0000
  H   H87       1.0  0.06178  0.60366  0.26862  1.0000
  C   C62       1.0  0.08606  0.39235  0.11232  1.0000
  C   C63       1.0  0.08462  0.39670  0.13353  1.0000
  H   H88       1.0  0.07652  0.35402  0.16280  1.0000
  H   H89       1.0  0.07830  0.34637  0.12551  1.0000
  H   H90       1.0  0.08634  0.41072  0.13571  1.0000
  H   H91       1.0  0.04527  0.62240  0.17122  1.0000
  H   H92       1.0  0.99267  0.33846  0.29563  1.0000
  H   H93       1.0  0.00029  0.64561  0.99942  1.0000
  C   C64       1.0  0.00881  0.39214  0.23461  1.0000
  C   C65       1.0  0.01810  0.37952  0.22874  1.0000
  C   C66       1.0  0.00877  0.36345  0.22255  1.0000
  H   H94       1.0  0.10207  0.50095  0.30186  1.0000
  H   H95       1.0  0.19855  0.37054  0.01306  1.0000
  H   H96       1.0  0.03243  0.38201  0.22939  1.0000
  H   H97       1.0  0.01601  0.35359  0.21852  1.0000
  C   C67       1.0  0.08413  0.37422  0.10923  1.0000
  C   C68       1.0  0.13656  0.62421  0.30379  1.0000
  C   C69       1.0  0.14802  0.63898  0.28861  1.0000
  C   C70       1.0  0.14614  0.64088  0.26644  1.0000
  C   C71       1.0  0.13296  0.62795  0.25927  1.0000
  C   C72       1.0  0.12197  0.61283  0.27434  1.0000
  C   C73       1.0  0.12365  0.61107  0.29654  1.0000
  H   H98       1.0  0.09084  0.64914  0.06074  1.0000
  H   H99       1.0  0.04738  0.40873  0.12438  1.0000
  H   H100      1.0  0.11191  0.60271  0.26898  1.0000
  H   H101      1.0  0.11472  0.59962  0.30819  1.0000
  H   H102      1.0  0.18150  0.35480  0.07093  1.0000
  C   C74       1.0  0.02198  0.49572  0.18450  1.0000
  H   H103      1.0  0.99253  0.48073  0.23264  1.0000
  C   C75       1.0  0.03245  0.35009  0.17141  1.0000
  C   C76       1.0  0.11081  0.57675  0.35906  1.0000
  C   C77       1.0  0.19607  0.56486  0.33037  1.0000
  C   C78       1.0  0.19458  0.56109  0.35312  1.0000
  C   C79       1.0  0.19924  0.57530  0.36485  1.0000
  C   C80       1.0  0.20456  0.59343  0.35401  1.0000
  C   C81       1.0  0.20558  0.59733  0.33133  1.0000
  C   C82       1.0  0.20161  0.58303  0.31947  1.0000
  H   H104      1.0  0.19003  0.54724  0.36174  1.0000
  C   C83       1.0  0.19248  0.60009  0.47806  1.0000
  H   H105      1.0  0.20972  0.61137  0.32289  1.0000
  H   H106      1.0  0.20274  0.58606  0.30187  1.0000
  C   C84       1.0  0.12013  0.46582  0.30858  1.0000
  C   C85       1.0  0.13503  0.46188  0.29681  1.0000
  C   C86       1.0  0.13321  0.45425  0.27775  1.0000
  C   C87       1.0  0.11655  0.45057  0.27020  1.0000
  C   C88       1.0  0.10170  0.45469  0.28185  1.0000
  C   C89       1.0  0.10348  0.46218  0.30101  1.0000
  H   H107      1.0  0.14792  0.46461  0.30243  1.0000
  H   H108      1.0  0.14475  0.45109  0.26884  1.0000
  H   H109      1.0  0.08881  0.45189  0.27623  1.0000
  H   H110      1.0  0.09187  0.46514  0.31003  1.0000
  C   C90       1.0  0.15934  0.50550  0.43843  1.0000
  S   S37       1.0  0.21268  0.34382  0.08158  1.0000
  C   C91       1.0  0.99291  0.38379  0.15829  1.0000
  N   N3        1.0  0.13366  0.35779  0.13044  1.0000
  C   C92       1.0  0.08596  0.65145  0.11905  1.0000
  C   C93       1.0  0.13309  0.37399  0.11417  1.0000
  C   C94       1.0  0.12591  0.35949  0.15342  1.0000
  C   C95       1.0  0.15258  0.35540  0.12925  1.0000
  C   C96       1.0  0.13918  0.37352  0.08982  1.0000
  C   C97       1.0  0.12833  0.37892  0.15874  1.0000
  C   C98       1.0  0.16758  0.37201  0.13162  1.0000
  C   C99       1.0  0.03028  0.33013  0.99082  1.0000
  C   C100      1.0  0.03041  0.59789  0.16114  1.0000
  H   H111      1.0  0.14155  0.38695  0.11740  1.0000
  H   H112      1.0  0.11904  0.37557  0.11591  1.0000
  H   H113      1.0  0.00676  0.34613  0.16002  1.0000
  H   H114      1.0  0.02623  0.39141  0.17140  1.0000
  H   H115      1.0  0.12921  0.36308  0.08392  1.0000
  H   H116      1.0  0.13966  0.38685  0.07992  1.0000
  H   H117      1.0  0.15293  0.37143  0.08643  1.0000
  H   H118      1.0  0.11981  0.38622  0.15011  1.0000
  H   H119      1.0  0.14256  0.38737  0.15485  1.0000
  H   H120      1.0  0.16931  0.38393  0.11859  1.0000
  H   H121      1.0  0.18075  0.36838  0.12988  1.0000
  H   H122      1.0  0.16524  0.37569  0.14801  1.0000
  H   H123      1.0  0.03257  0.45388  0.18428  1.0000
  H   H124      1.0  0.15495  0.52691  0.45564  1.0000
  H   H125      1.0  0.16041  0.64293  0.09061  1.0000
  H   H126      1.0  0.13764  0.59045  0.36341  1.0000
  H   H127      1.0  0.03526  0.35320  0.10301  1.0000
  H   H128      1.0  0.12295  0.57729  0.38752  1.0000
  H   H129      1.0  0.03792  0.58029  0.12588  1.0000
  C   C101      1.0  0.16470  0.50744  0.47565  1.0000
  C   C102      1.0  0.01189  0.57142  0.14932  1.0000
  H   H130      1.0  0.01481  0.43881  0.20434  1.0000
  C   C103      1.0  0.19212  0.35571  0.01882  1.0000
  H   H131      1.0  0.12723  0.33849  0.10840  1.0000
  H   H132      1.0  0.22908  0.56081  0.34130  1.0000
  H   H133      1.0  0.13636  0.63657  0.09250  1.0000
  N   N4        1.0  0.01935  0.47718  0.22330  1.0000
  C   C104      1.0  0.02417  0.48030  0.24532  1.0000
  C   C105      1.0  0.99892  0.47042  0.22655  1.0000
  C   C106      1.0  0.02565  0.49540  0.20807  1.0000
  C   C107      1.0  0.02884  0.46371  0.21519  1.0000
  C   C108      1.0  0.04441  0.48927  0.24555  1.0000
  H   H134      1.0  0.03532  0.34294  0.99710  1.0000
  H   H135      1.0  0.04339  0.59706  0.15162  1.0000
  H   H136      1.0  0.09456  0.62815  0.25588  1.0000
  H   H137      1.0  0.01618  0.48895  0.25274  1.0000
  H   H138      1.0  0.02051  0.46716  0.25706  1.0000
  H   H139      1.0  0.99989  0.39659  0.16333  1.0000
  H   H140      1.0  0.12183  0.64460  0.05521  1.0000
  H   H141      1.0  0.01943  0.50549  0.21513  1.0000
  H   H142      1.0  0.04061  0.50105  0.20608  1.0000
  H   H143      1.0  0.04344  0.47058  0.20876  1.0000
  H   H144      1.0  0.02877  0.45294  0.22908  1.0000
  H   H145      1.0  0.04656  0.48836  0.26278  1.0000
  H   H146      1.0  0.05365  0.48237  0.23713  1.0000
  H   H147      1.0  0.04845  0.50403  0.23836  1.0000
  H   H148      1.0  0.99844  0.60741  0.17151  1.0000
  H   H149      1.0  0.00401  0.58334  0.19977  1.0000
  H   H150      1.0  0.99067  0.56609  0.18827  1.0000
  H   H151      1.0  0.13117  0.53394  0.38510  1.0000
  H   H152      1.0  0.02656  0.51007  0.17569  1.0000
  H   H153      1.0  0.03015  0.48815  0.17542  1.0000
  C   C109      1.0  0.20990  0.49311  0.41377  1.0000
  C   C110      1.0  0.99020  0.38875  0.23380  1.0000
  H   H154      1.0  0.99115  0.51280  0.15220  1.0000
  C   C111      1.0  0.12956  0.53649  0.25248  1.0000
  C   C112      1.0  0.13134  0.55508  0.25995  1.0000
  C   C113      1.0  0.13683  0.50215  0.23727  1.0000
  H   H155      1.0  0.16222  0.53107  0.24539  1.0000
  H   H156      1.0  0.11516  0.53111  0.25077  1.0000
  H   H157      1.0  0.13722  0.53948  0.23539  1.0000
  H   H158      1.0  0.13138  0.49326  0.27218  1.0000
  H   H159      1.0  0.14547  0.56175  0.26149  1.0000
  H   H160      1.0  0.12739  0.56438  0.24743  1.0000
  H   H161      1.0  0.12198  0.55382  0.27553  1.0000
  H   H162      1.0  0.15152  0.50296  0.23545  1.0000
  H   H163      1.0  0.13453  0.51232  0.22438  1.0000
  H   H164      1.0  0.10385  0.52234  0.31146  1.0000
  C   C114      1.0  0.14913  0.56456  0.40337  1.0000
  H   H165      1.0  0.11368  0.57627  0.34138  1.0000
  H   H166      1.0  0.14887  0.33853  0.07446  1.0000
  C   C115      1.0  0.15747  0.60030  0.45255  1.0000
  C   C116      1.0  0.19780  0.34457  0.00176  1.0000
  H   H167      1.0  0.11091  0.35331  0.15721  1.0000
  C   C117      1.0  0.16979  0.48213  0.45900  1.0000
  C   C118      1.0  0.01667  0.54690  0.18857  1.0000
  H   H168      1.0  0.04629  0.38750  0.15851  1.0000
  N   N5        1.0  0.13580  0.52258  0.26669  1.0000
  C   C119      1.0  0.12890  0.50418  0.26048  1.0000
  H   H169      1.0  0.10064  0.52091  0.28429  1.0000
  H   H170      1.0  0.22717  0.46379  0.31066  1.0000
  C   C120      1.0  0.00068  0.57977  0.18392  1.0000
  H   H171      1.0  0.20491  0.47509  0.44420  1.0000
  H   H172      1.0  0.00374  0.54487  0.20000  1.0000
  C   C121      1.0  0.10760  0.51601  0.29723  1.0000
  C   C122      1.0  0.12852  0.52124  0.29060  1.0000
  H   H173      1.0  0.01265  0.35462  0.11141  1.0000
  H   H174      1.0  0.12348  0.37791  0.17653  1.0000
  H   H175      1.0  0.21157  0.50187  0.45899  1.0000
  C   C123      1.0  0.15629  0.52841  0.26313  1.0000
  H   H176      1.0  0.16117  0.54162  0.26869  1.0000
  H   H177      1.0  0.12988  0.48841  0.23433  1.0000
  C   C124      1.0  0.18813  0.65260  0.47778  1.0000
  H   H178      1.0  0.07389  0.63266  0.25095  1.0000
  H   H179      1.0  0.14890  0.58672  0.45124  1.0000
  C   C125      1.0  0.16672  0.64952  0.44493  1.0000
  H   H180      1.0  0.16614  0.61580  0.47708  1.0000
  H   H181      1.0  0.11384  0.50057  0.26176  1.0000
  H   H182      1.0  0.13453  0.53389  0.29677  1.0000
  H   H183      1.0  0.13947  0.55166  0.41253  1.0000
  H   H184      1.0  0.03973  0.34527  0.15790  1.0000
  H   H185      1.0  0.99399  0.46879  0.21105  1.0000
  C   C126      1.0  0.02714  0.56763  0.13345  1.0000
  H   H186      1.0  0.17019  0.60399  0.44045  1.0000
  C   C127      1.0  0.16069  0.60117  0.47620  1.0000
  H   H187      1.0  0.16972  0.57227  0.46073  1.0000
  H   H188      1.0  0.19978  0.61481  0.44400  1.0000
  C   C128      1.0  0.23129  0.35218  0.00028  1.0000
  H   H189      1.0  0.18557  0.33356  0.00089  1.0000
  H   H190      1.0  0.08892  0.40313  0.09821  1.0000
  H   H191      1.0  0.13285  0.51055  0.30072  1.0000
  H   H192      1.0  0.04262  0.64825  0.30867  1.0000
  H   H193      1.0  0.22140  0.53979  0.37158  1.0000
  H   H194      1.0  0.08526  0.61082  0.29148  1.0000
  H   H195      1.0  0.19539  0.59043  0.44596  1.0000
  H   H196      1.0  0.16619  0.58624  0.33657  1.0000
  C   C129      1.0  0.16538  0.51509  0.27505  1.0000
  H   H197      1.0  0.11459  0.54510  0.39366  1.0000
  H   H198      1.0  0.98404  0.50378  0.07638  1.0000
  H   H199      1.0  0.02667  0.33817  0.18489  1.0000
  C   C130      1.0  0.02115  0.45349  0.19740  1.0000
  S   S38       1.0  0.19068  0.64571  0.33152  1.0000
  H   H200      1.0  0.99637  0.36571  0.13601  1.0000
  H   H201      1.0  0.10809  0.64950  0.16229  1.0000
  S   S39       1.0  0.06980  0.32838  0.05157  1.0000
  H   H202      1.0  0.18037  0.52048  0.27021  1.0000
  C   C131      1.0  0.99028  0.45217  0.24248  1.0000
  C   C132      1.0  0.99291  0.33832  0.27796  1.0000
  H   H203      1.0  0.00899  0.64729  0.03308  1.0000
  H   H204      1.0  0.98519  0.58946  0.15975  1.0000
  H   H205      1.0  0.04720  0.37037  0.13012  1.0000
  H   H206      1.0  0.16165  0.50129  0.27076  1.0000
  H   H207      1.0  0.14622  0.58930  0.32634  1.0000
  H   H208      1.0  0.16005  0.57698  0.31334  1.0000
  C   C133      1.0  0.15446  0.57960  0.32953  1.0000
  H   H209      1.0  0.03197  0.64590  0.02393  1.0000
  H   H210      1.0  0.19833  0.57224  0.38241  1.0000
  H   H211      1.0  0.16232  0.51407  0.29305  1.0000
  H   H212      1.0  0.18918  0.64328  0.42611  1.0000
  C   C134      1.0  0.03601  0.60884  0.17913  1.0000
  C   C135      1.0  0.23138  0.54634  0.38116  1.0000
  H   H213      1.0  0.00714  0.33920  0.27065  1.0000
  C   C136      1.0  0.01680  0.35752  0.16453  1.0000
  H   H214      1.0  0.99063  0.45387  0.25972  1.0000
  N   N6        1.0  0.02221  0.37414  0.14673  1.0000
  C   C137      1.0  0.03359  0.37107  0.12678  1.0000
  H   H215      1.0  0.11874  0.52685  0.35313  1.0000
  H   H216      1.0  0.01394  0.54002  0.17450  1.0000
  H   H217      1.0  0.15286  0.34403  0.14216  1.0000
  H   H218      1.0  0.00738  0.49070  0.18374  1.0000
  Fe  Fe22      1.0  0.08710  0.34136  0.07443  1.0000
  H   H219      1.0  0.10952  0.65089  0.31988  1.0000
  C   C138      1.0  0.05780  0.60559  0.28562  1.0000
  H   H220      1.0  0.02431  0.61134  0.18942  1.0000
  H   H221      1.0  0.22699  0.51892  0.43827  1.0000
  H   H222      1.0  0.02989  0.57233  0.19676  1.0000
  C   C139      1.0  0.15922  0.51448  0.45650  1.0000
  H   H223      1.0  0.15066  0.55117  0.34238  1.0000
  C   C140      1.0  0.14270  0.56138  0.34369  1.0000
  C   C141      1.0  0.15821  0.33124  0.07998  1.0000
  H   H224      1.0  0.09905  0.56528  0.36748  1.0000
  S   S40       1.0  0.20462  0.46863  0.36595  1.0000
  H   H225      1.0  0.00841  0.38870  0.12549  1.0000
  C   C142      1.0  0.17681  0.34041  0.07785  1.0000
  H   H226      1.0  0.98992  0.35073  0.26978  1.0000
  H   H227      1.0  0.04377  0.60217  0.18968  1.0000
  H   H228      1.0  0.17347  0.46938  0.46008  1.0000
  H   H229      1.0  0.04059  0.56813  0.17199  1.0000
  C   C143      1.0  0.11088  0.53252  0.36527  1.0000
  C   C144      1.0  0.02541  0.35396  0.11736  1.0000
  H   H230      1.0  0.02637  0.41315  0.13625  1.0000
  S   S41       1.0  0.08702  0.36945  0.08231  1.0000
  H   H231      1.0  0.13121  0.55705  0.33501  1.0000
  H   H232      1.0  0.04585  0.61121  0.28682  1.0000
  H   H233      1.0  0.02302  0.34112  0.12917  1.0000
  H   H234      1.0  0.01134  0.45897  0.18924  1.0000
  H   H235      1.0  0.16011  0.55444  0.37577  1.0000
  H   H236      1.0  0.19534  0.35175  0.03506  1.0000
  C   C145      1.0  0.15990  0.65330  0.46522  1.0000
  H   H237      1.0  0.11383  0.64737  0.08219  1.0000
  H   H238      1.0  0.21563  0.60284  0.45255  1.0000
  C   C146      1.0  0.22653  0.48363  0.35879  1.0000
  H   H239      1.0  0.14977  0.61025  0.44782  1.0000
  H   H240      1.0  0.03636  0.38281  0.11310  1.0000
  C   C147      1.0  0.22620  0.50709  0.45115  1.0000
  S   S42       1.0  0.98962  0.51144  0.25239  1.0000
  H   H241      1.0  0.06997  0.61573  0.31171  1.0000
  H   H242      1.0  0.21957  0.50143  0.33368  1.0000
  H   H243      1.0  0.10678  0.58954  0.36043  1.0000
  C   C148      1.0  0.22170  0.46832  0.47662  1.0000
  H   H244      1.0  0.16216  0.56552  0.40944  1.0000
  C   C149      1.0  0.02703  0.56729  0.18148  1.0000
  N   N7        1.0  0.21379  0.33703  0.00463  1.0000
  H   H245      1.0  0.04632  0.41911  0.14792  1.0000
  H   H246      1.0  0.00609  0.58088  0.13929  1.0000
  H   H247      1.0  0.11411  0.32347  0.15787  1.0000
  C   C150      1.0  0.20095  0.60211  0.45375  1.0000
  H   H248      1.0  0.03329  0.55741  0.14137  1.0000
  C   C151      1.0  0.21700  0.48188  0.43130  1.0000
  H   H249      1.0  0.09937  0.65490  0.22727  1.0000
  H   H250      1.0  0.10101  0.52065  0.37639  1.0000
  C   C152      1.0  0.03323  0.38995  0.15523  1.0000
  H   H251      1.0  0.05343  0.59175  0.29588  1.0000
  H   H252      1.0  0.04231  0.36026  0.17782  1.0000
  C   C153      1.0  0.06570  0.64690  0.28541  1.0000
  C   C154      1.0  0.00515  0.37801  0.14046  1.0000
  H   H253      1.0  0.02516  0.53984  0.19756  1.0000
  C   C155      1.0  0.12751  0.57706  0.36998  1.0000
  N   N8        1.0  0.13620  0.56174  0.36748  1.0000
  H   H254      1.0  0.19797  0.48394  0.40916  1.0000
  C   C156      1.0  0.07394  0.61739  0.29374  1.0000
  H   H255      1.0  0.16248  0.57840  0.37131  1.0000
  S   S43       1.0  0.11253  0.33642  0.05698  1.0000
  C   C157      1.0  0.02362  0.65482  0.02948  1.0000
  C   C158      1.0  0.15271  0.56494  0.37841  1.0000
  C   C159      1.0  0.12342  0.54348  0.37885  1.0000
  H   H256      1.0  0.10300  0.54049  0.35665  1.0000
  H   H257      1.0  0.02122  0.56192  0.11988  1.0000
  H   H258      1.0  0.99680  0.44133  0.23872  1.0000
  H   H259      1.0  0.10801  0.34263  0.12360  1.0000
  H   H260      1.0  0.14445  0.57644  0.40743  1.0000
  H   H261      1.0  0.02476  0.60642  0.14961  1.0000
  N   N9        1.0  0.01750  0.57910  0.16896  1.0000
  C   C160      1.0  0.18402  0.64671  0.44141  1.0000
  H   H262      1.0  0.00971  0.36051  0.17959  1.0000
  H   H263      1.0  0.00078  0.55854  0.15443  1.0000
  C   C161      1.0  0.99022  0.59299  0.17476  1.0000
  H   H264      1.0  0.15702  0.35129  0.11353  1.0000
  H   H265      1.0  0.15798  0.64921  0.29404  1.0000
  C   C162      1.0  0.21134  0.32547  0.02691  1.0000
  H   H266      1.0  0.05479  0.64189  0.27601  1.0000
  C   C163      1.0  0.03841  0.40865  0.13983  1.0000
  H   H267      1.0  0.08531  0.64389  0.32654  1.0000
  H   H268      1.0  0.14748  0.65612  0.10358  1.0000
  C   C164      1.0  0.17008  0.49130  0.47686  1.0000
  C   C165      1.0  0.19473  0.64839  0.45772  1.0000
  H   H269      1.0  0.15472  0.65261  0.25486  1.0000
  Fe  Fe23      1.0  0.16776  0.64694  0.39073  1.0000
  H   H270      1.0  0.98564  0.51727  0.09735  1.0000
  H   H271      1.0  0.10938  0.64393  0.28303  1.0000
  H   H272      1.0  0.20052  0.35378  0.98566  1.0000
  H   H273      1.0  0.20513  0.50429  0.41992  1.0000
  H   H274      1.0  0.05470  0.63404  0.32039  1.0000
  C   C166      1.0  0.08597  0.63763  0.25859  1.0000
  C   C167      1.0  0.99028  0.36019  0.22131  1.0000
  H   H275      1.0  0.21209  0.33368  0.04006  1.0000
  H   H276      1.0  0.01544  0.32796  0.99163  1.0000
  C   C168      1.0  0.21542  0.32477  0.98797  1.0000
  H   H277      1.0  0.99368  0.50205  0.12899  1.0000
  N   N10       1.0  0.08042  0.63718  0.28280  1.0000
  H   H278      1.0  0.22094  0.47069  0.42390  1.0000
  C   C169      1.0  0.16806  0.57145  0.47869  1.0000
  C   C170      1.0  0.23023  0.49889  0.34222  1.0000
  H   H279      1.0  0.20823  0.64648  0.45476  1.0000
  H   H280      1.0  0.22775  0.55846  0.38615  1.0000
  S   S44       1.0  0.15354  0.64839  0.42418  1.0000
  H   H281      1.0  0.14642  0.65531  0.46808  1.0000
  C   C171      1.0  0.11910  0.65495  0.06511  1.0000
  H   H282      1.0  0.98748  0.37288  0.17292  1.0000
  C   C172      1.0  0.05661  0.64689  0.30891  1.0000
  H   H283      1.0  0.03115  0.64665  0.98884  1.0000
  H   H284      1.0  0.22999  0.53632  0.39626  1.0000
  N   N11       1.0  0.23235  0.49239  0.44100  1.0000
  H   H285      1.0  0.21997  0.49855  0.39845  1.0000
  C   C173      1.0  0.09695  0.64682  0.29131  1.0000
  C   C174      1.0  0.09711  0.64191  0.31600  1.0000
  C   C175      1.0  0.14844  0.64847  0.08986  1.0000
  H   H286      1.0  0.08365  0.34324  0.99098  1.0000
  S   S45       1.0  0.19796  0.65566  0.38004  1.0000
  H   H287      1.0  0.22545  0.36830  0.02601  1.0000
  C   C176      1.0  0.10295  0.65527  0.14854  1.0000
  C   C177      1.0  0.98413  0.50189  0.14397  1.0000
  H   H288      1.0  0.21173  0.45734  0.47145  1.0000
  H   H289      1.0  0.23150  0.36275  0.98610  1.0000
  H   H290      1.0  0.17634  0.54641  0.47881  1.0000
  Fe  Fe24      1.0  0.19574  0.53435  0.54277  1.0000
  S   S46       1.0  0.16806  0.51848  0.53891  1.0000
  S   S47       1.0  0.20576  0.56428  0.52799  1.0000
  H   H291      1.0  0.08926  0.44138  0.52439  1.0000
  S   S48       1.0  0.17797  0.48210  0.56196  1.0000
  Fe  Fe25      1.0  0.18188  0.49799  0.52793  1.0000
  C   C178      1.0  0.13453  0.43940  0.55519  1.0000
  Fe  Fe26      1.0  0.16627  0.50400  0.57328  1.0000
  S   S49       1.0  0.13889  0.49989  0.59494  1.0000
  H   H292      1.0  0.21445  0.47735  0.48418  1.0000
  S   S50       1.0  0.19313  0.52143  0.57790  1.0000
  Fe  Fe27      1.0  0.20151  0.64406  0.57543  1.0000
  S   S51       1.0  0.17812  0.63574  0.55830  1.0000
  S   S52       1.0  0.21184  0.62174  0.59174  1.0000
  N   N12       1.0  0.14283  0.60092  0.65933  1.0000
  C   C179      1.0  0.12046  0.35434  0.90637  1.0000
  H   H293      1.0  0.22109  0.32371  0.95329  1.0000
  S   S53       1.0  0.20975  0.51506  0.52867  1.0000
  H   H294      1.0  0.98734  0.45349  0.68875  1.0000
  H   H295      1.0  0.06703  0.50103  0.66541  1.0000
  Fe  Fe28      1.0  0.08435  0.44452  0.70851  1.0000
  S   S54       1.0  0.08314  0.45113  0.74259  1.0000
  S   S55       1.0  0.11197  0.44761  0.68792  1.0000
  Fe  Fe29      1.0  0.04338  0.43111  0.71378  1.0000
  S   S56       1.0  0.03919  0.43631  0.74798  1.0000
  S   S57       1.0  0.01812  0.42406  0.69893  1.0000
  Fe  Fe30      1.0  0.06027  0.46283  0.73508  1.0000
  S   S58       1.0  0.05133  0.48634  0.74657  1.0000
  Fe  Fe31      1.0  0.06217  0.42403  0.75275  1.0000
  S   S59       1.0  0.05944  0.40692  0.78623  1.0000
  S   S60       1.0  0.06310  0.45850  0.70025  1.0000
  S   S61       1.0  0.06476  0.41641  0.71930  1.0000
  H   H296      1.0  0.11244  0.34025  0.90640  1.0000
  Fe  Fe32      1.0  0.09427  0.62979  0.71303  1.0000
  S   S62       1.0  0.10429  0.61606  0.74104  1.0000
  C   C180      1.0  0.13139  0.64870  0.61770  1.0000
  Fe  Fe33      1.0  0.05560  0.60510  0.72780  1.0000
  S   S63       1.0  0.06289  0.58930  0.75636  1.0000
  S   S64       1.0  0.02674  0.59958  0.72154  1.0000
  Fe  Fe34      1.0  0.07836  0.61688  0.76181  1.0000
  S   S65       1.0  0.07233  0.62313  0.79611  1.0000
  Fe  Fe35      1.0  0.08796  0.59007  0.73283  1.0000
  S   S66       1.0  0.10120  0.56766  0.72611  1.0000
  S   S67       1.0  0.06953  0.63265  0.73443  1.0000
  S   S68       1.0  0.07945  0.60385  0.70368  1.0000
  S   S69       1.0  0.08461  0.33462  0.80715  1.0000
  C   C181      1.0  0.01391  0.35272  0.83616  1.0000
  C   C182      1.0  0.01528  0.57658  0.72241  1.0000
  C   C183      1.0  0.02252  0.56249  0.73032  1.0000
  C   C184      1.0  0.01340  0.54426  0.73033  1.0000
  C   C185      1.0  0.13877  0.39769  0.77050  1.0000
  H   H297      1.0  0.03521  0.56564  0.73630  1.0000
  C   C186      1.0  0.06594  0.50857  0.74197  1.0000
  C   C187      1.0  0.08381  0.51277  0.73064  1.0000
  C   C188      1.0  0.09466  0.53093  0.72618  1.0000
  C   C189      1.0  0.08766  0.54493  0.73292  1.0000
  C   C190      1.0  0.06990  0.54065  0.74447  1.0000
  C   C191      1.0  0.05911  0.52252  0.74904  1.0000
  H   H298      1.0  0.08919  0.50206  0.72520  1.0000
  H   H299      1.0  0.10845  0.53417  0.71734  1.0000
  H   H300      1.0  0.06442  0.55131  0.74982  1.0000
  H   H301      1.0  0.04530  0.51934  0.75785  1.0000
  C   C192      1.0  0.06659  0.38688  0.79157  1.0000
  C   C193      1.0  0.07173  0.37793  0.77481  1.0000
  C   C194      1.0  0.07731  0.36195  0.77982  1.0000
  C   C195      1.0  0.07753  0.35469  0.80160  1.0000
  C   C196      1.0  0.07215  0.36352  0.81836  1.0000
  C   C197      1.0  0.06675  0.37959  0.81333  1.0000
  H   H302      1.0  0.07139  0.38331  0.75803  1.0000
  H   H303      1.0  0.08137  0.35509  0.76680  1.0000
  H   H304      1.0  0.07224  0.35803  0.83519  1.0000
  H   H305      1.0  0.06269  0.38641  0.82640  1.0000
  H   H306      1.0  0.99935  0.36874  0.62506  1.0000
  C   C198      1.0  0.99857  0.36961  0.72068  1.0000
  C   C199      1.0  0.01024  0.38737  0.71526  1.0000
  C   C200      1.0  0.00359  0.40196  0.70759  1.0000
  H   H307      1.0  0.03710  0.33259  0.97350  1.0000
  H   H308      1.0  0.03584  0.63508  0.80317  1.0000
  H   H309      1.0  0.00390  0.35822  0.72572  1.0000
  H   H310      1.0  0.02449  0.38971  0.71633  1.0000
  H   H311      1.0  0.20809  0.58290  0.59992  1.0000
  H   H312      1.0  0.14224  0.45420  0.71378  1.0000
  H   H313      1.0  0.01911  0.53345  0.73647  1.0000
  C   C201      1.0  0.11214  0.42276  0.79245  1.0000
  H   H314      1.0  0.13863  0.34916  0.97938  1.0000
  H   H315      1.0  0.01797  0.33029  0.80327  1.0000
  C   C202      1.0  0.10930  0.63935  0.65183  1.0000
  H   H316      1.0  0.16458  0.51435  0.48955  1.0000
  C   C203      1.0  0.03140  0.34074  0.76970  1.0000
  H   H317      1.0  0.11401  0.45097  0.61124  1.0000
  H   H318      1.0  0.17376  0.33247  0.89871  1.0000
  H   H319      1.0  0.15341  0.56433  0.48484  1.0000
  H   H320      1.0  0.06534  0.63747  0.83519  1.0000
  H   H321      1.0  0.12211  0.43454  0.59841  1.0000
  S   S70       1.0  0.22660  0.48827  0.57406  1.0000
  H   H322      1.0  0.10734  0.57609  0.67598  1.0000
  H   H323      1.0  0.00473  0.60123  0.76356  1.0000
  C   C204      1.0  0.08440  0.33479  0.97861  1.0000
  C   C205      1.0  0.12496  0.48576  0.53423  1.0000
  C   C206      1.0  0.12095  0.65131  0.66189  1.0000
  C   C207      1.0  0.13199  0.48572  0.62103  1.0000
  C   C208      1.0  0.11486  0.48442  0.63319  1.0000
  C   C209      1.0  0.10858  0.47285  0.65371  1.0000
  C   C210      1.0  0.11940  0.46243  0.66224  1.0000
  C   C211      1.0  0.13653  0.46370  0.65006  1.0000
  C   C212      1.0  0.14283  0.47530  0.62952  1.0000
  H   H324      1.0  0.10639  0.49240  0.62669  1.0000
  H   H325      1.0  0.09540  0.47201  0.66290  1.0000
  H   H326      1.0  0.14498  0.45568  0.65653  1.0000
  H   H327      1.0  0.15603  0.47616  0.62028  1.0000
  C   C213      1.0  0.20830  0.57998  0.54607  1.0000
  C   C214      1.0  0.20734  0.57439  0.56853  1.0000
  C   C215      1.0  0.20898  0.58729  0.58256  1.0000
  C   C216      1.0  0.21117  0.60572  0.57419  1.0000
  C   C217      1.0  0.16827  0.58720  0.50981  1.0000
  H   H328      1.0  0.12465  0.49262  0.54870  1.0000
  H   H329      1.0  0.20538  0.56018  0.57510  1.0000
  H   H330      1.0  0.01213  0.57376  0.79920  1.0000
  H   H331      1.0  0.21422  0.62553  0.54506  1.0000
  C   C218      1.0  0.99700  0.54001  0.72241  1.0000
  N   N13       1.0  0.01243  0.35661  0.79473  1.0000
  C   C219      1.0  0.01565  0.36566  0.81431  1.0000
  C   C220      1.0  0.01744  0.37147  0.77474  1.0000
  N   N14       1.0  0.14618  0.34483  0.92365  1.0000
  C   C221      1.0  0.14756  0.34767  0.96461  1.0000
  H   H332      1.0  0.21008  0.34089  0.95857  1.0000
  H   H333      1.0  0.01121  0.39553  0.75886  1.0000
  H   H334      1.0  0.10536  0.62897  0.62204  1.0000
  C   C222      1.0  0.99262  0.34614  0.79862  1.0000
  H   H335      1.0  0.02943  0.37538  0.81111  1.0000
  H   H336      1.0  0.00598  0.37400  0.81758  1.0000
  H   H337      1.0  0.14806  0.37065  0.90316  1.0000
  H   H338      1.0  0.10924  0.42320  0.72762  1.0000
  H   H339      1.0  0.99287  0.58315  0.70915  1.0000
  H   H340      1.0  0.09888  0.57915  0.65097  1.0000
  C   C223      1.0  0.16978  0.60464  0.51995  1.0000
  H   H341      1.0  0.12560  0.59825  0.69092  1.0000
  C   C224      1.0  0.22042  0.33422  0.96368  1.0000
  H   H342      1.0  0.10277  0.59735  0.66606  1.0000
  H   H343      1.0  0.11255  0.45004  0.51401  1.0000
  H   H344      1.0  0.13220  0.42432  0.71720  1.0000
  H   H345      1.0  0.09973  0.43763  0.59621  1.0000
  H   H346      1.0  0.18372  0.61394  0.51594  1.0000
  S   S71       1.0  0.06994  0.33231  0.91899  1.0000
  C   C225      1.0  0.07710  0.33808  0.95954  1.0000
  H   H347      1.0  0.14685  0.59689  0.48652  1.0000
  C   C226      1.0  0.15040  0.61820  0.69107  1.0000
  H   H348      1.0  0.15897  0.44955  0.72992  1.0000
  H   H349      1.0  0.03137  0.64555  0.82684  1.0000
  H   H350      1.0  0.99403  0.55399  0.77800  1.0000
  C   C227      1.0  0.01598  0.58456  0.78454  1.0000
  H   H351      1.0  0.16030  0.35883  0.96217  1.0000
  H   H352      1.0  0.99708  0.59491  0.82579  1.0000
  H   H353      1.0  0.14906  0.42394  0.53637  1.0000
  H   H354      1.0  0.15625  0.44782  0.52629  1.0000
  H   H355      1.0  0.19198  0.35137  0.90010  1.0000
  C   C228      1.0  0.21115  0.59852  0.53769  1.0000
  H   H356      1.0  0.98922  0.43645  0.72207  1.0000
  C   C229      1.0  0.14099  0.35587  0.90488  1.0000
  C   C230      1.0  0.17716  0.34712  0.89987  1.0000
  H   H357      1.0  0.01265  0.34098  0.67783  1.0000
  C   C231      1.0  0.13778  0.34934  0.94479  1.0000
  H   H358      1.0  0.10381  0.42641  0.52733  1.0000
  H   H359      1.0  0.08607  0.50923  0.67791  1.0000
  C   C232      1.0  0.15196  0.58631  0.66613  1.0000
  H   H360      1.0  0.11131  0.43704  0.79184  1.0000
  H   H361      1.0  0.02422  0.52269  0.70181  1.0000
  H   H362      1.0  0.07282  0.53161  0.69277  1.0000
  H   H363      1.0  0.10536  0.40146  0.77391  1.0000
  H   H364      1.0  0.12498  0.42141  0.79761  1.0000
  H   H365      1.0  0.01225  0.35541  0.65318  1.0000
  C   C233      1.0  0.12101  0.41810  0.73140  1.0000
  H   H366      1.0  0.00548  0.60764  0.78912  1.0000
  H   H367      1.0  0.16660  0.60062  0.53807  1.0000
  H   H368      1.0  0.13839  0.39778  0.78827  1.0000
  H   H369      1.0  0.99694  0.42263  0.75024  1.0000
  H   H370      1.0  0.16508  0.59240  0.67119  1.0000
  S   S72       1.0  0.10195  0.33054  0.86482  1.0000
  C   C234      1.0  0.17917  0.55856  0.48680  1.0000
  C   C235      1.0  0.08460  0.64259  0.80517  1.0000
  H   H371      1.0  0.17169  0.60098  0.62354  1.0000
  C   C236      1.0  0.07877  0.32770  0.94297  1.0000
  H   H372      1.0  0.13802  0.57566  0.70036  1.0000
  H   H373      1.0  0.12841  0.56278  0.68048  1.0000
  H   H374      1.0  0.14934  0.56102  0.68807  1.0000
  S   S73       1.0  0.17715  0.48207  0.50041  1.0000
  C   C237      1.0  0.16406  0.61141  0.62149  1.0000
  H   H375      1.0  0.00276  0.35941  0.67952  1.0000
  H   H376      1.0  0.21225  0.60303  0.52034  1.0000
  H   H377      1.0  0.17380  0.62383  0.61132  1.0000
  C   C238      1.0  0.10058  0.65444  0.79253  1.0000
  C   C239      1.0  0.99860  0.57230  0.71515  1.0000
  H   H378      1.0  0.02041  0.33658  0.76035  1.0000
  C   C240      1.0  0.11409  0.44462  0.59635  1.0000
  H   H379      1.0  0.16904  0.62132  0.65090  1.0000
  S   S74       1.0  0.21843  0.33754  0.85126  1.0000
  H   H380      1.0  0.15063  0.33442  0.96839  1.0000
  C   C241      1.0  0.14104  0.57071  0.68483  1.0000
  H   H381      1.0  0.02872  0.59402  0.78696  1.0000
  H   H382      1.0  0.09833  0.43275  0.56237  1.0000
  H   H383      1.0  0.17741  0.58000  0.51733  1.0000
  H   H384      1.0  0.14334  0.62189  0.70578  1.0000
  H   H385      1.0  0.13698  0.36376  0.94234  1.0000
  H   H386      1.0  0.17138  0.34313  0.93464  1.0000
  C   C242      1.0  0.07770  0.64655  0.82534  1.0000
  H   H387      1.0  0.13313  0.49633  0.52013  1.0000
  H   H388      1.0  0.09597  0.45456  0.55414  1.0000
  C   C243      1.0  0.14253  0.41735  0.75759  1.0000
  N   N15       1.0  0.12627  0.42363  0.75231  1.0000
  H   H389      1.0  0.11464  0.35923  0.92083  1.0000
  N   N16       1.0  0.12396  0.45359  0.55415  1.0000
  H   H390      1.0  0.22810  0.50832  0.48563  1.0000
  C   C244      1.0  0.13596  0.60878  0.67857  1.0000
  H   H391      1.0  0.01924  0.57858  0.76985  1.0000
  H   H392      1.0  0.15423  0.57823  0.51604  1.0000
  H   H393      1.0  0.13039  0.58302  0.63830  1.0000
  H   H394      1.0  0.01393  0.49382  0.69580  1.0000
  H   H395      1.0  0.13534  0.44919  0.76385  1.0000
  H   H396      1.0  0.99368  0.35943  0.60204  1.0000
  C   C245      1.0  0.00183  0.59537  0.78133  1.0000
  H   H397      1.0  0.02446  0.53845  0.64819  1.0000
  H   H398      1.0  0.12883  0.61903  0.67308  1.0000
  H   H399      1.0  0.15561  0.57972  0.65207  1.0000
  H   H400      1.0  0.15322  0.60709  0.61188  1.0000
  H   H401      1.0  0.14783  0.47593  0.54081  1.0000
  H   H402      1.0  0.00285  0.45470  0.76035  1.0000
  C   C246      1.0  0.12259  0.45976  0.57605  1.0000
  H   H403      1.0  0.09624  0.63120  0.66097  1.0000
  H   H404      1.0  0.11841  0.36298  0.89170  1.0000
  H   H405      1.0  0.03468  0.54922  0.67782  1.0000
  H   H406      1.0  0.14533  0.35182  0.88903  1.0000
  H   H407      1.0  0.07220  0.56094  0.69066  1.0000
  C   C247      1.0  0.00702  0.38621  0.77496  1.0000
  H   H408      1.0  0.01551  0.36578  0.75965  1.0000
  C   C248      1.0  0.13416  0.47010  0.53706  1.0000
  H   H409      1.0  0.17518  0.55357  0.50470  1.0000
  C   C249      1.0  0.10495  0.44559  0.55045  1.0000
  H   H410      1.0  0.15362  0.33013  0.84695  1.0000
  C   C250      1.0  0.17060  0.65486  0.48168  1.0000
  C   C251      1.0  0.10282  0.44054  0.52778  1.0000
  H   H411      1.0  0.13707  0.46662  0.52060  1.0000
  H   H412      1.0  0.15072  0.46925  0.73128  1.0000
  C   C252      1.0  0.02694  0.64245  0.81138  1.0000
  H   H413      1.0  0.15126  0.62808  0.63981  1.0000
  H   H414      1.0  0.00667  0.34903  0.61917  1.0000
  H   H415      1.0  0.15039  0.39215  0.76531  1.0000
  C   C253      1.0  0.07125  0.50774  0.67910  1.0000
  Fe  Fe36      1.0  0.20504  0.50079  0.56338  1.0000
  H   H416      1.0  0.15996  0.61219  0.51520  1.0000
  H   H417      1.0  0.01920  0.51624  0.64119  1.0000
  H   H418      1.0  0.12608  0.60474  0.63471  1.0000
  H   H419      1.0  0.10070  0.41416  0.80533  1.0000
  H   H420      1.0  0.11110  0.48117  0.53051  1.0000
  C   C254      1.0  0.11447  0.63815  0.62977  1.0000
  C   C255      1.0  0.02376  0.52395  0.65408  1.0000
  C   C256      1.0  0.10814  0.58607  0.66116  1.0000
  H   H421      1.0  0.15859  0.60914  0.69687  1.0000
  C   C257      1.0  0.06789  0.52673  0.67822  1.0000
  H   H422      1.0  0.07724  0.53590  0.66365  1.0000
  H   H423      1.0  0.06472  0.49888  0.69511  1.0000
  C   C258      1.0  0.16664  0.35041  0.92101  1.0000
  H   H424      1.0  0.05349  0.57074  0.69352  1.0000
  H   H425      1.0  0.18676  0.34564  0.83751  1.0000
  C   C259      1.0  0.18199  0.33295  0.84913  1.0000
  C   C260      1.0  0.14408  0.43629  0.53331  1.0000
  H   H426      1.0  0.20108  0.59405  0.48816  1.0000
  C   C261      1.0  0.10988  0.41652  0.77039  1.0000
  H   H427      1.0  0.01322  0.51867  0.66905  1.0000
  C   C262      1.0  0.05713  0.55759  0.69392  1.0000
  H   H428      1.0  0.04295  0.51863  0.71313  1.0000
  N   N17       1.0  0.04865  0.52781  0.67800  1.0000
  C   C263      1.0  0.04877  0.54767  0.67644  1.0000
  H   H429      1.0  0.05622  0.55572  0.66016  1.0000
  H   H430      1.0  0.04213  0.50725  0.65742  1.0000
  H   H431      1.0  0.05262  0.52943  0.64285  1.0000
  H   H432      1.0  0.05187  0.54959  0.71062  1.0000
  H   H433      1.0  0.02612  0.48925  0.71670  1.0000
  H   H434      1.0  0.03606  0.48971  0.68933  1.0000
  C   C264      1.0  0.99538  0.35564  0.61924  1.0000
  H   H435      1.0  0.01682  0.36108  0.84903  1.0000
  H   H436      1.0  0.99207  0.32719  0.77517  1.0000
  H   H437      1.0  0.99996  0.34360  0.84174  1.0000
  C   C265      1.0  0.04257  0.52172  0.65771  1.0000
  C   C266      1.0  0.03610  0.51706  0.69878  1.0000
  C   C267      1.0  0.99031  0.42578  0.76551  1.0000
  C   C268      1.0  0.02787  0.49641  0.69960  1.0000
  H   H438      1.0  0.03735  0.34921  0.79918  1.0000
  H   H439      1.0  0.12349  0.34095  0.95010  1.0000
  H   H440      1.0  0.11436  0.46978  0.57675  1.0000
  C   C269      1.0  0.98875  0.44552  0.76307  1.0000
  C   C270      1.0  0.11602  0.39756  0.73067  1.0000
  C   C271      1.0  0.98581  0.33573  0.66901  1.0000
  H   H441      1.0  0.17502  0.35526  0.88492  1.0000
  S   S75       1.0  0.13773  0.64624  0.59034  1.0000
  C   C272      1.0  0.15684  0.61619  0.64359  1.0000
  C   C273      1.0  0.02461  0.34392  0.79284  1.0000
  C   C274      1.0  0.12746  0.59372  0.64744  1.0000
  H   H442      1.0  0.09799  0.42068  0.76527  1.0000
  C   C275      1.0  0.14670  0.45460  0.72984  1.0000
  H   H443      1.0  0.11910  0.44926  0.74637  1.0000
  H   H444      1.0  0.98342  0.47234  0.70050  1.0000
  H   H445      1.0  0.98700  0.34839  0.76484  1.0000
  H   H446      1.0  0.07051  0.34895  0.95739  1.0000
  H   H447      1.0  0.11122  0.39553  0.71503  1.0000
  C   C276      1.0  0.13113  0.44424  0.74899  1.0000
  H   H448      1.0  0.99900  0.42388  0.77790  1.0000
  H   H449      1.0  0.15932  0.63119  0.68115  1.0000
  H   H450      1.0  0.98705  0.37155  0.65712  1.0000
  H   H451      1.0  0.14994  0.42643  0.76774  1.0000
  H   H452      1.0  0.15236  0.41864  0.74230  1.0000
  H   H453      1.0  0.03843  0.32973  0.77124  1.0000
  H   H454      1.0  0.17157  0.36520  0.92169  1.0000
  H   H455      1.0  0.12646  0.38777  0.76810  1.0000
  S   S76       1.0  0.11520  0.65289  0.68969  1.0000
  H   H456      1.0  0.03218  0.37867  0.77217  1.0000
  H   H457      1.0  0.04158  0.35312  0.76003  1.0000
  C   C277      1.0  0.21234  0.61131  0.55172  1.0000
  H   H458      1.0  0.13514  0.43418  0.52105  1.0000
  C   C278      1.0  0.98944  0.55406  0.71519  1.0000
  N   N18       1.0  0.17262  0.59005  0.48511  1.0000
  H   H459      1.0  0.12563  0.42589  0.56397  1.0000
  H   H460      1.0  0.14561  0.44303  0.56487  1.0000
  H   H461      1.0  0.13632  0.46696  0.57871  1.0000
  H   H462      1.0  0.10480  0.38953  0.74396  1.0000
  H   H463      1.0  0.01054  0.39483  0.78738  1.0000
  H   H464      1.0  0.12806  0.39210  0.73071  1.0000
  H   H465      1.0  0.01310  0.63288  0.81620  1.0000
  H   H466      1.0  0.98950  0.33456  0.81257  1.0000
  H   H467      1.0  0.01830  0.65054  0.95490  1.0000
  S   S77       1.0  0.98678  0.51723  0.72053  1.0000
  C   C279      1.0  0.98559  0.33788  0.77942  1.0000
  H   H468      1.0  0.10599  0.65155  0.77694  1.0000
  H   H469      1.0  0.00314  0.45838  0.72096  1.0000
  C   C280      1.0  0.00436  0.34884  0.66958  1.0000
  H   H470      1.0  0.99237  0.64823  0.89721  1.0000
  C   C281      1.0  0.16312  0.32417  0.85447  1.0000
  H   H471      1.0  0.98381  0.35496  0.80349  1.0000
  H   H472      1.0  0.02388  0.34448  0.83541  1.0000
  C   C282      1.0  0.98517  0.39882  0.70593  1.0000
  H   H473      1.0  0.98498  0.61652  0.75516  1.0000
  H   H474      1.0  0.99394  0.48002  0.74098  1.0000
  H   H475      1.0  0.99211  0.38033  0.77724  1.0000
  C   C283      1.0  0.98860  0.45046  0.72346  1.0000
  H   H476      1.0  0.01868  0.65435  0.78319  1.0000
  C   C284      1.0  0.19475  0.32555  0.85864  1.0000
  H   H477      1.0  0.01250  0.65548  0.85505  1.0000
  Fe  Fe37      1.0  0.16736  0.65640  0.57415  1.0000
  H   H478      1.0  0.22754  0.46156  0.48961  1.0000
  H   H479      1.0  0.98441  0.56412  0.81417  1.0000
  H   H480      1.0  0.04199  0.65212  0.94933  1.0000
  H   H481      1.0  0.19403  0.56489  0.48252  1.0000
  H   H482      1.0  0.04721  0.65489  0.76434  1.0000
  H   H483      1.0  0.98865  0.32364  0.66277  1.0000
  C   C285      1.0  0.13886  0.32493  0.92250  1.0000
  H   H484      1.0  0.06159  0.65620  0.78398  1.0000
  S   S78       1.0  0.20266  0.65558  0.49692  1.0000
  H   H485      1.0  0.19502  0.61422  0.48153  1.0000
  H   H486      1.0  0.17565  0.70277  0.41198  1.0000
  S   S79       1.0  0.16195  0.66257  0.36086  1.0000
  C   C286      1.0  0.22766  0.70709  0.34638  1.0000
  H   H487      1.0  0.11000  0.66172  0.24925  1.0000
  H   H488      1.0  0.17463  0.84606  0.10949  1.0000
  S   S80       1.0  0.20655  0.85147  0.05741  1.0000
  H   H489      1.0  0.22055  0.72974  0.39355  1.0000
  H   H490      1.0  0.17534  0.83599  0.13666  1.0000
  Fe  Fe38      1.0  0.11761  0.75948  0.05499  1.0000
  S   S81       1.0  0.13099  0.73660  0.05835  1.0000
  S   S82       1.0  0.13361  0.79022  0.05064  1.0000
  Fe  Fe39      1.0  0.07985  0.73140  0.05309  1.0000
  S   S83       1.0  0.09167  0.70742  0.05661  1.0000
  S   S84       1.0  0.05138  0.72841  0.04387  1.0000
  Fe  Fe40      1.0  0.10547  0.72052  0.08201  1.0000
  S   S85       1.0  0.10876  0.70594  0.11469  1.0000
  Fe  Fe41      1.0  0.11569  0.72585  0.03279  1.0000
  S   S86       1.0  0.12930  0.71779  0.00295  1.0000
  S   S87       1.0  0.09243  0.74388  0.08009  1.0000
  S   S88       1.0  0.10359  0.74936  0.02778  1.0000
  H   H491      1.0  0.15814  0.78418  0.01355  1.0000
  C   C287      1.0  0.02926  0.71240  0.04960  1.0000
  C   C288      1.0  0.01533  0.71776  0.04047  1.0000
  C   C289      1.0  0.00684  0.68344  0.06700  1.0000
  C   C290      1.0  0.02496  0.69498  0.06271  1.0000
  H   H492      1.0  0.01830  0.73116  0.03048  1.0000
  H   H493      1.0  0.03543  0.69061  0.07007  1.0000
  H   H494      1.0  0.00352  0.67047  0.07800  1.0000
  C   C291      1.0  0.10731  0.67432  0.14196  1.0000
  C   C292      1.0  0.10109  0.68205  0.12387  1.0000
  C   C293      1.0  0.09005  0.67055  0.11272  1.0000
  C   C294      1.0  0.22950  0.86080  0.15797  1.0000
  H   H495      1.0  0.11584  0.68311  0.15070  1.0000
  H   H496      1.0  0.08481  0.67640  0.09915  1.0000
  C   C295      1.0  0.18618  0.83395  0.05689  1.0000
  C   C296      1.0  0.17127  0.83874  0.04970  1.0000
  C   C297      1.0  0.15545  0.82525  0.04831  1.0000
  C   C298      1.0  0.15398  0.80649  0.05405  1.0000
  C   C299      1.0  0.16882  0.80156  0.06150  1.0000
  C   C300      1.0  0.18479  0.81517  0.06283  1.0000
  H   H497      1.0  0.17199  0.85303  0.04496  1.0000
  H   H498      1.0  0.14424  0.82945  0.04260  1.0000
  H   H499      1.0  0.16803  0.78726  0.06610  1.0000
  H   H500      1.0  0.19613  0.81109  0.06835  1.0000
  C   C301      1.0  0.18519  0.70398  0.45096  1.0000
  H   H501      1.0  0.18212  0.82184  0.01377  1.0000
  H   H502      1.0  0.19438  0.82839  0.15926  1.0000
  H   H503      1.0  0.02040  0.68155  0.02173  1.0000
  H   H504      1.0  0.19602  0.68035  0.41547  1.0000
  H   H505      1.0  0.18917  0.79458  0.02413  1.0000
  C   C302      1.0  0.21892  0.82384  0.00842  1.0000
  C   C303      1.0  0.21433  0.72636  0.41128  1.0000
  C   C304      1.0  0.18140  0.81959  0.99674  1.0000
  C   C305      1.0  0.23116  0.70373  0.41729  1.0000
  H   H506      1.0  0.22555  0.83001  0.08886  1.0000
  H   H507      1.0  0.21027  0.69381  0.39117  1.0000
  C   C306      1.0  0.18286  0.84700  0.12276  1.0000
  H   H508      1.0  0.21965  0.80491  0.15307  1.0000
  H   H509      1.0  0.21637  0.81293  0.02291  1.0000
  C   C307      1.0  0.20143  0.69460  0.40644  1.0000
  C   C308      1.0  0.11417  0.71088  0.98518  1.0000
  C   C309      1.0  0.21306  0.81646  0.98806  1.0000
  H   H510      1.0  0.03219  0.70960  0.99892  1.0000
  C   C310      1.0  0.09538  0.70598  0.99256  1.0000
  N   N19       1.0  0.13629  0.66995  0.06397  1.0000
  N   N20       1.0  0.02200  0.67108  0.99108  1.0000
  H   H511      1.0  0.23131  0.87434  0.16306  1.0000
  H   H512      1.0  0.17422  0.69238  0.44855  1.0000
  H   H513      1.0  0.16461  0.67090  0.06547  1.0000
  C   C311      1.0  0.23194  0.84218  0.11766  1.0000
  H   H514      1.0  0.10578  0.66608  0.03927  1.0000
  H   H515      1.0  0.18369  0.86058  0.12735  1.0000
  H   H516      1.0  0.09943  0.67162  0.06578  1.0000
  C   C312      1.0  0.13272  0.68078  0.08161  1.0000
  H   H517      1.0  0.12233  0.68803  0.07807  1.0000
  N   N21       1.0  0.21405  0.84281  0.13030  1.0000
  H   H518      1.0  0.20389  0.86089  0.14942  1.0000
  H   H519      1.0  0.16962  0.68465  0.02971  1.0000
  Fe  Fe42      1.0  0.19218  0.66972  0.34912  1.0000
  H   H520      1.0  0.16557  0.70237  0.04455  1.0000
  H   H521      1.0  0.19748  0.81492  0.13889  1.0000
  C   C313      1.0  0.14061  0.68177  0.04153  1.0000
  C   C314      1.0  0.18522  0.70037  0.39862  1.0000
  H   H522      1.0  0.08868  0.66669  0.24533  1.0000
  H   H523      1.0  0.16677  0.81278  0.99762  1.0000
  C   C315      1.0  0.20403  0.70102  0.44389  1.0000
  H   H524      1.0  0.15030  0.70885  0.07531  1.0000
  H   H525      1.0  0.21238  0.83459  0.01255  1.0000
  H   H526      1.0  0.23056  0.82615  0.16082  1.0000
  H   H527      1.0  0.06895  0.69725  0.98399  1.0000
  H   H528      1.0  0.09003  0.70618  0.00937  1.0000
  C   C316      1.0  0.16914  0.77748  0.01017  1.0000
  C   C317      1.0  0.18829  0.79069  0.00779  1.0000
  C   C318      1.0  0.18493  0.83838  0.98208  1.0000
  C   C319      1.0  0.16040  0.69335  0.03325  1.0000
  C   C320      1.0  0.02737  0.67283  0.01313  1.0000
  H   H529      1.0  0.14631  0.69718  0.10312  1.0000
  H   H530      1.0  0.23273  0.68063  0.35098  1.0000
  H   H531      1.0  0.22775  0.67805  0.44011  1.0000
  C   C321      1.0  0.21697  0.85960  0.14080  1.0000
  C   C322      1.0  0.14889  0.69550  0.08571  1.0000
  H   H532      1.0  0.22331  0.85046  0.17297  1.0000
  H   H533      1.0  0.21019  0.81151  0.17701  1.0000
  H   H534      1.0  0.17738  0.68922  0.39135  1.0000
  H   H535      1.0  0.16748  0.77083  0.99567  1.0000
  H   H536      1.0  0.19908  0.83301  0.10536  1.0000
  C   C323      1.0  0.15120  0.66087  0.06739  1.0000
  H   H537      1.0  0.06432  0.65853  0.31554  1.0000
  H   H538      1.0  0.18169  0.84824  0.99238  1.0000
  H   H539      1.0  0.18354  0.71696  0.44267  1.0000
  S   S89       1.0  0.20705  0.69958  0.33707  1.0000
  H   H540      1.0  0.09942  0.66191  0.28730  1.0000
  H   H541      1.0  0.13183  0.69133  0.04064  1.0000
  C   C324      1.0  0.99288  0.68916  0.05815  1.0000
  H   H542      1.0  0.22505  0.75415  0.41622  1.0000
  H   H543      1.0  0.18996  0.71261  0.38546  1.0000
  C   C325      1.0  0.99742  0.70640  0.04480  1.0000
  H   H544      1.0  0.12641  0.67164  0.09758  1.0000
  H   H545      1.0  0.19822  0.78246  0.00522  1.0000
  H   H546      1.0  0.22075  0.73770  0.44075  1.0000
  H   H547      1.0  0.16197  0.69196  0.08364  1.0000
  C   C326      1.0  0.07750  0.75022  0.98280  1.0000
  H   H548      1.0  0.20222  0.68622  0.44931  1.0000
  C   C327      1.0  0.20180  0.84497  0.11382  1.0000
  N   N22       1.0  0.21232  0.70652  0.41993  1.0000
  C   C328      1.0  0.98787  0.66704  0.00642  1.0000
  C   C329      1.0  0.23098  0.82680  0.10402  1.0000
  H   H549      1.0  0.98685  0.71135  0.03842  1.0000
  H   H550      1.0  0.13747  0.67324  0.02880  1.0000
  H   H551      1.0  0.22463  0.67482  0.41255  1.0000
  H   H552      1.0  0.20854  0.85708  0.10075  1.0000
  H   H553      1.0  0.00812  0.70160  0.99855  1.0000
  C   C330      1.0  0.20491  0.82575  0.14703  1.0000
  C   C331      1.0  0.00245  0.66040  0.99299  1.0000
  H   H554      1.0  0.04210  0.67995  0.01111  1.0000
  H   H555      1.0  0.21336  0.70734  0.45445  1.0000
  H   H556      1.0  0.07459  0.73865  0.99672  1.0000
  H   H557      1.0  0.22261  0.87213  0.12804  1.0000
  H   H558      1.0  0.16710  0.76638  0.02441  1.0000
  H   H559      1.0  0.07116  0.66154  0.27777  1.0000
  C   C332      1.0  0.22584  0.74025  0.42288  1.0000
  H   H560      1.0  0.22275  0.81334  0.11342  1.0000
  H   H561      1.0  0.16097  0.70230  0.01750  1.0000
  C   C333      1.0  0.23228  0.68383  0.42243  1.0000
  N   N23       1.0  0.19303  0.80742  0.99003  1.0000
  C   C334      1.0  0.21734  0.81694  0.15985  1.0000
  C   C335      1.0  0.10304  0.66104  0.05720  1.0000
  C   C336      1.0  0.02188  0.70526  0.98855  1.0000
  H   H562      1.0  0.22117  0.80681  0.98400  1.0000
  H   H563      1.0  0.99189  0.67189  0.02125  1.0000
  H   H564      1.0  0.22636  0.73499  0.34376  1.0000
  H   H565      1.0  0.18335  0.70486  0.46864  1.0000
  H   H566      1.0  0.20101  0.72947  0.41188  1.0000
  H   H567      1.0  0.98373  0.67778  0.99625  1.0000
  H   H568      1.0  0.02738  0.65808  0.04526  1.0000
  H   H569      1.0  0.08049  0.76296  0.98966  1.0000
  H   H570      1.0  0.11006  0.78338  0.99051  1.0000
  C   C337      1.0  0.09653  0.65644  0.24468  1.0000
  Fe  Fe43      1.0  0.23290  0.87421  0.05805  1.0000
  Fe  Fe44      1.0  0.20417  0.68443  0.56360  1.0000
  S   S90       1.0  0.18063  0.67935  0.54546  1.0000
  H   H571      1.0  0.22079  0.73241  0.50958  1.0000
  H   H572      1.0  0.22806  0.77125  0.48149  1.0000
  H   H573      1.0  0.06842  0.67583  0.73864  1.0000
  S   S91       1.0  0.20038  0.83873  0.84506  1.0000
  C   C338      1.0  0.13984  0.74735  0.80127  1.0000
  Fe  Fe45      1.0  0.06815  0.72130  0.86439  1.0000
  S   S92       1.0  0.07252  0.69414  0.87595  1.0000
  S   S93       1.0  0.04007  0.72100  0.85560  1.0000
  Fe  Fe46      1.0  0.10734  0.74291  0.87093  1.0000
  S   S94       1.0  0.11295  0.71615  0.88300  1.0000
  S   S95       1.0  0.13162  0.76685  0.87437  1.0000
  Fe  Fe47      1.0  0.10027  0.70580  0.85525  1.0000
  S   S96       1.0  0.11466  0.69351  0.82960  1.0000
  Fe  Fe48      1.0  0.08461  0.70759  0.90226  1.0000
  S   S97       1.0  0.07467  0.69570  0.93826  1.0000
  S   S98       1.0  0.09570  0.73275  0.84217  1.0000
  S   S99       1.0  0.07913  0.73449  0.89177  1.0000
  C   C339      1.0  0.02259  0.70164  0.85284  1.0000
  C   C340      1.0  0.02435  0.68379  0.85652  1.0000
  C   C341      1.0  0.01063  0.66907  0.85284  1.0000
  H   H574      1.0  0.07866  0.78319  0.90850  1.0000
  C   C342      1.0  0.02962  0.68455  0.75355  1.0000
  C   C343      1.0  0.00654  0.70432  0.84631  1.0000
  H   H575      1.0  0.03653  0.68136  0.86155  1.0000
  H   H576      1.0  0.08142  0.68967  0.79125  1.0000
  H   H577      1.0  0.14677  0.67141  0.65737  1.0000
  H   H578      1.0  0.00496  0.71802  0.84333  1.0000
  C   C344      1.0  0.19904  0.81399  0.94722  1.0000
  H   H579      1.0  0.22648  0.89255  0.91820  1.0000
  H   H580      1.0  0.08117  0.66509  0.84841  1.0000
  C   C345      1.0  0.10277  0.67393  0.82040  1.0000
  H   H581      1.0  0.14187  0.75500  0.92821  1.0000
  C   C346      1.0  0.03192  0.65906  0.95597  1.0000
  H   H582      1.0  0.01796  0.68905  0.96334  1.0000
  C   C347      1.0  0.09127  0.78139  0.91410  1.0000
  C   C348      1.0  0.99040  0.69883  0.91307  1.0000
  H   H583      1.0  0.19357  0.80830  0.93338  1.0000
  C   C349      1.0  0.09012  0.70120  0.95610  1.0000
  C   C350      1.0  0.11858  0.78220  0.97525  1.0000
  C   C351      1.0  0.18950  0.77902  0.82317  1.0000
  H   H584      1.0  0.07467  0.69886  0.81446  1.0000
  C   C352      1.0  0.12091  0.71074  0.96326  1.0000
  C   C353      1.0  0.10891  0.70625  0.94864  1.0000
  C   C354      1.0  0.03390  0.66084  0.97985  1.0000
  H   H585      1.0  0.13543  0.71448  0.95746  1.0000
  H   H586      1.0  0.11420  0.70644  0.93169  1.0000
  C   C355      1.0  0.18108  0.81894  0.85416  1.0000
  C   C356      1.0  0.16877  0.81416  0.83985  1.0000
  C   C357      1.0  0.15353  0.79862  0.84587  1.0000
  C   C358      1.0  0.15011  0.78748  0.86651  1.0000
  C   C359      1.0  0.16232  0.79229  0.88093  1.0000
  C   C360      1.0  0.17766  0.80780  0.87484  1.0000
  H   H587      1.0  0.17110  0.82258  0.82385  1.0000
  H   H588      1.0  0.14442  0.79534  0.83447  1.0000
  H   H589      1.0  0.16010  0.78382  0.89685  1.0000
  H   H590      1.0  0.18688  0.81112  0.88612  1.0000
  H   H591      1.0  0.03497  0.67248  0.94505  1.0000
  H   H592      1.0  0.03023  0.69530  0.78356  1.0000
  S   S100      1.0  0.21781  0.66587  0.54762  1.0000
  H   H593      1.0  0.22859  0.86041  0.97762  1.0000
  H   H594      1.0  0.16904  0.73348  0.79762  1.0000
  C   C361      1.0  0.09358  0.74908  0.96594  1.0000
  H   H595      1.0  0.18209  0.78819  0.81560  1.0000
  C   C362      1.0  0.15361  0.73153  0.83923  1.0000
  C   C363      1.0  0.05217  0.68032  0.80501  1.0000
  H   H596      1.0  0.12222  0.67887  0.79054  1.0000
  S   S101      1.0  0.21938  0.71273  0.56740  1.0000
  Fe  Fe49      1.0  0.22596  0.85530  0.85669  1.0000
  H   H597      1.0  0.09887  0.77673  0.90063  1.0000
  H   H598      1.0  0.08382  0.67262  0.75633  1.0000
  H   H599      1.0  0.06981  0.70773  0.78893  1.0000
  H   H600      1.0  0.09648  0.78848  0.96135  1.0000
  H   H601      1.0  0.11705  0.79358  0.94224  1.0000
  H   H602      1.0  0.09917  0.79493  0.91638  1.0000
  H   H603      1.0  0.13007  0.74856  0.95569  1.0000
  H   H604      1.0  0.08878  0.73660  0.95891  1.0000
  C   C364      1.0  0.14300  0.66071  0.62774  1.0000
  H   H605      1.0  0.13092  0.73458  0.81165  1.0000
  H   H606      1.0  0.05133  0.70078  0.76610  1.0000
  H   H607      1.0  0.12138  0.77305  0.91790  1.0000
  C   C365      1.0  0.13774  0.66206  0.64972  1.0000
  H   H608      1.0  0.21380  0.81488  0.94434  1.0000
  H   H609      1.0  0.14128  0.77239  0.94414  1.0000
  H   H610      1.0  0.01640  0.66592  0.80564  1.0000
  S   S102      1.0  0.18990  0.66309  0.59329  1.0000
  H   H611      1.0  0.00202  0.70088  0.92202  1.0000
  H   H612      1.0  0.06487  0.74876  0.97583  1.0000
  N   N24       1.0  0.10128  0.76535  0.94773  1.0000
  C   C366      1.0  0.05556  0.66468  0.77298  1.0000
  C   C367      1.0  0.08606  0.76707  0.93541  1.0000
  H   H613      1.0  0.03648  0.67668  0.74331  1.0000
  H   H614      1.0  0.16728  0.76470  0.84946  1.0000
  C   C368      1.0  0.07051  0.69502  0.79907  1.0000
  H   H615      1.0  0.19711  0.78669  0.83433  1.0000
  H   H616      1.0  0.17623  0.83757  0.96933  1.0000
  H   H617      1.0  0.19969  0.77652  0.81052  1.0000
  C   C369      1.0  0.10973  0.66993  0.80026  1.0000
  H   H618      1.0  0.07509  0.77072  0.94587  1.0000
  H   H619      1.0  0.10392  0.74600  0.97534  1.0000
  H   H620      1.0  0.14536  0.76357  0.82627  1.0000
  C   C370      1.0  0.17658  0.76108  0.83667  1.0000
  H   H621      1.0  0.07950  0.75372  0.93100  1.0000
  C   C371      1.0  0.03916  0.68929  0.77292  1.0000
  H   H622      1.0  0.07497  0.69186  0.75649  1.0000
  H   H623      1.0  0.04854  0.66744  0.97962  1.0000
  H   H624      1.0  0.04269  0.68590  0.81535  1.0000
  H   H625      1.0  0.18412  0.75527  0.79256  1.0000
  H   H626      1.0  0.16543  0.65807  0.49718  1.0000
  C   C372      1.0  0.99275  0.68957  0.84284  1.0000
  C   C373      1.0  0.11606  0.76163  0.93204  1.0000
  C   C374      1.0  0.99474  0.67181  0.84591  1.0000
  H   H627      1.0  0.14078  0.73420  0.84670  1.0000
  C   C375      1.0  0.10810  0.78296  0.95587  1.0000
  H   H628      1.0  0.14681  0.74413  0.78622  1.0000
  H   H629      1.0  0.13078  0.75570  0.79601  1.0000
  H   H630      1.0  0.16151  0.77069  0.80147  1.0000
  S   S103      1.0  0.22550  0.87582  0.87923  1.0000
  H   H631      1.0  0.14932  0.72022  0.83007  1.0000
  C   C376      1.0  0.17751  0.74340  0.80597  1.0000
  H   H632      1.0  0.17425  0.79812  0.96856  1.0000
  H   H633      1.0  0.21806  0.82812  0.97426  1.0000
  C   C377      1.0  0.15346  0.75845  0.81360  1.0000
  C   C378      1.0  0.16128  0.72371  0.85877  1.0000
  C   C379      1.0  0.19215  0.73433  0.81271  1.0000
  H   H634      1.0  0.18512  0.75444  0.84601  1.0000
  H   H635      1.0  0.17475  0.72145  0.85390  1.0000
  H   H636      1.0  0.15186  0.71026  0.86680  1.0000
  H   H637      1.0  0.16194  0.73266  0.87132  1.0000
  H   H638      1.0  0.18633  0.71937  0.81824  1.0000
  H   H639      1.0  0.19902  0.74026  0.82541  1.0000
  H   H640      1.0  0.20319  0.73669  0.79837  1.0000
  H   H641      1.0  0.22272  0.91312  0.92526  1.0000
  H   H642      1.0  0.22706  0.76088  0.51848  1.0000
  C   C380      1.0  0.13311  0.75928  0.94097  1.0000
  N   N25       1.0  0.16567  0.74845  0.82397  1.0000
  H   H643      1.0  0.02977  0.69740  0.74284  1.0000
  H   H644      1.0  0.99564  0.67235  0.91471  1.0000
  H   H645      1.0  0.11051  0.74921  0.92510  1.0000
  C   C381      1.0  0.07134  0.67726  0.75528  1.0000
  Fe  Fe50      1.0  0.19343  0.65904  0.53149  1.0000
  H   H646      1.0  0.19718  0.82786  0.94611  1.0000
  H   H647      1.0  0.99490  0.70934  0.89790  1.0000
  H   H648      1.0  0.04033  0.69483  0.96909  1.0000
  C   C382      1.0  0.18909  0.80114  0.96893  1.0000
  H   H649      1.0  0.15595  0.66908  0.61853  1.0000
  N   N26       1.0  0.04364  0.67365  0.78632  1.0000
  C   C383      1.0  0.02581  0.65963  0.79619  1.0000
  C   C384      1.0  0.98635  0.67943  0.90725  1.0000
  C   C385      1.0  0.08662  0.66224  0.83283  1.0000
  H   H650      1.0  0.19924  0.84448  0.97415  1.0000
  H   H651      1.0  0.22678  0.89594  0.94556  1.0000
  H   H652      1.0  0.05479  0.66896  0.81589  1.0000
  H   H653      1.0  0.99097  0.68129  0.88928  1.0000
  C   C386      1.0  0.02574  0.68974  0.97706  1.0000
  H   H654      1.0  0.13061  0.79426  0.97201  1.0000
  H   H655      1.0  0.12373  0.77008  0.97853  1.0000
  H   H656      1.0  0.01511  0.67695  0.75927  1.0000
  H   H657      1.0  0.19278  0.78810  0.96781  1.0000
  H   H658      1.0  0.99861  0.66035  0.97653  1.0000
  H   H659      1.0  0.02302  0.71738  0.97599  1.0000
  C   C387      1.0  0.08341  0.70086  0.97816  1.0000
  C   C388      1.0  0.23065  0.90309  0.92830  1.0000
  H   H660      1.0  0.35775  0.30722  0.00816  1.0000
  Fe  Fe51      1.0  0.33715  0.03724  0.06839  1.0000
  S   S104      1.0  0.36182  0.04121  0.04269  1.0000
  C   C389      1.0  0.29179  0.99489  0.06070  1.0000
  Fe  Fe52      1.0  0.34829  0.07921  0.07133  1.0000
  S   S105      1.0  0.37348  0.08485  0.04602  1.0000
  S   S106      1.0  0.34135  0.10248  0.08757  1.0000
  Fe  Fe53      1.0  0.35546  0.06666  0.02795  1.0000
  S   S107      1.0  0.35181  0.07489  0.99312  1.0000
  Fe  Fe54      1.0  0.37714  0.05872  0.06375  1.0000
  S   S108      1.0  0.40352  0.05330  0.07146  1.0000
  S   S109      1.0  0.32983  0.06204  0.05245  1.0000
  S   S110      1.0  0.35296  0.05383  0.09024  1.0000
  H   H661      1.0  0.39354  0.24233  0.00635  1.0000
  H   H662      1.0  0.46332  0.31256  0.34539  1.0000
  H   H663      1.0  0.36475  0.20980  0.02061  1.0000
  Fe  Fe55      1.0  0.45049  0.03663  0.21089  1.0000
  S   S111      1.0  0.46140  0.03963  0.17521  1.0000
  H   H664      1.0  0.45260  0.29283  0.29662  1.0000
  Fe  Fe56      1.0  0.45640  0.06745  0.17228  1.0000
  S   S112      1.0  0.43933  0.08020  0.15095  1.0000
  C   C390      1.0  0.45446  0.30609  0.28588  1.0000
  S   S113      1.0  0.44397  0.06368  0.20781  1.0000
  Fe  Fe57      1.0  0.26689  0.31261  0.08006  1.0000
  S   S114      1.0  0.26984  0.28415  0.07789  1.0000
  H   H665      1.0  0.36703  0.10190  0.13768  1.0000
  H   H666      1.0  0.33761  0.16189  0.04215  1.0000
  Fe  Fe58      1.0  0.35104  0.24313  0.09279  1.0000
  S   S115      1.0  0.37205  0.26817  0.07440  1.0000
  S   S116      1.0  0.32919  0.25011  0.11534  1.0000
  Fe  Fe59      1.0  0.37191  0.21664  0.07575  1.0000
  S   S117      1.0  0.39464  0.24066  0.05674  1.0000
  S   S118      1.0  0.37701  0.18922  0.06908  1.0000
  Fe  Fe60      1.0  0.39223  0.25433  0.08647  1.0000
  S   S119      1.0  0.41542  0.26660  0.10417  1.0000
  Fe  Fe61      1.0  0.37234  0.25232  0.04672  1.0000
  S   S120      1.0  0.36815  0.26422  0.01316  1.0000
  S   S121      1.0  0.37109  0.22952  0.10612  1.0000
  S   S122      1.0  0.34974  0.22811  0.06438  1.0000
  H   H667      1.0  0.39129  0.29576  0.14854  1.0000
  H   H668      1.0  0.31622  0.19736  0.01562  1.0000
  C   C391      1.0  0.46897  0.15491  0.33532  1.0000
  H   H669      1.0  0.35834  0.05831  0.16503  1.0000
  C   C392      1.0  0.41274  0.16739  0.09282  1.0000
  C   C393      1.0  0.47592  0.99542  0.21337  1.0000
  H   H670      1.0  0.40409  0.28503  0.31548  1.0000
  C   C394      1.0  0.36366  0.03166  0.16662  1.0000
  H   H671      1.0  0.42682  0.16806  0.09532  1.0000
  H   H672      1.0  0.45100  0.10829  0.34362  1.0000
  C   C395      1.0  0.34756  0.20373  0.98711  1.0000
  H   H673      1.0  0.46007  0.14702  0.35087  1.0000
  C   C396      1.0  0.39411  0.01371  0.12544  1.0000
  C   C397      1.0  0.42077  0.99931  0.19161  1.0000
  H   H674      1.0  0.37347  0.99410  0.01843  1.0000
  H   H675      1.0  0.41835  0.30991  0.28829  1.0000
  C   C398      1.0  0.45346  0.32301  0.31672  1.0000
  H   H676      1.0  0.46845  0.00501  0.20681  1.0000
  C   C399      1.0  0.42492  0.31056  0.30303  1.0000
  C   C400      1.0  0.42214  0.28664  0.11598  1.0000
  C   C401      1.0  0.41582  0.30208  0.11107  1.0000
  H   H677      1.0  0.43284  0.13477  0.14267  1.0000
  H   H678      1.0  0.39486  0.01616  0.10738  1.0000
  C   C402      1.0  0.44022  0.30250  0.14057  1.0000
  C   C403      1.0  0.43443  0.28706  0.13073  1.0000
  H   H679      1.0  0.40656  0.30214  0.09959  1.0000
  H   H680      1.0  0.39047  0.99873  0.13080  1.0000
  H   H681      1.0  0.44964  0.30247  0.15186  1.0000
  H   H682      1.0  0.43957  0.27532  0.13456  1.0000
  C   C404      1.0  0.28708  0.27559  0.08778  1.0000
  C   C405      1.0  0.29060  0.25997  0.08086  1.0000
  C   C406      1.0  0.30402  0.25253  0.08854  1.0000
  C   C407      1.0  0.31375  0.26042  0.10364  1.0000
  C   C408      1.0  0.31024  0.27605  0.11059  1.0000
  C   C409      1.0  0.29716  0.28380  0.10241  1.0000
  H   H683      1.0  0.28277  0.25348  0.06967  1.0000
  H   H684      1.0  0.30639  0.24033  0.08336  1.0000
  H   H685      1.0  0.31749  0.28211  0.12249  1.0000
  H   H686      1.0  0.29445  0.29577  0.10797  1.0000
  H   H687      1.0  0.38743  0.24326  0.14385  1.0000
  H   H688      1.0  0.40797  0.01991  0.12836  1.0000
  S   S123      1.0  0.43138  0.00979  0.22930  1.0000
  H   H689      1.0  0.38120  0.27188  0.12963  1.0000
  H   H690      1.0  0.36331  0.31364  0.04266  1.0000
  H   H691      1.0  0.45545  0.29135  0.25874  1.0000
  H   H692      1.0  0.47223  0.10295  0.34372  1.0000
  C   C410      1.0  0.35966  0.19511  0.01943  1.0000
  H   H693      1.0  0.36802  0.05461  0.13921  1.0000
  H   H694      1.0  0.44164  0.14959  0.31062  1.0000
  H   H695      1.0  0.38400  0.03688  0.12697  1.0000
  C   C411      1.0  0.36279  0.29769  0.12515  1.0000
  H   H696      1.0  0.38117  0.00166  0.20234  1.0000
  H   H697      1.0  0.33105  0.31304  0.07857  1.0000
  H   H698      1.0  0.39255  0.10306  0.10898  1.0000
  C   C412      1.0  0.35023  0.12679  0.08064  1.0000
  C   C413      1.0  0.36471  0.13529  0.06336  1.0000
  C   C414      1.0  0.37232  0.15442  0.05974  1.0000
  C   C415      1.0  0.36542  0.16545  0.07304  1.0000
  C   C416      1.0  0.35047  0.15705  0.08975  1.0000
  C   C417      1.0  0.34306  0.13788  0.09360  1.0000
  H   H699      1.0  0.37035  0.12705  0.05315  1.0000
  H   H700      1.0  0.38389  0.16068  0.04678  1.0000
  H   H701      1.0  0.34501  0.16522  0.10024  1.0000
  H   H702      1.0  0.33185  0.13153  0.10700  1.0000
  H   H703      1.0  0.37486  0.30842  0.12674  1.0000
  C   C418      1.0  0.37988  0.02259  0.13587  1.0000
  C   C419      1.0  0.42168  0.31758  0.12083  1.0000
  H   H704      1.0  0.42313  0.14394  0.07121  1.0000
  S   S124      1.0  0.32226  0.00667  0.08037  1.0000
  H   H705      1.0  0.36739  0.29991  0.19045  1.0000
  H   H706      1.0  0.39649  0.26051  0.15853  1.0000
  H   H707      1.0  0.40002  0.13532  0.06896  1.0000
  C   C420      1.0  0.41319  0.06039  0.09390  1.0000
  C   C421      1.0  0.42859  0.05516  0.09897  1.0000
  C   C422      1.0  0.43655  0.06067  0.11676  1.0000
  C   C423      1.0  0.42937  0.07183  0.12929  1.0000
  C   C424      1.0  0.41383  0.07684  0.12435  1.0000
  C   C425      1.0  0.40565  0.07097  0.10691  1.0000
  H   H708      1.0  0.43444  0.04685  0.08905  1.0000
  H   H709      1.0  0.44849  0.05670  0.12042  1.0000
  H   H710      1.0  0.40793  0.08502  0.13437  1.0000
  H   H711      1.0  0.39347  0.07448  0.10348  1.0000
  H   H712      1.0  0.43870  0.13150  0.33263  1.0000
  H   H713      1.0  0.38610  0.14866  0.09870  1.0000
  C   C426      1.0  0.43390  0.31792  0.13570  1.0000
  H   H714      1.0  0.38846  0.10864  0.14591  1.0000
  H   H715      1.0  0.40250  0.10398  0.07338  1.0000
  N   N27       1.0  0.40499  0.13224  0.10235  1.0000
  C   C427      1.0  0.39909  0.14930  0.10479  1.0000
  C   C428      1.0  0.32106  0.27307  0.03052  1.0000
  C   C429      1.0  0.41788  0.29180  0.31825  1.0000
  H   H716      1.0  0.42105  0.11627  0.11771  1.0000
  H   H717      1.0  0.47381  0.18316  0.31766  1.0000
  H   H718      1.0  0.43395  0.29599  0.26578  1.0000
  H   H719      1.0  0.29204  0.00909  0.05647  1.0000
  C   C430      1.0  0.37563  0.18941  0.00736  1.0000
  H   H720      1.0  0.42441  0.11038  0.08189  1.0000
  H   H721      1.0  0.31106  0.30470  0.05611  1.0000
  C   C431      1.0  0.30534  0.30887  0.02333  1.0000
  C   C432      1.0  0.36856  0.05222  0.15694  1.0000
  C   C433      1.0  0.33322  0.28617  0.04229  1.0000
  N   N28       1.0  0.34262  0.19194  0.00961  1.0000
  H   H722      1.0  0.42562  0.15387  0.13154  1.0000
  H   H723      1.0  0.38052  0.99432  0.16554  1.0000
  H   H724      1.0  0.40338  0.04281  0.15288  1.0000
  H   H725      1.0  0.35065  0.02509  0.16156  1.0000
  H   H726      1.0  0.38651  0.19064  0.01746  1.0000
  H   H727      1.0  0.32085  0.16985  0.00470  1.0000
  H   H728      1.0  0.36660  0.01622  0.13130  1.0000
  C   C434      1.0  0.42190  0.13874  0.13496  1.0000
  C   C435      1.0  0.31876  0.31185  0.03961  1.0000
  H   H729      1.0  0.34398  0.02310  0.99997  1.0000
  H   H730      1.0  0.42182  0.11806  0.05455  1.0000
  C   C436      1.0  0.33553  0.15732  0.02653  1.0000
  N   N29       1.0  0.36524  0.27567  0.15904  1.0000
  C   C437      1.0  0.37225  0.26360  0.14494  1.0000
  C   C438      1.0  0.35336  0.28493  0.14706  1.0000
  C   C439      1.0  0.35407  0.26473  0.18051  1.0000
  C   C440      1.0  0.38127  0.28942  0.16373  1.0000
  H   H731      1.0  0.41694  0.29335  0.33571  1.0000
  H   H732      1.0  0.30255  0.01367  0.00749  1.0000
  C   C441      1.0  0.33862  0.24803  0.17896  1.0000
  H   H733      1.0  0.36665  0.28987  0.11251  1.0000
  H   H734      1.0  0.36093  0.25438  0.13928  1.0000
  H   H735      1.0  0.33641  0.30386  0.00036  1.0000
  H   H736      1.0  0.34668  0.29281  0.15760  1.0000
  H   H737      1.0  0.34195  0.27468  0.14307  1.0000
  H   H738      1.0  0.36283  0.25981  0.19132  1.0000
  H   H739      1.0  0.34748  0.27344  0.18980  1.0000
  H   H740      1.0  0.38884  0.28264  0.17462  1.0000
  C   C442      1.0  0.44688  0.13777  0.31608  1.0000
  S   S125      1.0  0.47752  0.04806  0.22048  1.0000
  H   H741      1.0  0.32051  0.25886  0.03780  1.0000
  H   H742      1.0  0.33406  0.21343  0.02343  1.0000
  C   C443      1.0  0.41070  0.13260  0.07820  1.0000
  C   C444      1.0  0.39619  0.03071  0.16563  1.0000
  H   H743      1.0  0.39590  0.15059  0.12220  1.0000
  H   H744      1.0  0.33142  0.24126  0.19576  1.0000
  H   H745      1.0  0.34376  0.23764  0.17135  1.0000
  H   H746      1.0  0.32831  0.25191  0.17001  1.0000
  C   C445      1.0  0.46447  0.17346  0.33166  1.0000
  H   H747      1.0  0.45019  0.17199  0.32953  1.0000
  H   H748      1.0  0.31914  0.03504  0.99774  1.0000
  C   C446      1.0  0.41507  0.11516  0.07199  1.0000
  H   H749      1.0  0.40876  0.17898  0.09905  1.0000
  H   H750      1.0  0.42961  0.01218  0.18295  1.0000
  H   H751      1.0  0.40926  0.13363  0.14723  1.0000
  C   C447      1.0  0.37518  0.25451  0.99064  1.0000
  H   H752      1.0  0.32659  0.27472  0.01287  1.0000
  H   H753      1.0  0.46633  0.17987  0.34634  1.0000
  H   H754      1.0  0.36000  0.03042  0.18455  1.0000
  N   N30       1.0  0.33619  0.30634  0.03468  1.0000
  N   N31       1.0  0.37788  0.02196  0.16034  1.0000
  H   H755      1.0  0.37805  0.11626  0.10060  1.0000
  H   H756      1.0  0.35790  0.99571  0.16621  1.0000
  H   H757      1.0  0.43404  0.13766  0.10270  1.0000
  H   H758      1.0  0.34602  0.15024  0.02175  1.0000
  H   H759      1.0  0.40654  0.03194  0.19634  1.0000
  H   H760      1.0  0.36695  0.01396  0.00894  1.0000
  C   C448      1.0  0.42079  0.13076  0.11373  1.0000
  C   C449      1.0  0.38779  0.24424  0.99167  1.0000
  C   C450      1.0  0.39662  0.03728  0.18790  1.0000
  C   C451      1.0  0.33517  0.17230  0.00737  1.0000
  H   H761      1.0  0.38362  0.03306  0.19952  1.0000
  C   C452      1.0  0.37978  0.11314  0.13479  1.0000
  C   C453      1.0  0.38356  0.25191  0.15548  1.0000
  C   C454      1.0  0.38882  0.11588  0.11068  1.0000
  H   H762      1.0  0.37578  0.12526  0.13915  1.0000
  H   H763      1.0  0.41236  0.16947  0.07501  1.0000
  H   H764      1.0  0.34651  0.28270  0.04110  1.0000
  C   C455      1.0  0.44167  0.12407  0.30062  1.0000
  H   H765      1.0  0.44407  0.11069  0.30636  1.0000
  N   N32       1.0  0.33159  0.99392  0.00205  1.0000
  H   H766      1.0  0.33256  0.18896  0.05679  1.0000
  H   H767      1.0  0.48295  0.15748  0.33904  1.0000
  H   H768      1.0  0.40180  0.05239  0.18525  1.0000
  C   C456      1.0  0.32163  0.18871  0.04697  1.0000
  H   H769      1.0  0.37591  0.24256  0.17073  1.0000
  H   H770      1.0  0.35703  0.18793  0.03645  1.0000
  H   H771      1.0  0.40505  0.02134  0.16467  1.0000
  H   H772      1.0  0.46795  0.12063  0.35754  1.0000
  C   C457      1.0  0.46570  0.11437  0.34288  1.0000
  H   H773      1.0  0.42689  0.12141  0.30034  1.0000
  H   H774      1.0  0.38203  0.05974  0.15972  1.0000
  H   H775      1.0  0.31342  0.17451  0.04786  1.0000
  Fe  Fe62      1.0  0.47233  0.07563  0.21354  1.0000
  H   H776      1.0  0.30686  0.27405  0.03324  1.0000
  H   H777      1.0  0.31240  0.19584  0.05511  1.0000
  C   C458      1.0  0.32864  0.19861  0.02307  1.0000
  C   C459      1.0  0.37692  0.30504  0.17465  1.0000
  H   H778      1.0  0.32236  0.14661  0.03016  1.0000
  N   N33       1.0  0.46684  0.14408  0.31705  1.0000
  H   H779      1.0  0.47671  0.14681  0.28234  1.0000
  C   C460      1.0  0.33092  0.01264  0.00643  1.0000
  H   H780      1.0  0.44885  0.12941  0.28351  1.0000
  H   H781      1.0  0.32681  0.28219  0.05982  1.0000
  C   C461      1.0  0.44882  0.30172  0.26413  1.0000
  H   H782      1.0  0.34555  0.29762  0.07881  1.0000
  H   H783      1.0  0.38118  0.05722  0.98616  1.0000
  H   H784      1.0  0.37147  0.31417  0.16373  1.0000
  H   H785      1.0  0.25678  0.30594  0.98391  1.0000
  H   H786      1.0  0.34288  0.16944  0.99248  1.0000
  H   H787      1.0  0.32270  0.21159  0.98119  1.0000
  H   H788      1.0  0.41868  0.31983  0.31169  1.0000
  S   S126      1.0  0.48011  0.10036  0.23024  1.0000
  H   H789      1.0  0.35299  0.30469  0.11898  1.0000
  H   H790      1.0  0.47397  0.12019  0.30784  1.0000
  H   H791      1.0  0.45378  0.31385  0.25086  1.0000
  H   H792      1.0  0.33102  0.11259  0.99425  1.0000
  C   C462      1.0  0.34483  0.31139  0.01079  1.0000
  H   H793      1.0  0.32869  0.01262  0.02442  1.0000
  H   H794      1.0  0.42596  0.28213  0.31493  1.0000
  C   C463      1.0  0.47462  0.12803  0.32148  1.0000
  C   C464      1.0  0.34977  0.31623  0.04719  1.0000
  H   H795      1.0  0.37169  0.17508  0.00489  1.0000
  H   H796      1.0  0.46955  0.16572  0.28972  1.0000
  N   N34       1.0  0.44522  0.31852  0.29691  1.0000
  H   H797      1.0  0.29143  0.30196  0.03263  1.0000
  C   C465      1.0  0.47676  0.15547  0.29521  1.0000
  H   H798      1.0  0.37114  0.99839  0.99053  1.0000
  C   C466      1.0  0.34470  0.31154  0.07242  1.0000
  C   C467      1.0  0.36814  0.99790  0.19629  1.0000
  H   H799      1.0  0.46940  0.31210  0.28249  1.0000
  H   H800      1.0  0.47033  0.30391  0.32180  1.0000
  H   H801      1.0  0.35393  0.21816  0.98822  1.0000
  H   H802      1.0  0.44723  0.29521  0.33671  1.0000
  H   H803      1.0  0.41228  0.99084  0.16242  1.0000
  H   H804      1.0  0.48010  0.99927  0.22872  1.0000
  C   C468      1.0  0.45865  0.30757  0.33077  1.0000
  C   C469      1.0  0.41905  0.99480  0.21432  1.0000
  C   C470      1.0  0.31616  0.02019  0.99723  1.0000
  C   C471      1.0  0.37101  0.00215  0.17111  1.0000
  H   H805      1.0  0.35812  0.00416  0.20431  1.0000
  H   H806      1.0  0.38975  0.31361  0.17810  1.0000
  C   C472      1.0  0.36524  0.99949  0.00729  1.0000
  H   H807      1.0  0.38180  0.19854  0.99145  1.0000
  H   H808      1.0  0.35465  0.32114  0.07948  1.0000
  H   H809      1.0  0.30819  0.30051  0.01104  1.0000
  C   C473      1.0  0.30483  0.99017  0.07216  1.0000
  H   H810      1.0  0.30450  0.32223  0.01474  1.0000
  H   H811      1.0  0.26856  0.32204  0.01272  1.0000
  H   H812      1.0  0.46385  0.28379  0.63052  1.0000
  Fe  Fe63      1.0  0.33574  0.02097  0.86354  1.0000
  S   S127      1.0  0.36612  0.02494  0.85992  1.0000
  H   H813      1.0  0.39418  0.31915  0.73038  1.0000
  Fe  Fe64      1.0  0.34114  0.06298  0.86298  1.0000
  S   S128      1.0  0.37127  0.06850  0.85943  1.0000
  S   S129      1.0  0.32939  0.08779  0.86382  1.0000
  Fe  Fe65      1.0  0.36909  0.04971  0.83483  1.0000
  S   S130      1.0  0.38823  0.06058  0.80206  1.0000
  Fe  Fe66      1.0  0.36533  0.04330  0.88477  1.0000
  S   S131      1.0  0.38176  0.04285  0.91202  1.0000
  S   S132      1.0  0.33892  0.04523  0.83675  1.0000
  S   S133      1.0  0.33505  0.03832  0.89005  1.0000
  C   C474      1.0  0.36800  0.25707  0.97137  1.0000
  C   C475      1.0  0.38182  0.05132  0.95328  1.0000
  Fe  Fe67      1.0  0.46911  0.03528  0.73252  1.0000
  S   S134      1.0  0.45941  0.04544  0.70219  1.0000
  S   S135      1.0  0.45296  0.02826  0.76726  1.0000
  Fe  Fe68      1.0  0.46812  0.02280  0.68844  1.0000
  C   C476      1.0  0.44078  0.04157  0.84014  1.0000
  H   H814      1.0  0.36059  0.15770  0.96163  1.0000
  H   H815      1.0  0.32405  0.19003  0.97308  1.0000
  C   C477      1.0  0.42134  0.27775  0.89993  1.0000
  H   H816      1.0  0.44183  0.06329  0.59931  1.0000
  H   H817      1.0  0.32733  0.13161  0.97749  1.0000
  H   H818      1.0  0.41438  0.08152  0.85665  1.0000
  S   S136      1.0  0.30071  0.30889  0.84189  1.0000
  S   S137      1.0  0.25227  0.31108  0.87992  1.0000
  Fe  Fe69      1.0  0.34882  0.23093  0.87803  1.0000
  S   S138      1.0  0.37491  0.25117  0.88020  1.0000
  S   S139      1.0  0.32139  0.23755  0.88334  1.0000
  Fe  Fe70      1.0  0.36640  0.19893  0.87374  1.0000
  S   S140      1.0  0.39359  0.21752  0.87531  1.0000
  S   S141      1.0  0.36938  0.16970  0.87293  1.0000
  Fe  Fe71      1.0  0.37928  0.22769  0.90257  1.0000
  S   S142      1.0  0.39266  0.22846  0.93257  1.0000
  Fe  Fe72      1.0  0.38727  0.23947  0.85275  1.0000
  S   S143      1.0  0.40832  0.25479  0.82238  1.0000
  S   S144      1.0  0.35247  0.20806  0.90257  1.0000
  S   S145      1.0  0.36080  0.22039  0.84900  1.0000
  C   C478      1.0  0.35235  0.06625  0.95237  1.0000
  H   H819      1.0  0.33328  0.14613  0.94293  1.0000
  H   H820      1.0  0.40310  0.05084  0.86657  1.0000
  H   H821      1.0  0.45197  0.23799  0.90621  1.0000
  H   H822      1.0  0.45217  0.25177  0.84669  1.0000
  H   H823      1.0  0.41899  0.00541  0.85571  1.0000
  C   C479      1.0  0.37002  0.13004  0.92802  1.0000
  H   H824      1.0  0.44157  0.07235  0.89887  1.0000
  C   C480      1.0  0.37561  0.11212  0.92692  1.0000
  H   H825      1.0  0.34431  0.11600  0.91027  1.0000
  C   C481      1.0  0.31767  0.30848  0.89963  1.0000
  C   C482      1.0  0.30643  0.28913  0.85367  1.0000
  C   C483      1.0  0.32451  0.28808  0.84933  1.0000
  C   C484      1.0  0.32938  0.27240  0.85817  1.0000
  C   C485      1.0  0.31611  0.25746  0.87113  1.0000
  C   C486      1.0  0.29801  0.25844  0.87510  1.0000
  C   C487      1.0  0.29320  0.27417  0.86648  1.0000
  H   H826      1.0  0.33481  0.29949  0.83919  1.0000
  H   H827      1.0  0.34335  0.27182  0.85491  1.0000
  H   H828      1.0  0.28759  0.24686  0.88475  1.0000
  H   H829      1.0  0.27916  0.27459  0.86937  1.0000
  C   C488      1.0  0.45414  0.30857  0.80857  1.0000
  C   C489      1.0  0.45284  0.29644  0.79378  1.0000
  C   C490      1.0  0.43887  0.27997  0.79849  1.0000
  C   C491      1.0  0.42589  0.27549  0.81787  1.0000
  C   C492      1.0  0.42693  0.28779  0.83249  1.0000
  C   C493      1.0  0.44106  0.30420  0.82788  1.0000
  H   H830      1.0  0.28896  0.23930  0.95034  1.0000
  H   H831      1.0  0.43815  0.27062  0.78701  1.0000
  H   H832      1.0  0.41686  0.28467  0.84728  1.0000
  H   H833      1.0  0.30887  0.27109  0.95637  1.0000
  H   H834      1.0  0.34197  0.01887  0.95451  1.0000
  C   C494      1.0  0.35907  0.05962  0.93409  1.0000
  H   H835      1.0  0.36742  0.25098  0.93869  1.0000
  H   H836      1.0  0.44108  0.06326  0.81313  1.0000
  H   H837      1.0  0.31497  0.29677  0.96927  1.0000
  C   C495      1.0  0.43311  0.04065  0.62566  1.0000
  H   H838      1.0  0.42743  0.04952  0.90613  1.0000
  H   H839      1.0  0.31148  0.11894  0.94198  1.0000
  N   N35       1.0  0.46459  0.06498  0.61633  1.0000
  H   H840      1.0  0.45919  0.05297  0.80927  1.0000
  H   H841      1.0  0.46697  0.29077  0.67601  1.0000
  H   H842      1.0  0.47776  0.25016  0.63447  1.0000
  C   C496      1.0  0.34912  0.00981  0.96293  1.0000
  H   H843      1.0  0.42577  0.25654  0.87023  1.0000
  H   H844      1.0  0.28228  0.27538  0.90838  1.0000
  C   C497      1.0  0.45947  0.25254  0.89956  1.0000
  H   H845      1.0  0.42550  0.23815  0.89102  1.0000
  C   C498      1.0  0.34083  0.11064  0.86579  1.0000
  C   C499      1.0  0.35908  0.11568  0.86816  1.0000
  C   C500      1.0  0.36761  0.13388  0.86966  1.0000
  C   C501      1.0  0.35799  0.14730  0.86933  1.0000
  C   C502      1.0  0.33975  0.14228  0.86690  1.0000
  C   C503      1.0  0.33128  0.12411  0.86508  1.0000
  H   H846      1.0  0.36657  0.10550  0.86917  1.0000
  H   H847      1.0  0.38175  0.13753  0.87140  1.0000
  H   H848      1.0  0.33211  0.15236  0.86656  1.0000
  H   H849      1.0  0.31715  0.12043  0.86328  1.0000
  C   C504      1.0  0.40525  0.05063  0.79153  1.0000
  C   C505      1.0  0.40637  0.03357  0.80137  1.0000
  C   C506      1.0  0.42076  0.02662  0.79330  1.0000
  C   C507      1.0  0.43400  0.03653  0.77516  1.0000
  C   C508      1.0  0.43253  0.05331  0.76485  1.0000
  C   C509      1.0  0.41824  0.06035  0.77307  1.0000
  H   H850      1.0  0.39617  0.02573  0.81519  1.0000
  H   H851      1.0  0.42170  0.01353  0.80118  1.0000
  H   H852      1.0  0.44266  0.06107  0.75089  1.0000
  H   H853      1.0  0.41740  0.07349  0.76522  1.0000
  H   H854      1.0  0.36365  0.30773  0.79966  1.0000
  H   H855      1.0  0.46402  0.04592  0.64592  1.0000
  C   C510      1.0  0.39328  0.23671  0.97353  1.0000
  H   H856      1.0  0.42797  0.29015  0.88741  1.0000
  C   C511      1.0  0.46963  0.29525  0.88030  1.0000
  H   H857      1.0  0.38121  0.31118  0.76490  1.0000
  C   C512      1.0  0.37376  0.05203  0.93451  1.0000
  C   C513      1.0  0.44849  0.05404  0.60833  1.0000
  C   C514      1.0  0.42051  0.02753  0.87495  1.0000
  H   H858      1.0  0.35059  0.10613  0.96448  1.0000
  C   C515      1.0  0.34868  0.12009  0.96257  1.0000
  H   H859      1.0  0.43441  0.08102  0.83830  1.0000
  C   C516      1.0  0.47554  0.26187  0.62374  1.0000
  C   C517      1.0  0.41979  0.07442  0.84406  1.0000
  N   N36       1.0  0.36894  0.11228  0.79520  1.0000
  C   C518      1.0  0.35618  0.09726  0.78718  1.0000
  C   C519      1.0  0.38441  0.12138  0.77641  1.0000
  C   C520      1.0  0.35855  0.12578  0.80098  1.0000
  C   C521      1.0  0.37509  0.10393  0.81506  1.0000
  C   C522      1.0  0.33796  0.08772  0.80269  1.0000
  C   C523      1.0  0.39526  0.10871  0.76740  1.0000
  C   C524      1.0  0.36926  0.14317  0.80788  1.0000
  C   C525      1.0  0.39335  0.11443  0.82052  1.0000
  H   H860      1.0  0.35284  0.10252  0.77119  1.0000
  H   H861      1.0  0.36269  0.08618  0.78412  1.0000
  H   H862      1.0  0.39441  0.13281  0.78064  1.0000
  H   H863      1.0  0.37925  0.12784  0.76246  1.0000
  H   H864      1.0  0.35221  0.13021  0.78698  1.0000
  H   H865      1.0  0.34716  0.11935  0.81498  1.0000
  H   H866      1.0  0.36443  0.10141  0.82983  1.0000
  H   H867      1.0  0.37668  0.09022  0.81314  1.0000
  H   H868      1.0  0.33108  0.07533  0.79666  1.0000
  H   H869      1.0  0.33994  0.08320  0.81948  1.0000
  H   H870      1.0  0.32855  0.09657  0.80313  1.0000
  H   H871      1.0  0.40787  0.11711  0.75620  1.0000
  H   H872      1.0  0.39938  0.10024  0.78052  1.0000
  H   H873      1.0  0.38744  0.09964  0.75768  1.0000
  H   H874      1.0  0.35999  0.15193  0.81100  1.0000
  H   H875      1.0  0.38075  0.15149  0.79503  1.0000
  H   H876      1.0  0.37389  0.14000  0.82354  1.0000
  H   H877      1.0  0.39226  0.11263  0.83858  1.0000
  H   H878      1.0  0.39761  0.12928  0.81440  1.0000
  H   H879      1.0  0.40439  0.10830  0.81484  1.0000
  C   C526      1.0  0.40912  0.32264  0.72926  1.0000
  H   H880      1.0  0.43375  0.23180  0.85450  1.0000
  H   H881      1.0  0.43085  0.02225  0.88265  1.0000
  H   H882      1.0  0.32039  0.13071  0.91417  1.0000
  H   H883      1.0  0.37283  0.13786  0.91103  1.0000
  C   C527      1.0  0.45079  0.05785  0.82180  1.0000
  H   H884      1.0  0.39323  0.04551  0.95369  1.0000
  C   C528      1.0  0.47431  0.27753  0.63639  1.0000
  H   H885      1.0  0.47088  0.25217  0.88679  1.0000
  C   C529      1.0  0.47315  0.05307  0.63031  1.0000
  H   H886      1.0  0.35286  0.06039  0.91968  1.0000
  H   H887      1.0  0.42727  0.25537  0.91964  1.0000
  H   H888      1.0  0.46019  0.06882  0.82761  1.0000
  H   H889      1.0  0.43236  0.03175  0.83175  1.0000
  C   C530      1.0  0.47942  0.30231  0.67159  1.0000
  H   H890      1.0  0.35924  0.01784  0.97108  1.0000
  H   H891      1.0  0.31958  0.32062  0.90766  1.0000
  H   H892      1.0  0.45762  0.25681  0.93375  1.0000
  H   H893      1.0  0.46139  0.07049  0.66277  1.0000
  H   H894      1.0  0.46787  0.27078  0.65348  1.0000
  H   H895      1.0  0.47632  0.31191  0.63896  1.0000
  H   H896      1.0  0.46185  0.08544  0.57481  1.0000
  H   H897      1.0  0.28904  0.25109  0.92412  1.0000
  H   H898      1.0  0.38974  0.11551  0.91774  1.0000
  H   H899      1.0  0.42288  0.04753  0.63193  1.0000
  H   H900      1.0  0.45228  0.05099  0.87630  1.0000
  H   H901      1.0  0.46355  0.29806  0.89601  1.0000
  H   H902      1.0  0.44306  0.27659  0.91736  1.0000
  C   C531      1.0  0.43510  0.26779  0.90755  1.0000
  C   C532      1.0  0.44153  0.05744  0.87168  1.0000
  C   C533      1.0  0.37493  0.05779  0.97173  1.0000
  H   H903      1.0  0.33595  0.10063  0.93532  1.0000
  H   H904      1.0  0.47288  0.10185  0.59039  1.0000
  C   C534      1.0  0.43189  0.06168  0.89285  1.0000
  H   H905      1.0  0.41076  0.02935  0.88877  1.0000
  C   C535      1.0  0.29662  0.26890  0.94852  1.0000
  H   H906      1.0  0.41203  0.28086  0.76565  1.0000
  N   N37       1.0  0.35065  0.12795  0.93868  1.0000
  C   C536      1.0  0.45942  0.07909  0.62864  1.0000
  H   H907      1.0  0.41041  0.26857  0.89379  1.0000
  H   H908      1.0  0.45304  0.23316  0.86756  1.0000
  N   N38       1.0  0.29709  0.28592  0.93305  1.0000
  H   H909      1.0  0.29511  0.31334  0.93541  1.0000
  C   C537      1.0  0.28076  0.28314  0.92182  1.0000
  H   H910      1.0  0.47582  0.31439  0.67692  1.0000
  S   S146      1.0  0.45373  0.00518  0.66662  1.0000
  H   H911      1.0  0.25125  0.27427  0.92714  1.0000
  C   C538      1.0  0.26226  0.27335  0.93663  1.0000
  C   C539      1.0  0.33190  0.20393  0.97425  1.0000
  H   H912      1.0  0.32618  0.31319  0.94452  1.0000
  H   H913      1.0  0.47857  0.29901  0.59617  1.0000
  H   H914      1.0  0.28515  0.26555  0.96263  1.0000
  H   H915      1.0  0.37985  0.13815  0.93676  1.0000
  H   H916      1.0  0.42002  0.06688  0.89026  1.0000
  H   H917      1.0  0.35954  0.12815  0.97005  1.0000
  C   C540      1.0  0.34729  0.14661  0.93535  1.0000
  C   C541      1.0  0.31344  0.30764  0.95669  1.0000
  H   H918      1.0  0.40096  0.01650  0.85409  1.0000
  H   H919      1.0  0.37564  0.10475  0.94342  1.0000
  H   H920      1.0  0.40076  0.00112  0.87830  1.0000
  H   H921      1.0  0.46283  0.29957  0.77890  1.0000
  H   H922      1.0  0.27947  0.29645  0.91357  1.0000
  C   C542      1.0  0.45791  0.27881  0.87256  1.0000
  H   H923      1.0  0.32635  0.29111  0.92374  1.0000
  H   H924      1.0  0.25976  0.27969  0.95117  1.0000
  H   H925      1.0  0.43783  0.03383  0.63956  1.0000
  C   C543      1.0  0.47422  0.09044  0.58176  1.0000
  C   C544      1.0  0.43476  0.24968  0.87863  1.0000
  H   H926      1.0  0.35527  0.17412  0.94232  1.0000
  C   C545      1.0  0.33809  0.11511  0.92758  1.0000
  H   H927      1.0  0.46748  0.27467  0.86060  1.0000
  C   C546      1.0  0.45092  0.07278  0.65308  1.0000
  H   H928      1.0  0.41301  0.07710  0.82991  1.0000
  H   H929      1.0  0.32828  0.31867  0.79579  1.0000
  C   C547      1.0  0.41445  0.30714  0.77596  1.0000
  H   H930      1.0  0.31915  0.10847  0.97233  1.0000
  H   H931      1.0  0.41452  0.28216  0.91422  1.0000
  H   H932      1.0  0.34833  0.15166  0.91753  1.0000
  H   H933      1.0  0.46810  0.02876  0.61447  1.0000
  H   H934      1.0  0.43940  0.06039  0.65641  1.0000
  C   C548      1.0  0.37316  0.24914  0.95337  1.0000
  H   H935      1.0  0.44983  0.08533  0.62063  1.0000
  H   H936      1.0  0.36701  0.10282  0.91812  1.0000
  H   H937      1.0  0.31375  0.27962  0.90602  1.0000
  H   H938      1.0  0.47106  0.30782  0.86826  1.0000
  H   H939      1.0  0.44922  0.07068  0.86136  1.0000
  H   H940      1.0  0.31036  0.25093  0.93233  1.0000
  C   C549      1.0  0.38585  0.23893  0.95444  1.0000
  C   C550      1.0  0.31411  0.29057  0.91601  1.0000
  H   H941      1.0  0.31099  0.10660  0.91977  1.0000
  C   C551      1.0  0.41456  0.05355  0.85258  1.0000
  H   H942      1.0  0.40326  0.22902  0.97438  1.0000
  H   H943      1.0  0.39379  0.28069  0.78600  1.0000
  C   C552      1.0  0.47882  0.07499  0.59652  1.0000
  H   H944      1.0  0.47827  0.25241  0.92244  1.0000
  H   H945      1.0  0.38342  0.30156  0.80632  1.0000
  H   H946      1.0  0.28471  0.29703  0.95924  1.0000
  H   H947      1.0  0.37413  0.16563  0.93426  1.0000
  H   H948      1.0  0.44584  0.08382  0.65923  1.0000
  C   C553      1.0  0.46799  0.25972  0.91862  1.0000
  H   H949      1.0  0.45111  0.03492  0.84567  1.0000
  C   C554      1.0  0.33038  0.11828  0.97716  1.0000
  C   C555      1.0  0.40284  0.28919  0.77087  1.0000
  C   C556      1.0  0.29633  0.25172  0.93811  1.0000
  N   N39       1.0  0.42934  0.04547  0.85951  1.0000
  H   H950      1.0  0.35828  0.26506  0.97044  1.0000
  C   C557      1.0  0.40973  0.01191  0.86493  1.0000
  H   H951      1.0  0.44189  0.31357  0.83935  1.0000
  S   S147      1.0  0.47573  0.01135  0.71945  1.0000
  H   H952      1.0  0.47166  0.09055  0.62829  1.0000
  H   H953      1.0  0.40859  0.04669  0.83978  1.0000
  C   C558      1.0  0.36019  0.16164  0.94408  1.0000
  H   H954      1.0  0.44906  0.28397  0.86220  1.0000
  C   C559      1.0  0.31919  0.11817  0.92610  1.0000
  H   H955      1.0  0.34091  0.07199  0.95193  1.0000
  H   H956      1.0  0.42620  0.02924  0.61806  1.0000
  N   N40       1.0  0.44709  0.26263  0.88972  1.0000
  H   H957      1.0  0.26098  0.25864  0.94192  1.0000
  H   H958      1.0  0.45277  0.04626  0.59576  1.0000
  C   C560      1.0  0.29677  0.30112  0.94587  1.0000
  C   C561      1.0  0.44428  0.24128  0.86095  1.0000
  H   H959      1.0  0.30660  0.30801  0.89002  1.0000
  C   C562      1.0  0.36021  0.06537  0.97122  1.0000
  H   H960      1.0  0.42869  0.30919  0.76755  1.0000
  C   C563      1.0  0.37853  0.31301  0.79892  1.0000
  H   H961      1.0  0.41473  0.30434  0.79380  1.0000
  H   H962      1.0  0.47502  0.27445  0.91476  1.0000
  H   H963      1.0  0.39486  0.29076  0.75776  1.0000
  H   H964      1.0  0.33032  0.31027  0.88771  1.0000
  C   C564      1.0  0.38791  0.32071  0.77489  1.0000
  H   H965      1.0  0.48196  0.06546  0.58564  1.0000
  H   H966      1.0  0.46258  0.25709  0.61776  1.0000
  H   H967      1.0  0.41419  0.31033  0.72928  1.0000
  S   S148      1.0  0.32157  0.98995  0.86879  1.0000
  H   H968      1.0  0.31142  0.31895  0.96523  1.0000
  S   S149      1.0  0.25773  0.31754  0.93843  1.0000
  H   H969      1.0  0.43424  0.99404  0.71121  1.0000
  C   C565      1.0  0.26419  0.32022  0.97977  1.0000
  H   H970      1.0  0.35688  0.00516  0.94958  1.0000
  H   H971      1.0  0.33779  0.21127  0.95723  1.0000
  H   H972      1.0  0.35787  0.19950  0.97628  1.0000
  C   C566      1.0  0.47947  0.03826  0.61954  1.0000
  C   C567      1.0  0.33538  0.99308  0.97797  1.0000
  H   H973      1.0  0.31571  0.01858  0.98001  1.0000
  Fe  Fe73      1.0  0.28015  0.32195  0.85879  1.0000
  H   H974      1.0  0.32256  0.99139  0.97119  1.0000
  H   H975      1.0  0.28953  0.99024  0.84766  1.0000
  C   C568      1.0  0.33288  0.48148  0.44773  1.0000
  H   H976      1.0  0.37950  0.36890  0.14253  1.0000
  H   H977      1.0  0.27441  0.47374  0.27663  1.0000
  C   C569      1.0  0.37993  0.38067  0.15105  1.0000
  C   C570      1.0  0.28357  0.49523  0.29513  1.0000
  Fe  Fe74      1.0  0.30678  0.51340  0.35136  1.0000
  S   S150      1.0  0.30338  0.48560  0.37045  1.0000
  S   S151      1.0  0.28372  0.52241  0.33888  1.0000
  Fe  Fe75      1.0  0.34720  0.52547  0.35346  1.0000
  S   S152      1.0  0.34663  0.49851  0.37304  1.0000
  S   S153      1.0  0.37420  0.54652  0.34204  1.0000
  Fe  Fe76      1.0  0.32974  0.48662  0.34917  1.0000
  S   S154      1.0  0.33462  0.46293  0.33339  1.0000
  Fe  Fe77      1.0  0.32042  0.50038  0.39215  1.0000
  S   S155      1.0  0.30931  0.49777  0.42814  1.0000
  S   S156      1.0  0.33196  0.51350  0.32853  1.0000
  S   S157      1.0  0.32226  0.52831  0.37405  1.0000
  S   S158      1.0  0.39431  0.61081  0.39539  1.0000
  H   H978      1.0  0.43884  0.58612  0.46619  1.0000
  C   C571      1.0  0.39693  0.38552  0.16183  1.0000
  S   S159      1.0  0.29177  0.33620  0.07008  1.0000
  N   N41       1.0  0.41515  0.39224  0.14660  1.0000
  Fe  Fe78      1.0  0.46045  0.63696  0.39874  1.0000
  S   S160      1.0  0.29350  0.35982  0.12240  1.0000
  Fe  Fe79      1.0  0.35488  0.44950  0.21173  1.0000
  S   S161      1.0  0.36910  0.46488  0.17810  1.0000
  S   S162      1.0  0.33719  0.46341  0.23147  1.0000
  Fe  Fe80      1.0  0.37095  0.41775  0.20643  1.0000
  S   S163      1.0  0.38679  0.43115  0.17315  1.0000
  S   S164      1.0  0.37162  0.38888  0.21747  1.0000
  Fe  Fe81      1.0  0.39356  0.45683  0.18755  1.0000
  S   S165      1.0  0.42323  0.47325  0.18396  1.0000
  Fe  Fe82      1.0  0.36083  0.43755  0.16708  1.0000
  S   S166      1.0  0.34968  0.43264  0.13569  1.0000
  S   S167      1.0  0.37961  0.44259  0.22162  1.0000
  S   S168      1.0  0.34467  0.42310  0.19994  1.0000
  Fe  Fe83      1.0  0.46216  0.36815  0.20846  1.0000
  H   H979      1.0  0.39458  0.39579  0.17187  1.0000
  S   S169      1.0  0.45003  0.38426  0.23063  1.0000
  S   S170      1.0  0.45381  0.55789  0.18801  1.0000
  C   C572      1.0  0.43143  0.49691  0.18466  1.0000
  C   C573      1.0  0.42020  0.50871  0.18392  1.0000
  C   C574      1.0  0.42731  0.52738  0.18461  1.0000
  C   C575      1.0  0.44563  0.53443  0.18627  1.0000
  C   C576      1.0  0.45683  0.52260  0.18707  1.0000
  C   C577      1.0  0.44978  0.50399  0.18617  1.0000
  H   H980      1.0  0.40610  0.50351  0.18256  1.0000
  H   H981      1.0  0.41856  0.53642  0.18381  1.0000
  H   H982      1.0  0.36559  0.52055  0.46920  1.0000
  H   H983      1.0  0.45861  0.49504  0.18670  1.0000
  C   C578      1.0  0.39314  0.38736  0.22202  1.0000
  C   C579      1.0  0.39868  0.37175  0.21860  1.0000
  C   C580      1.0  0.41631  0.37084  0.22079  1.0000
  C   C581      1.0  0.42811  0.38523  0.22736  1.0000
  C   C582      1.0  0.42239  0.40058  0.23146  1.0000
  C   C583      1.0  0.40503  0.40180  0.22840  1.0000
  H   H984      1.0  0.38941  0.36049  0.21390  1.0000
  H   H985      1.0  0.42065  0.35890  0.21778  1.0000
  H   H986      1.0  0.43145  0.41164  0.23675  1.0000
  H   H987      1.0  0.40077  0.41383  0.23118  1.0000
  H   H988      1.0  0.34385  0.53432  0.47000  1.0000
  C   C584      1.0  0.42997  0.41291  0.17219  1.0000
  H   H989      1.0  0.39650  0.37320  0.17379  1.0000
  C   C585      1.0  0.28563  0.41221  0.15264  1.0000
  C   C586      1.0  0.33533  0.41184  0.13132  1.0000
  C   C587      1.0  0.33042  0.39587  0.14706  1.0000
  C   C588      1.0  0.31798  0.38004  0.14369  1.0000
  C   C589      1.0  0.31033  0.37983  0.12455  1.0000
  C   C590      1.0  0.31559  0.39567  0.10854  1.0000
  C   C591      1.0  0.32802  0.41154  0.11192  1.0000
  H   H990      1.0  0.33599  0.39577  0.16199  1.0000
  H   H991      1.0  0.31410  0.36788  0.15615  1.0000
  H   H992      1.0  0.30984  0.39579  0.09373  1.0000
  H   H993      1.0  0.33174  0.42377  0.09957  1.0000
  C   C592      1.0  0.32093  0.49249  0.44945  1.0000
  C   C593      1.0  0.42940  0.39619  0.16087  1.0000
  H   H994      1.0  0.25355  0.47308  0.32856  1.0000
  H   H995      1.0  0.33530  0.47603  0.43291  1.0000
  C   C594      1.0  0.33620  0.46372  0.30483  1.0000
  C   C595      1.0  0.33119  0.47722  0.29167  1.0000
  C   C596      1.0  0.33163  0.47695  0.26922  1.0000
  C   C597      1.0  0.33751  0.46349  0.25957  1.0000
  C   C598      1.0  0.34297  0.45022  0.27258  1.0000
  C   C599      1.0  0.34212  0.45024  0.29518  1.0000
  H   H996      1.0  0.32660  0.48765  0.29884  1.0000
  H   H997      1.0  0.32742  0.48728  0.25924  1.0000
  H   H998      1.0  0.34744  0.43971  0.26534  1.0000
  H   H999      1.0  0.34599  0.43972  0.30525  1.0000
  C   C600      1.0  0.37939  0.56425  0.35713  1.0000
  C   C601      1.0  0.39719  0.57552  0.35336  1.0000
  C   C602      1.0  0.40178  0.58980  0.36506  1.0000
  C   C603      1.0  0.38854  0.59305  0.38046  1.0000
  C   C604      1.0  0.37071  0.58177  0.38429  1.0000
  C   C605      1.0  0.36616  0.56732  0.37273  1.0000
  H   H1000     1.0  0.40752  0.57319  0.34141  1.0000
  H   H1001     1.0  0.41560  0.59828  0.36208  1.0000
  H   H1002     1.0  0.36042  0.58425  0.39614  1.0000
  H   H1003     1.0  0.35240  0.55876  0.37569  1.0000
  H   H1004     1.0  0.24507  0.50997  0.40973  1.0000
  H   H1005     1.0  0.27127  0.50342  0.44095  1.0000
  C   C606      1.0  0.25798  0.49237  0.36401  1.0000
  C   C607      1.0  0.26179  0.50740  0.34707  1.0000
  C   C608      1.0  0.24788  0.51058  0.33618  1.0000
  H   H1006     1.0  0.35820  0.55231  0.42124  1.0000
  H   H1007     1.0  0.46345  0.34148  0.27388  1.0000
  H   H1008     1.0  0.26847  0.48999  0.37281  1.0000
  S   S171      1.0  0.46472  0.60354  0.33502  1.0000
  Fe  Fe84      1.0  0.27836  0.34912  0.09553  1.0000
  C   C609      1.0  0.30055  0.41370  0.18538  1.0000
  H   H1009     1.0  0.24188  0.46844  0.44908  1.0000
  H   H1010     1.0  0.25837  0.41995  0.17882  1.0000
  H   H1011     1.0  0.43049  0.63633  0.46630  1.0000
  C   C610      1.0  0.25096  0.55100  0.36826  1.0000
  N   N42       1.0  0.39898  0.49882  0.25568  1.0000
  C   C611      1.0  0.38442  0.49120  0.27579  1.0000
  C   C612      1.0  0.40146  0.48314  0.24456  1.0000
  C   C613      1.0  0.39368  0.51235  0.23986  1.0000
  C   C614      1.0  0.41624  0.50849  0.26257  1.0000
  C   C615      1.0  0.37782  0.50528  0.28783  1.0000
  C   C616      1.0  0.41141  0.47044  0.25593  1.0000
  C   C617      1.0  0.37578  0.50505  0.23169  1.0000
  C   C618      1.0  0.43299  0.51650  0.24406  1.0000
  H   H1012     1.0  0.37219  0.48204  0.27179  1.0000
  H   H1013     1.0  0.38909  0.48239  0.28811  1.0000
  H   H1014     1.0  0.40870  0.48797  0.22735  1.0000
  H   H1015     1.0  0.38804  0.47429  0.24311  1.0000
  H   H1016     1.0  0.39276  0.52464  0.24698  1.0000
  H   H1017     1.0  0.40440  0.51758  0.22500  1.0000
  H   H1018     1.0  0.41427  0.52028  0.27014  1.0000
  H   H1019     1.0  0.41997  0.49970  0.27588  1.0000
  H   H1020     1.0  0.38887  0.51441  0.29383  1.0000
  H   H1021     1.0  0.37091  0.51342  0.27767  1.0000
  H   H1022     1.0  0.36757  0.49781  0.30256  1.0000
  H   H1023     1.0  0.40459  0.46447  0.27304  1.0000
  H   H1024     1.0  0.41136  0.45893  0.24692  1.0000
  H   H1025     1.0  0.42588  0.47751  0.25548  1.0000
  H   H1026     1.0  0.37343  0.51614  0.22003  1.0000
  H   H1027     1.0  0.36394  0.50070  0.24521  1.0000
  H   H1028     1.0  0.37627  0.49367  0.22268  1.0000
  H   H1029     1.0  0.43359  0.53066  0.23652  1.0000
  H   H1030     1.0  0.43330  0.50830  0.23091  1.0000
  H   H1031     1.0  0.44562  0.51662  0.25075  1.0000
  H   H1032     1.0  0.28149  0.38712  0.20307  1.0000
  C   C619      1.0  0.29033  0.57128  0.35128  1.0000
  H   H1033     1.0  0.43882  0.39081  0.10605  1.0000
  H   H1034     1.0  0.44078  0.41412  0.18236  1.0000
  H   H1035     1.0  0.30325  0.57214  0.34033  1.0000
  H   H1036     1.0  0.46635  0.33418  0.31170  1.0000
  H   H1037     1.0  0.36397  0.51513  0.41008  1.0000
  H   H1038     1.0  0.27563  0.38860  0.13784  1.0000
  H   H1039     1.0  0.47652  0.58301  0.38397  1.0000
  H   H1040     1.0  0.41099  0.55657  0.24182  1.0000
  H   H1041     1.0  0.38677  0.51230  0.40605  1.0000
  H   H1042     1.0  0.36380  0.50931  0.44656  1.0000
  H   H1043     1.0  0.45351  0.57452  0.27370  1.0000
  C   C620      1.0  0.24092  0.46421  0.30202  1.0000
  H   H1044     1.0  0.25963  0.57692  0.30146  1.0000
  H   H1045     1.0  0.26004  0.55281  0.38043  1.0000
  H   H1046     1.0  0.35069  0.46870  0.46411  1.0000
  N   N43       1.0  0.43813  0.58898  0.25504  1.0000
  C   C621      1.0  0.43734  0.60186  0.27109  1.0000
  C   C622      1.0  0.45481  0.59668  0.23727  1.0000
  C   C623      1.0  0.44044  0.57162  0.26744  1.0000
  C   C624      1.0  0.42077  0.58507  0.24597  1.0000
  C   C625      1.0  0.43867  0.62175  0.26141  1.0000
  C   C626      1.0  0.42534  0.56154  0.28722  1.0000
  C   C627      1.0  0.41864  0.57001  0.23177  1.0000
  H   H1047     1.0  0.42444  0.59698  0.28324  1.0000
  H   H1048     1.0  0.44847  0.60238  0.28080  1.0000
  H   H1049     1.0  0.26341  0.44168  0.28892  1.0000
  C   C628      1.0  0.23714  0.47880  0.45740  1.0000
  H   H1050     1.0  0.44176  0.56163  0.25644  1.0000
  H   H1051     1.0  0.28331  0.47583  0.33422  1.0000
  H   H1052     1.0  0.40872  0.58109  0.25938  1.0000
  H   H1053     1.0  0.41889  0.59752  0.23635  1.0000
  H   H1054     1.0  0.42805  0.62276  0.25143  1.0000
  H   H1055     1.0  0.43656  0.62924  0.27509  1.0000
  H   H1056     1.0  0.45244  0.62882  0.25187  1.0000
  H   H1057     1.0  0.42838  0.54878  0.29428  1.0000
  H   H1058     1.0  0.41175  0.55752  0.28260  1.0000
  H   H1059     1.0  0.42488  0.56964  0.30055  1.0000
  H   H1060     1.0  0.43189  0.56881  0.22368  1.0000
  H   H1061     1.0  0.41134  0.57334  0.21832  1.0000
  H   H1062     1.0  0.27935  0.58143  0.32441  1.0000
  H   H1063     1.0  0.38019  0.52704  0.38637  1.0000
  H   H1064     1.0  0.29255  0.58413  0.35792  1.0000
  H   H1065     1.0  0.25276  0.53851  0.36212  1.0000
  H   H1066     1.0  0.35198  0.55852  0.45922  1.0000
  H   H1067     1.0  0.46652  0.61543  0.20653  1.0000
  H   H1068     1.0  0.34829  0.52879  0.43050  1.0000
  H   H1069     1.0  0.24537  0.44931  0.33134  1.0000
  H   H1070     1.0  0.44658  0.36400  0.27643  1.0000
  H   H1071     1.0  0.38615  0.55119  0.40372  1.0000
  S   S172      1.0  0.44032  0.33772  0.14804  1.0000
  H   H1072     1.0  0.40957  0.63277  0.43979  1.0000
  S   S173      1.0  0.46716  0.37692  0.17216  1.0000
  H   H1073     1.0  0.24878  0.48522  0.46481  1.0000
  H   H1074     1.0  0.43326  0.42584  0.16030  1.0000
  S   S174      1.0  0.25145  0.32324  0.05559  1.0000
  H   H1075     1.0  0.33736  0.33745  0.00396  1.0000
  H   H1076     1.0  0.33210  0.54498  0.45193  1.0000
  C   C629      1.0  0.34585  0.54494  0.45536  1.0000
  C   C630      1.0  0.41629  0.62767  0.47226  1.0000
  S   S175      1.0  0.47537  0.64902  0.36434  1.0000
  S   S176      1.0  0.25383  0.32451  0.10699  1.0000
  H   H1077     1.0  0.40844  0.63739  0.47683  1.0000
  H   H1078     1.0  0.23919  0.45314  0.29224  1.0000
  C   C631      1.0  0.40987  0.62086  0.45185  1.0000
  C   C632      1.0  0.43850  0.59829  0.47379  1.0000
  H   H1079     1.0  0.29504  0.47454  0.28532  1.0000
  C   C633      1.0  0.25302  0.46176  0.31921  1.0000
  C   C634      1.0  0.23628  0.51456  0.46912  1.0000
  H   H1080     1.0  0.27592  0.43381  0.34510  1.0000
  H   H1081     1.0  0.26453  0.52431  0.43353  1.0000
  H   H1082     1.0  0.43536  0.36694  0.11270  1.0000
  N   N44       1.0  0.27187  0.46059  0.31054  1.0000
  H   H1083     1.0  0.24844  0.58708  0.39128  1.0000
  C   C635      1.0  0.29601  0.39346  0.19630  1.0000
  H   H1084     1.0  0.42763  0.38409  0.17386  1.0000
  H   H1085     1.0  0.23968  0.35348  0.03244  1.0000
  H   H1086     1.0  0.29619  0.43706  0.31051  1.0000
  C   C636      1.0  0.27030  0.44238  0.30338  1.0000
  H   H1087     1.0  0.39641  0.58278  0.44426  1.0000
  H   H1088     1.0  0.42772  0.34858  0.29474  1.0000
  H   H1089     1.0  0.35316  0.33355  0.98270  1.0000
  H   H1090     1.0  0.46613  0.60479  0.24393  1.0000
  H   H1091     1.0  0.27731  0.38243  0.16570  1.0000
  H   H1092     1.0  0.25899  0.39172  0.15841  1.0000
  C   C637      1.0  0.25412  0.58455  0.35670  1.0000
  C   C638      1.0  0.28302  0.46270  0.32843  1.0000
  C   C639      1.0  0.28837  0.43750  0.29695  1.0000
  C   C640      1.0  0.28111  0.47545  0.29115  1.0000
  C   C641      1.0  0.44873  0.33610  0.28079  1.0000
  H   H1093     1.0  0.28040  0.42094  0.14078  1.0000
  H   H1094     1.0  0.24639  0.59004  0.31539  1.0000
  H   H1095     1.0  0.30085  0.38522  0.18478  1.0000
  Fe  Fe85      1.0  0.24047  0.33735  0.08132  1.0000
  C   C642      1.0  0.24329  0.56232  0.33365  1.0000
  C   C643      1.0  0.38586  0.53870  0.41529  1.0000
  H   H1096     1.0  0.23567  0.57175  0.30294  1.0000
  H   H1097     1.0  0.30819  0.50748  0.47049  1.0000
  H   H1098     1.0  0.47968  0.63705  0.30266  1.0000
  H   H1099     1.0  0.44742  0.38068  0.12907  1.0000
  C   C644      1.0  0.31761  0.49917  0.46892  1.0000
  H   H1100     1.0  0.44182  0.33385  0.26653  1.0000
  C   C645      1.0  0.41500  0.40882  0.13071  1.0000
  C   C646      1.0  0.39006  0.51464  0.45593  1.0000
  C   C647      1.0  0.43353  0.42093  0.11755  1.0000
  H   H1101     1.0  0.40626  0.40475  0.11852  1.0000
  H   H1102     1.0  0.40841  0.41790  0.13938  1.0000
  C   C648      1.0  0.34920  0.33182  0.00075  1.0000
  H   H1103     1.0  0.27684  0.51536  0.41360  1.0000
  H   H1104     1.0  0.24339  0.54888  0.32898  1.0000
  H   H1105     1.0  0.43403  0.42068  0.09978  1.0000
  H   H1106     1.0  0.44519  0.60012  0.20582  1.0000
  H   H1107     1.0  0.43508  0.43536  0.11959  1.0000
  C   C649      1.0  0.45276  0.60859  0.21630  1.0000
  H   H1108     1.0  0.44330  0.39842  0.15177  1.0000
  H   H1109     1.0  0.28532  0.42364  0.29269  1.0000
  Fe  Fe86      1.0  0.42372  0.62625  0.38423  1.0000
  H   H1110     1.0  0.35203  0.33126  0.04295  1.0000
  C   C650      1.0  0.24044  0.48033  0.36964  1.0000
  C   C651      1.0  0.48215  0.62568  0.29543  1.0000
  H   H1111     1.0  0.44560  0.41715  0.12216  1.0000
  S   S177      1.0  0.43536  0.63784  0.34895  1.0000
  H   H1112     1.0  0.29600  0.49995  0.30220  1.0000
  H   H1113     1.0  0.47482  0.57967  0.30753  1.0000
  H   H1114     1.0  0.44620  0.61945  0.21950  1.0000
  H   H1115     1.0  0.28830  0.55929  0.36433  1.0000
  Fe  Fe87      1.0  0.46093  0.34673  0.17066  1.0000
  C   C652      1.0  0.26605  0.51141  0.42847  1.0000
  C   C653      1.0  0.27367  0.39261  0.15420  1.0000
  H   H1116     1.0  0.25018  0.51303  0.46865  1.0000
  S   S178      1.0  0.44483  0.61153  0.38901  1.0000
  H   H1117     1.0  0.23961  0.58487  0.35869  1.0000
  Fe  Fe88      1.0  0.45765  0.62459  0.35429  1.0000
  H   H1118     1.0  0.40721  0.37384  0.12420  1.0000
  H   H1119     1.0  0.26907  0.58037  0.38478  1.0000
  H   H1120     1.0  0.26144  0.43105  0.31627  1.0000
  C   C654      1.0  0.23616  0.36235  0.01915  1.0000
  Fe  Fe89      1.0  0.27560  0.34752  0.04724  1.0000
  H   H1121     1.0  0.40034  0.53951  0.41620  1.0000
  C   C655      1.0  0.41751  0.37682  0.13492  1.0000
  C   C656      1.0  0.34147  0.47724  0.46546  1.0000
  H   H1122     1.0  0.30440  0.42222  0.19790  1.0000
  H   H1123     1.0  0.31161  0.44334  0.13651  1.0000
  C   C657      1.0  0.38614  0.55343  0.44759  1.0000
  H   H1124     1.0  0.41944  0.61423  0.44349  1.0000
  C   C658      1.0  0.24836  0.50044  0.42255  1.0000
  S   S179      1.0  0.28743  0.36004  0.01168  1.0000
  H   H1125     1.0  0.44330  0.61048  0.46067  1.0000
  C   C659      1.0  0.37274  0.52049  0.45255  1.0000
  H   H1126     1.0  0.29751  0.46372  0.32223  1.0000
  H   H1127     1.0  0.29393  0.44662  0.18254  1.0000
  H   H1128     1.0  0.26965  0.43595  0.20830  1.0000
  C   C660      1.0  0.43594  0.37943  0.12000  1.0000
  S   S180      1.0  0.26426  0.36269  0.07161  1.0000
  H   H1129     1.0  0.31320  0.46360  0.14784  1.0000
  C   C661      1.0  0.29255  0.44027  0.16773  1.0000
  H   H1130     1.0  0.41673  0.32941  0.11680  1.0000
  C   C662      1.0  0.31098  0.44861  0.15212  1.0000
  C   C663      1.0  0.26702  0.42092  0.21013  1.0000
  N   N45       1.0  0.28660  0.41968  0.17369  1.0000
  H   H1131     1.0  0.39825  0.51373  0.44038  1.0000
  H   H1132     1.0  0.28618  0.45000  0.36035  1.0000
  H   H1133     1.0  0.30304  0.39242  0.21057  1.0000
  H   H1134     1.0  0.31360  0.41635  0.17381  1.0000
  H   H1135     1.0  0.29941  0.41255  0.14435  1.0000
  C   C664      1.0  0.38954  0.57290  0.43478  1.0000
  H   H1136     1.0  0.41526  0.36403  0.14702  1.0000
  H   H1137     1.0  0.32246  0.44654  0.16014  1.0000
  H   H1138     1.0  0.26833  0.60310  0.37597  1.0000
  C   C665      1.0  0.26798  0.41452  0.18781  1.0000
  C   C666      1.0  0.44267  0.35185  0.28974  1.0000
  H   H1139     1.0  0.28215  0.44545  0.16004  1.0000
  S   S181      1.0  0.45400  0.33818  0.20753  1.0000
  H   H1140     1.0  0.26188  0.39955  0.19149  1.0000
  H   H1141     1.0  0.37955  0.55289  0.46473  1.0000
  H   H1142     1.0  0.46023  0.58566  0.23139  1.0000
  H   H1143     1.0  0.39985  0.55164  0.44888  1.0000
  H   H1144     1.0  0.40966  0.59013  0.47525  1.0000
  H   H1145     1.0  0.27542  0.55731  0.32936  1.0000
  H   H1146     1.0  0.37849  0.39254  0.13985  1.0000
  C   C667      1.0  0.26040  0.58857  0.37838  1.0000
  N   N46       1.0  0.25603  0.56701  0.34957  1.0000
  H   H1147     1.0  0.24859  0.37381  0.01286  1.0000
  C   C668      1.0  0.27503  0.56920  0.33764  1.0000
  H   H1148     1.0  0.26146  0.59649  0.34366  1.0000
  H   H1149     1.0  0.39855  0.52368  0.46508  1.0000
  H   H1150     1.0  0.29710  0.44688  0.28227  1.0000
  C   C669      1.0  0.37853  0.52222  0.40428  1.0000
  C   C670      1.0  0.24674  0.57625  0.31225  1.0000
  H   H1151     1.0  0.27182  0.49697  0.30598  1.0000
  H   H1152     1.0  0.39606  0.61152  0.45537  1.0000
  H   H1153     1.0  0.41720  0.41160  0.18345  1.0000
  H   H1154     1.0  0.25082  0.52195  0.32278  1.0000
  C   C671      1.0  0.27640  0.44755  0.34892  1.0000
  H   H1155     1.0  0.45442  0.45140  0.18901  1.0000
  H   H1156     1.0  0.37685  0.57642  0.43197  1.0000
  H   H1157     1.0  0.28466  0.50441  0.27940  1.0000
  C   C672      1.0  0.47247  0.64543  0.44876  1.0000
  S   S182      1.0  0.43802  0.65074  0.39709  1.0000
  H   H1158     1.0  0.47095  0.52780  0.18837  1.0000
  H   H1159     1.0  0.27638  0.41619  0.22003  1.0000
  S   S183      1.0  0.47441  0.63253  0.42772  1.0000
  H   H1160     1.0  0.36766  0.37658  0.16415  1.0000
  H   H1161     1.0  0.26298  0.44767  0.35782  1.0000
  H   H1162     1.0  0.38591  0.50077  0.46617  1.0000
  N   N47       1.0  0.37547  0.53844  0.43762  1.0000
  C   C673      1.0  0.28006  0.34790  0.99114  1.0000
  C   C674      1.0  0.35704  0.54106  0.43503  1.0000
  H   H1163     1.0  0.25303  0.41499  0.21967  1.0000
  H   H1164     1.0  0.44949  0.35607  0.30338  1.0000
  H   H1165     1.0  0.39883  0.57507  0.41891  1.0000
  H   H1166     1.0  0.24618  0.47768  0.29105  1.0000
  H   H1167     1.0  0.24310  0.34677  0.99550  1.0000
  H   H1168     1.0  0.23759  0.46857  0.38253  1.0000
  C   C675      1.0  0.46093  0.45219  0.20369  1.0000
  C   C676      1.0  0.48188  0.45898  0.19765  1.0000
  H   H1169     1.0  0.47131  0.42061  0.19946  1.0000
  H   H1170     1.0  0.48008  0.43272  0.23335  1.0000
  H   H1171     1.0  0.25181  0.48944  0.41430  1.0000
  H   H1172     1.0  0.36092  0.34007  0.00666  1.0000
  C   C677      1.0  0.27076  0.32935  0.99617  1.0000
  H   H1173     1.0  0.44427  0.32829  0.32791  1.0000
  H   H1174     1.0  0.47086  0.43948  0.16621  1.0000
  H   H1175     1.0  0.45617  0.43889  0.21501  1.0000
  H   H1176     1.0  0.45583  0.46218  0.21225  1.0000
  C   C678      1.0  0.47609  0.60801  0.30764  1.0000
  C   C679      1.0  0.47800  0.64034  0.46858  1.0000
  H   H1177     1.0  0.32186  0.32664  0.04064  1.0000
  H   H1178     1.0  0.23743  0.52940  0.46764  1.0000
  C   C680      1.0  0.47941  0.59337  0.29809  1.0000
  H   H1179     1.0  0.33693  0.36429  0.84692  1.0000
  C   C681      1.0  0.27670  0.34790  0.95291  1.0000
  H   H1180     1.0  0.46867  0.56888  0.75603  1.0000
  Fe  Fe90      1.0  0.34957  0.49806  0.53195  1.0000
  S   S184      1.0  0.35217  0.52774  0.52092  1.0000
  S   S185      1.0  0.35092  0.48064  0.50575  1.0000
  Fe  Fe91      1.0  0.34713  0.50150  0.58049  1.0000
  S   S186      1.0  0.34947  0.53144  0.57262  1.0000
  S   S187      1.0  0.34128  0.49096  0.61718  1.0000
  Fe  Fe92      1.0  0.33000  0.52394  0.54979  1.0000
  S   S188      1.0  0.30759  0.53805  0.54866  1.0000
  Fe  Fe93      1.0  0.37127  0.53221  0.54476  1.0000
  S   S189      1.0  0.39864  0.55288  0.53566  1.0000
  S   S190      1.0  0.32599  0.49381  0.55938  1.0000
  S   S191      1.0  0.37046  0.50270  0.55401  1.0000
  S   S192      1.0  0.41103  0.61832  0.58775  1.0000
  Fe  Fe94      1.0  0.39545  0.46782  0.70919  1.0000
  S   S193      1.0  0.38020  0.48335  0.72885  1.0000
  S   S194      1.0  0.39925  0.47068  0.67216  1.0000
  Fe  Fe95      1.0  0.40789  0.45118  0.74927  1.0000
  S   S195      1.0  0.39368  0.46565  0.77180  1.0000
  S   S196      1.0  0.42357  0.43414  0.76610  1.0000
  Fe  Fe96      1.0  0.37047  0.45732  0.75399  1.0000
  S   S197      1.0  0.34039  0.44619  0.76926  1.0000
  Fe  Fe97      1.0  0.40495  0.49010  0.74479  1.0000
  S   S198      1.0  0.41653  0.51940  0.74931  1.0000
  S   S199      1.0  0.38407  0.44124  0.73304  1.0000
  S   S200      1.0  0.42083  0.47614  0.72361  1.0000
  S   S201      1.0  0.44958  0.37434  0.72046  1.0000
  H   H1181     1.0  0.31521  0.37278  0.75729  1.0000
  H   H1182     1.0  0.38923  0.49914  0.78612  1.0000
  S   S202      1.0  0.25533  0.35402  0.88652  1.0000
  C   C682      1.0  0.48319  0.42132  0.70553  1.0000
  C   C683      1.0  0.47716  0.43625  0.71641  1.0000
  C   C684      1.0  0.26353  0.49822  0.62070  1.0000
  Fe  Fe98      1.0  0.28272  0.36163  0.86413  1.0000
  S   S203      1.0  0.30534  0.38840  0.85737  1.0000
  H   H1183     1.0  0.40900  0.52857  0.66596  1.0000
  C   C685      1.0  0.43930  0.52816  0.75294  1.0000
  C   C686      1.0  0.44582  0.54689  0.75321  1.0000
  C   C687      1.0  0.46384  0.55443  0.75591  1.0000
  C   C688      1.0  0.47540  0.54319  0.75895  1.0000
  C   C689      1.0  0.46880  0.52440  0.75899  1.0000
  C   C690      1.0  0.45092  0.51694  0.75575  1.0000
  H   H1184     1.0  0.43689  0.55565  0.75133  1.0000
  C   C691      1.0  0.27914  0.47623  0.60889  1.0000
  H   H1185     1.0  0.44604  0.50248  0.75574  1.0000
  C   C692      1.0  0.42899  0.41655  0.75385  1.0000
  C   C693      1.0  0.43905  0.40624  0.76423  1.0000
  C   C694      1.0  0.44517  0.39318  0.75416  1.0000
  C   C695      1.0  0.44106  0.39007  0.73376  1.0000
  C   C696      1.0  0.43036  0.39990  0.72368  1.0000
  C   C697      1.0  0.42442  0.41326  0.73365  1.0000
  H   H1186     1.0  0.44251  0.40866  0.77993  1.0000
  C   C698      1.0  0.30726  0.37428  0.77266  1.0000
  H   H1187     1.0  0.42711  0.39758  0.70787  1.0000
  H   H1188     1.0  0.41668  0.42125  0.72550  1.0000
  C   C699      1.0  0.33109  0.42942  0.79325  1.0000
  C   C700      1.0  0.31223  0.42120  0.79796  1.0000
  C   C701      1.0  0.30421  0.40814  0.81713  1.0000
  C   C702      1.0  0.31494  0.40351  0.83210  1.0000
  C   C703      1.0  0.33376  0.41196  0.82754  1.0000
  C   C704      1.0  0.34187  0.42454  0.80802  1.0000
  H   H1189     1.0  0.30375  0.42496  0.78672  1.0000
  H   H1190     1.0  0.28968  0.40201  0.82059  1.0000
  H   H1191     1.0  0.34213  0.40869  0.83919  1.0000
  H   H1192     1.0  0.35637  0.43084  0.80470  1.0000
  N   N48       1.0  0.36354  0.49538  0.80734  1.0000
  H   H1193     1.0  0.34636  0.33585  0.77795  1.0000
  H   H1194     1.0  0.30515  0.47131  0.61597  1.0000
  H   H1195     1.0  0.31623  0.52429  0.60752  1.0000
  C   C705      1.0  0.35731  0.48465  0.63211  1.0000
  C   C706      1.0  0.37330  0.48168  0.62174  1.0000
  C   C707      1.0  0.38587  0.47703  0.63428  1.0000
  C   C708      1.0  0.38263  0.47548  0.65718  1.0000
  C   C709      1.0  0.36655  0.47831  0.66752  1.0000
  C   C710      1.0  0.35391  0.48276  0.65503  1.0000
  H   H1196     1.0  0.37599  0.48293  0.60411  1.0000
  H   H1197     1.0  0.39824  0.47476  0.62617  1.0000
  H   H1198     1.0  0.36386  0.47704  0.68514  1.0000
  H   H1199     1.0  0.34149  0.48488  0.66318  1.0000
  C   C711      1.0  0.40194  0.57061  0.55078  1.0000
  C   C712      1.0  0.41965  0.58090  0.55081  1.0000
  C   C713      1.0  0.42259  0.59564  0.56208  1.0000
  C   C714      1.0  0.40782  0.60012  0.57332  1.0000
  C   C715      1.0  0.39012  0.58966  0.57354  1.0000
  C   C716      1.0  0.38717  0.57499  0.56219  1.0000
  H   H1200     1.0  0.43112  0.57752  0.54202  1.0000
  H   H1201     1.0  0.43629  0.60345  0.56215  1.0000
  H   H1202     1.0  0.37864  0.59311  0.58221  1.0000
  H   H1203     1.0  0.37346  0.56742  0.56180  1.0000
  C   C717      1.0  0.41904  0.59618  0.48577  1.0000
  C   C718      1.0  0.29257  0.46445  0.61070  1.0000
  C   C719      1.0  0.29462  0.50157  0.62664  1.0000
  C   C720      1.0  0.25823  0.64345  0.60201  1.0000
  H   H1204     1.0  0.32412  0.50088  0.50111  1.0000
  S   S204      1.0  0.27239  0.34506  0.83943  1.0000
  C   C721      1.0  0.24883  0.50236  0.56464  1.0000
  C   C722      1.0  0.26318  0.49441  0.56057  1.0000
  C   C723      1.0  0.28121  0.50536  0.55472  1.0000
  C   C724      1.0  0.28501  0.52425  0.55352  1.0000
  C   C725      1.0  0.27059  0.53225  0.55703  1.0000
  C   C726      1.0  0.25252  0.52134  0.56243  1.0000
  H   H1205     1.0  0.26037  0.47976  0.56194  1.0000
  H   H1206     1.0  0.29214  0.49912  0.55131  1.0000
  H   H1207     1.0  0.27342  0.54689  0.55588  1.0000
  H   H1208     1.0  0.33759  0.49926  0.82028  1.0000
  C   C727      1.0  0.35587  0.51097  0.84055  1.0000
  H   H1209     1.0  0.39762  0.60032  0.52268  1.0000
  H   H1210     1.0  0.33988  0.47779  0.79845  1.0000
  H   H1211     1.0  0.27607  0.46041  0.67676  1.0000
  C   C728      1.0  0.28356  0.47025  0.66171  1.0000
  H   H1212     1.0  0.46164  0.54789  0.63850  1.0000
  H   H1213     1.0  0.23527  0.49620  0.61838  1.0000
  H   H1214     1.0  0.33879  0.47243  0.84379  1.0000
  S   S205      1.0  0.29151  0.33897  0.88247  1.0000
  C   C729      1.0  0.26038  0.62526  0.59588  1.0000
  C   C730      1.0  0.46652  0.46536  0.73641  1.0000
  C   C731      1.0  0.42958  0.62121  0.50483  1.0000
  H   H1215     1.0  0.34177  0.49130  0.76175  1.0000
  H   H1216     1.0  0.39814  0.50795  0.82181  1.0000
  H   H1217     1.0  0.44575  0.55874  0.69286  1.0000
  H   H1218     1.0  0.44208  0.35438  0.76566  1.0000
  C   C732      1.0  0.33017  0.35870  0.83382  1.0000
  H   H1219     1.0  0.46270  0.42987  0.72411  1.0000
  H   H1220     1.0  0.35405  0.51968  0.80679  1.0000
  C   C733      1.0  0.42678  0.63739  0.51567  1.0000
  H   H1221     1.0  0.24175  0.47634  0.61312  1.0000
  H   H1222     1.0  0.41506  0.33145  0.71299  1.0000
  H   H1223     1.0  0.26234  0.48316  0.65944  1.0000
  H   H1224     1.0  0.36901  0.50981  0.84476  1.0000
  H   H1225     1.0  0.45116  0.56069  0.65527  1.0000
  C   C734      1.0  0.34153  0.36866  0.81126  1.0000
  C   C735      1.0  0.26698  0.32949  0.95815  1.0000
  C   C736      1.0  0.24352  0.48691  0.62360  1.0000
  C   C737      1.0  0.47554  0.55430  0.66556  1.0000
  H   H1226     1.0  0.28271  0.48453  0.59222  1.0000
  H   H1227     1.0  0.48049  0.40845  0.71744  1.0000
  C   C738      1.0  0.35080  0.49952  0.77122  1.0000
  H   H1228     1.0  0.41646  0.58549  0.50067  1.0000
  H   H1229     1.0  0.41550  0.63294  0.52998  1.0000
  H   H1230     1.0  0.41046  0.34983  0.78237  1.0000
  H   H1231     1.0  0.28603  0.45116  0.62176  1.0000
  C   C739      1.0  0.41579  0.33758  0.78474  1.0000
  S   S206      1.0  0.47385  0.33733  0.73984  1.0000
  H   H1232     1.0  0.47105  0.55106  0.70951  1.0000
  C   C740      1.0  0.32368  0.34561  0.79263  1.0000
  H   H1233     1.0  0.46463  0.44076  0.75860  1.0000
  H   H1234     1.0  0.47036  0.62822  0.67325  1.0000
  N   N49       1.0  0.41532  0.61339  0.49191  1.0000
  H   H1235     1.0  0.34545  0.38344  0.81214  1.0000
  H   H1236     1.0  0.43084  0.61052  0.51793  1.0000
  H   H1237     1.0  0.27897  0.35515  0.93626  1.0000
  H   H1238     1.0  0.29727  0.46180  0.59419  1.0000
  C   C741      1.0  0.33863  0.48451  0.48463  1.0000
  H   H1239     1.0  0.38410  0.33357  0.76986  1.0000
  H   H1240     1.0  0.35454  0.36473  0.80979  1.0000
  H   H1241     1.0  0.44074  0.35190  0.79458  1.0000
  H   H1242     1.0  0.29445  0.52499  0.60174  1.0000
  H   H1243     1.0  0.47756  0.51555  0.76148  1.0000
  H   H1244     1.0  0.31632  0.36055  0.83638  1.0000
  H   H1245     1.0  0.35234  0.45705  0.84932  1.0000
  H   H1246     1.0  0.30570  0.50902  0.59122  1.0000
  H   H1247     1.0  0.36592  0.39707  0.75124  1.0000
  H   H1248     1.0  0.29049  0.37140  0.96533  1.0000
  H   H1249     1.0  0.44277  0.58129  0.69256  1.0000
  C   C742      1.0  0.34882  0.46602  0.83607  1.0000
  H   H1250     1.0  0.25475  0.61433  0.61052  1.0000
  H   H1251     1.0  0.48072  0.64621  0.50096  1.0000
  C   C743      1.0  0.33654  0.33309  0.79349  1.0000
  S   S207      1.0  0.45130  0.65289  0.60358  1.0000
  H   H1252     1.0  0.34471  0.50239  0.85375  1.0000
  H   H1253     1.0  0.42350  0.53617  0.63948  1.0000
  C   C744      1.0  0.35433  0.39358  0.76516  1.0000
  H   H1254     1.0  0.29262  0.50943  0.64003  1.0000
  C   C745      1.0  0.35369  0.48654  0.79070  1.0000
  H   H1255     1.0  0.23760  0.48057  0.64087  1.0000
  H   H1256     1.0  0.41278  0.34685  0.74376  1.0000
  S   S208      1.0  0.46350  0.63843  0.55747  1.0000
  H   H1257     1.0  0.39036  0.58338  0.64409  1.0000
  H   H1258     1.0  0.31231  0.34030  0.80687  1.0000
  H   H1259     1.0  0.47692  0.44725  0.70298  1.0000
  H   H1260     1.0  0.43079  0.33614  0.74341  1.0000
  C   C746      1.0  0.32660  0.49542  0.48632  1.0000
  N   N50       1.0  0.33252  0.36556  0.79167  1.0000
  C   C747      1.0  0.31803  0.37560  0.79169  1.0000
  C   C748      1.0  0.34685  0.37261  0.77125  1.0000
  H   H1261     1.0  0.45816  0.47006  0.74916  1.0000
  H   H1262     1.0  0.42463  0.64846  0.50387  1.0000
  S   S209      1.0  0.47214  0.32899  0.80376  1.0000
  H   H1263     1.0  0.30323  0.38713  0.76874  1.0000
  H   H1264     1.0  0.26430  0.64531  0.61696  1.0000
  H   H1265     1.0  0.32911  0.34389  0.83640  1.0000
  H   H1266     1.0  0.47177  0.57174  0.63597  1.0000
  H   H1267     1.0  0.44821  0.59915  0.48541  1.0000
  H   H1268     1.0  0.34190  0.36759  0.75677  1.0000
  H   H1269     1.0  0.35881  0.36717  0.77284  1.0000
  H   H1270     1.0  0.34236  0.45694  0.82540  1.0000
  H   H1271     1.0  0.38023  0.51832  0.78275  1.0000
  H   H1272     1.0  0.29479  0.36265  0.77729  1.0000
  C   C749      1.0  0.38048  0.59807  0.49847  1.0000
  C   C750      1.0  0.35233  0.50651  0.81790  1.0000
  H   H1273     1.0  0.45308  0.57178  0.71338  1.0000
  H   H1274     1.0  0.26363  0.50909  0.63083  1.0000
  H   H1275     1.0  0.29208  0.48212  0.66717  1.0000
  H   H1276     1.0  0.27473  0.62535  0.59081  1.0000
  Fe  Fe99      1.0  0.47719  0.65319  0.58211  1.0000
  Fe  Fe100     1.0  0.47359  0.36670  0.73241  1.0000
  Fe  Fe101     1.0  0.24524  0.33569  0.86293  1.0000
  H   H1277     1.0  0.36098  0.47725  0.78365  1.0000
  H   H1278     1.0  0.31714  0.34348  0.77809  1.0000
  C   C751      1.0  0.30297  0.51563  0.60544  1.0000
  H   H1279     1.0  0.36864  0.59391  0.51214  1.0000
  H   H1280     1.0  0.44319  0.62610  0.49426  1.0000
  C   C752      1.0  0.36632  0.48018  0.82338  1.0000
  H   H1281     1.0  0.45698  0.45878  0.72629  1.0000
  C   C753      1.0  0.26967  0.47595  0.64856  1.0000
  H   H1282     1.0  0.26593  0.46647  0.60862  1.0000
  H   H1283     1.0  0.48020  0.41854  0.75596  1.0000
  H   H1284     1.0  0.41146  0.33139  0.80241  1.0000
  H   H1285     1.0  0.38959  0.52796  0.81585  1.0000
  C   C754      1.0  0.38179  0.50733  0.79526  1.0000
  H   H1286     1.0  0.34399  0.40012  0.75965  1.0000
  C   C755      1.0  0.47090  0.58152  0.68144  1.0000
  H   H1287     1.0  0.41461  0.51252  0.64950  1.0000
  H   H1288     1.0  0.36372  0.50633  0.75967  1.0000
  C   C756      1.0  0.46451  0.55921  0.64790  1.0000
  H   H1289     1.0  0.37479  0.47252  0.81476  1.0000
  H   H1290     1.0  0.34411  0.50979  0.77656  1.0000
  H   H1291     1.0  0.40790  0.52463  0.79788  1.0000
  H   H1292     1.0  0.35553  0.52529  0.84111  1.0000
  H   H1293     1.0  0.45311  0.38564  0.76229  1.0000
  Fe  Fe102     1.0  0.43778  0.64000  0.57795  1.0000
  C   C757      1.0  0.28323  0.35707  0.96938  1.0000
  H   H1294     1.0  0.47104  0.63616  0.63342  1.0000
  H   H1295     1.0  0.32367  0.39021  0.79229  1.0000
  C   C758      1.0  0.39479  0.51732  0.80894  1.0000
  H   H1296     1.0  0.30766  0.37060  0.80690  1.0000
  N   N51       1.0  0.27704  0.48775  0.62621  1.0000
  H   H1297     1.0  0.37417  0.48534  0.83577  1.0000
  H   H1298     1.0  0.35951  0.39973  0.77883  1.0000
  H   H1299     1.0  0.25293  0.63895  0.54235  1.0000
  N   N52       1.0  0.39279  0.54265  0.62602  1.0000
  C   C759      1.0  0.37534  0.53890  0.61695  1.0000
  C   C760      1.0  0.40842  0.55026  0.60707  1.0000
  C   C761      1.0  0.39320  0.55624  0.64124  1.0000
  C   C762      1.0  0.39408  0.52502  0.63868  1.0000
  C   C763      1.0  0.35756  0.53469  0.63372  1.0000
  C   C764      1.0  0.41217  0.53676  0.59210  1.0000
  C   C765      1.0  0.39146  0.57505  0.63107  1.0000
  C   C766      1.0  0.41129  0.52585  0.64898  1.0000
  H   H1300     1.0  0.37526  0.55050  0.60423  1.0000
  H   H1301     1.0  0.37410  0.52701  0.60833  1.0000
  H   H1302     1.0  0.42128  0.55636  0.61263  1.0000
  H   H1303     1.0  0.40604  0.56187  0.59629  1.0000
  H   H1304     1.0  0.38246  0.55064  0.65608  1.0000
  H   H1305     1.0  0.40621  0.55894  0.64761  1.0000
  H   H1306     1.0  0.38243  0.51946  0.65250  1.0000
  H   H1307     1.0  0.39261  0.51415  0.62859  1.0000
  H   H1308     1.0  0.35632  0.54660  0.64137  1.0000
  H   H1309     1.0  0.34588  0.53130  0.62502  1.0000
  H   H1310     1.0  0.35597  0.52267  0.64653  1.0000
  H   H1311     1.0  0.41715  0.52584  0.60067  1.0000
  H   H1312     1.0  0.40007  0.53062  0.58521  1.0000
  H   H1313     1.0  0.42300  0.54426  0.57795  1.0000
  H   H1314     1.0  0.37926  0.57413  0.62335  1.0000
  H   H1315     1.0  0.40376  0.58267  0.61888  1.0000
  H   H1316     1.0  0.46879  0.58838  0.66562  1.0000
  Fe  Fe103     1.0  0.26349  0.32992  0.90232  1.0000
  C   C767      1.0  0.43666  0.34458  0.78119  1.0000
  H   H1317     1.0  0.44327  0.33339  0.78114  1.0000
  H   H1318     1.0  0.26725  0.50544  0.60337  1.0000
  H   H1319     1.0  0.47492  0.41796  0.69272  1.0000
  C   C768      1.0  0.45203  0.57260  0.69581  1.0000
  C   C769      1.0  0.47638  0.65021  0.48576  1.0000
  H   H1320     1.0  0.39367  0.62110  0.51118  1.0000
  H   H1321     1.0  0.43923  0.64324  0.52212  1.0000
  H   H1322     1.0  0.46637  0.54194  0.67675  1.0000
  H   H1323     1.0  0.25944  0.46322  0.64734  1.0000
  H   H1324     1.0  0.25224  0.62114  0.58323  1.0000
  H   H1325     1.0  0.24149  0.52759  0.56548  1.0000
  C   C770      1.0  0.39710  0.60862  0.50689  1.0000
  C   C771      1.0  0.26455  0.64808  0.54761  1.0000
  H   H1326     1.0  0.29249  0.46344  0.65270  1.0000
  H   H1327     1.0  0.30533  0.49498  0.63052  1.0000
  H   H1328     1.0  0.34393  0.33414  0.80741  1.0000
  H   H1329     1.0  0.24336  0.64106  0.60723  1.0000
  C   C772      1.0  0.41572  0.33330  0.74699  1.0000
  C   C773      1.0  0.48306  0.63100  0.66195  1.0000
  H   H1330     1.0  0.38212  0.58527  0.49329  1.0000
  H   H1331     1.0  0.27298  0.63932  0.55332  1.0000
  C   C774      1.0  0.47574  0.45188  0.74786  1.0000
  H   H1332     1.0  0.38044  0.32383  0.80912  1.0000
  H   H1333     1.0  0.47648  0.47769  0.72643  1.0000
  H   H1334     1.0  0.24226  0.65150  0.56989  1.0000
  H   H1335     1.0  0.37667  0.60688  0.48541  1.0000
  H   H1336     1.0  0.23404  0.34417  0.95984  1.0000
  H   H1337     1.0  0.29056  0.65251  0.57343  1.0000
  N   N53       1.0  0.40830  0.32420  0.77052  1.0000
  H   H1338     1.0  0.47758  0.59287  0.68931  1.0000
  N   N54       1.0  0.48296  0.56898  0.67826  1.0000
  Fe  Fe104     1.0  0.29651  0.75477  0.37164  1.0000
  S   S210      1.0  0.29101  0.78133  0.35913  1.0000
  S   S211      1.0  0.28029  0.72572  0.37281  1.0000
  Fe  Fe105     1.0  0.33302  0.77362  0.38262  1.0000
  S   S212      1.0  0.33100  0.80178  0.37039  1.0000
  S   S213      1.0  0.35517  0.76796  0.39998  1.0000
  Fe  Fe106     1.0  0.30216  0.79070  0.38836  1.0000
  S   S214      1.0  0.28873  0.80652  0.40997  1.0000
  Fe  Fe107     1.0  0.32032  0.79005  0.34223  1.0000
  S   S215      1.0  0.32970  0.79994  0.30550  1.0000
  S   S216      1.0  0.30491  0.76339  0.40229  1.0000
  S   S217      1.0  0.32510  0.76270  0.35311  1.0000
  Fe  Fe108     1.0  0.45688  0.80187  0.36582  1.0000
  S   S218      1.0  0.43454  0.80182  0.34619  1.0000
  H   H1339     1.0  0.36823  0.78531  0.35464  1.0000
  S   S219      1.0  0.28293  0.90578  0.05421  1.0000
  H   H1340     1.0  0.39967  0.79853  0.33370  1.0000
  Fe  Fe109     1.0  0.26660  0.88267  0.08097  1.0000
  S   S220      1.0  0.27389  0.87515  0.11449  1.0000
  Fe  Fe110     1.0  0.27118  0.88796  0.03110  1.0000
  S   S221      1.0  0.28697  0.88652  0.99848  1.0000
  Fe  Fe111     1.0  0.35700  0.89070  0.21921  1.0000
  S   S222      1.0  0.36805  0.87339  0.19776  1.0000
  S   S223      1.0  0.33949  0.87993  0.25303  1.0000
  Fe  Fe112     1.0  0.37807  0.92627  0.18787  1.0000
  S   S224      1.0  0.39105  0.91132  0.16490  1.0000
  S   S225      1.0  0.38514  0.95678  0.17621  1.0000
  Fe  Fe113     1.0  0.36288  0.89221  0.16969  1.0000
  S   S226      1.0  0.35343  0.88576  0.13798  1.0000
  Fe  Fe114     1.0  0.39489  0.89434  0.19500  1.0000
  S   S227      1.0  0.41933  0.88568  0.20430  1.0000
  S   S228      1.0  0.34978  0.90806  0.19138  1.0000
  S   S229      1.0  0.38400  0.91082  0.21770  1.0000
  C   C775      1.0  0.39890  0.97058  0.19102  1.0000
  H   H1341     1.0  0.36269  0.98289  0.20171  1.0000
  C   C776      1.0  0.39727  0.96589  0.21371  1.0000
  C   C777      1.0  0.41855  0.84946  0.28109  1.0000
  H   H1342     1.0  0.38796  0.95315  0.22239  1.0000
  H   H1343     1.0  0.24496  0.82572  0.09864  1.0000
  C   C778      1.0  0.30092  0.75373  0.29104  1.0000
  H   H1344     1.0  0.34451  0.80974  0.47350  1.0000
  C   C779      1.0  0.29616  0.87846  0.12063  1.0000
  C   C780      1.0  0.31130  0.88052  0.10446  1.0000
  C   C781      1.0  0.32866  0.88243  0.11016  1.0000
  C   C782      1.0  0.33116  0.88274  0.13194  1.0000
  C   C783      1.0  0.31606  0.88095  0.14807  1.0000
  C   C784      1.0  0.29862  0.87859  0.14246  1.0000
  H   H1345     1.0  0.30960  0.88024  0.08765  1.0000
  H   H1346     1.0  0.34024  0.88371  0.09758  1.0000
  H   H1347     1.0  0.31777  0.88113  0.16489  1.0000
  H   H1348     1.0  0.28699  0.87689  0.15512  1.0000
  C   C785      1.0  0.27746  0.96248  0.06041  1.0000
  C   C786      1.0  0.29053  0.95781  0.07181  1.0000
  H   H1349     1.0  0.47101  0.74376  0.44238  1.0000
  H   H1350     1.0  0.40501  0.80785  0.43061  1.0000
  H   H1351     1.0  0.26805  0.98494  0.04639  1.0000
  H   H1352     1.0  0.31533  0.95813  0.99432  1.0000
  H   H1353     1.0  0.29014  0.94360  0.07624  1.0000
  H   H1354     1.0  0.43383  0.87659  0.48018  1.0000
  H   H1355     1.0  0.46133  0.66474  0.43085  1.0000
  C   C787      1.0  0.46521  0.91850  0.16406  1.0000
  C   C788      1.0  0.44678  0.90963  0.17275  1.0000
  C   C789      1.0  0.44211  0.89742  0.19268  1.0000
  C   C790      1.0  0.45591  0.89417  0.20382  1.0000
  H   H1356     1.0  0.25977  0.76602  0.47324  1.0000
  H   H1357     1.0  0.43624  0.91210  0.16396  1.0000
  H   H1358     1.0  0.45243  0.88468  0.21917  1.0000
  H   H1359     1.0  0.40586  0.97441  0.24291  1.0000
  C   C791      1.0  0.26044  0.71928  0.36167  1.0000
  C   C792      1.0  0.25394  0.70092  0.35986  1.0000
  H   H1360     1.0  0.34169  0.81867  0.43514  1.0000
  S   S230      1.0  0.26035  0.94566  0.05214  1.0000
  H   H1361     1.0  0.34142  0.98709  0.03197  1.0000
  C   C793      1.0  0.25040  0.73156  0.35604  1.0000
  H   H1362     1.0  0.26150  0.69130  0.36451  1.0000
  H   H1363     1.0  0.46012  0.72861  0.33449  1.0000
  H   H1364     1.0  0.25498  0.74558  0.35821  1.0000
  C   C794      1.0  0.29502  0.80981  0.43547  1.0000
  C   C795      1.0  0.30419  0.79883  0.44669  1.0000
  C   C796      1.0  0.38665  0.82431  0.44073  1.0000
  S   S231      1.0  0.45377  0.68999  0.34569  1.0000
  C   C797      1.0  0.39819  0.81764  0.42297  1.0000
  C   C798      1.0  0.28978  0.82348  0.44518  1.0000
  H   H1365     1.0  0.30805  0.78804  0.43943  1.0000
  H   H1366     1.0  0.31200  0.76621  0.29073  1.0000
  C   C799      1.0  0.40733  0.97800  0.22531  1.0000
  H   H1367     1.0  0.28262  0.83195  0.43671  1.0000
  C   C800      1.0  0.33204  0.82223  0.29137  1.0000
  C   C801      1.0  0.32813  0.83595  0.30214  1.0000
  C   C802      1.0  0.33035  0.85354  0.29017  1.0000
  C   C803      1.0  0.33668  0.85760  0.26743  1.0000
  C   C804      1.0  0.34058  0.84383  0.25671  1.0000
  C   C805      1.0  0.33816  0.82622  0.26862  1.0000
  H   H1368     1.0  0.32334  0.83304  0.31964  1.0000
  H   H1369     1.0  0.32722  0.86408  0.29858  1.0000
  H   H1370     1.0  0.34527  0.84673  0.23920  1.0000
  H   H1371     1.0  0.34118  0.81568  0.26014  1.0000
  C   C806      1.0  0.37704  0.77804  0.38499  1.0000
  C   C807      1.0  0.39197  0.77837  0.39548  1.0000
  C   C808      1.0  0.40964  0.78631  0.38382  1.0000
  C   C809      1.0  0.41247  0.79340  0.36147  1.0000
  C   C810      1.0  0.39752  0.79308  0.35098  1.0000
  C   C811      1.0  0.37977  0.78556  0.36278  1.0000
  H   H1372     1.0  0.38985  0.77266  0.41270  1.0000
  H   H1373     1.0  0.42101  0.78685  0.39214  1.0000
  H   H1374     1.0  0.46194  0.87134  0.46939  1.0000
  H   H1375     1.0  0.32768  0.95528  0.15342  1.0000
  H   H1376     1.0  0.42570  0.94827  0.19869  1.0000
  H   H1377     1.0  0.44954  0.97380  0.14934  1.0000
  C   C812      1.0  0.46976  0.81500  0.46254  1.0000
  H   H1378     1.0  0.44978  0.97661  0.22382  1.0000
  H   H1379     1.0  0.44389  0.97727  0.18735  1.0000
  C   C813      1.0  0.30271  0.81546  0.47718  1.0000
  C   C814      1.0  0.35900  0.81765  0.46844  1.0000
  H   H1380     1.0  0.30467  0.74860  0.27573  1.0000
  C   C815      1.0  0.26390  0.77631  0.31292  1.0000
  H   H1381     1.0  0.28960  0.83708  0.47294  1.0000
  C   C816      1.0  0.45094  0.75372  0.45990  1.0000
  H   H1382     1.0  0.44608  0.95174  0.16526  1.0000
  H   H1383     1.0  0.24672  0.68371  0.41830  1.0000
  H   H1384     1.0  0.29254  0.77868  0.31097  1.0000
  C   C817      1.0  0.46408  0.67060  0.46316  1.0000
  H   H1385     1.0  0.29530  0.79698  0.27771  1.0000
  C   C818      1.0  0.29749  0.78857  0.26506  1.0000
  H   H1386     1.0  0.31167  0.78747  0.26312  1.0000
  C   C819      1.0  0.46419  0.70778  0.35847  1.0000
  H   H1387     1.0  0.40942  0.82939  0.41373  1.0000
  C   C820      1.0  0.46376  0.97554  0.21823  1.0000
  H   H1388     1.0  0.35868  0.80846  0.40307  1.0000
  H   H1389     1.0  0.44785  0.85981  0.27840  1.0000
  H   H1390     1.0  0.42794  0.95106  0.22658  1.0000
  H   H1391     1.0  0.31654  0.73840  0.30848  1.0000
  C   C821      1.0  0.31324  0.98092  0.01199  1.0000
  H   H1392     1.0  0.42392  0.82770  0.47136  1.0000
  N   N55       1.0  0.40237  0.85069  0.27040  1.0000
  C   C822      1.0  0.38556  0.83930  0.28622  1.0000
  C   C823      1.0  0.40215  0.87051  0.26659  1.0000
  C   C824      1.0  0.40473  0.84385  0.24904  1.0000
  C   C825      1.0  0.38371  0.81864  0.29117  1.0000
  C   C826      1.0  0.38392  0.87463  0.26385  1.0000
  C   C827      1.0  0.38861  0.84118  0.23665  1.0000
  H   H1393     1.0  0.37290  0.84064  0.28054  1.0000
  H   H1394     1.0  0.38482  0.84430  0.30212  1.0000
  H   H1395     1.0  0.40636  0.87711  0.28051  1.0000
  H   H1396     1.0  0.41222  0.87831  0.25183  1.0000
  H   H1397     1.0  0.41638  0.85342  0.23723  1.0000
  H   H1398     1.0  0.40881  0.83086  0.25106  1.0000
  H   H1399     1.0  0.39446  0.81545  0.29978  1.0000
  H   H1400     1.0  0.37055  0.81179  0.30229  1.0000
  H   H1401     1.0  0.38346  0.81252  0.27615  1.0000
  H   H1402     1.0  0.37386  0.87018  0.27934  1.0000
  H   H1403     1.0  0.37801  0.86873  0.25053  1.0000
  H   H1404     1.0  0.38624  0.88963  0.25964  1.0000
  H   H1405     1.0  0.38940  0.85387  0.22528  1.0000
  H   H1406     1.0  0.37520  0.83652  0.24736  1.0000
  H   H1407     1.0  0.38903  0.83027  0.22683  1.0000
  H   H1408     1.0  0.28635  0.76234  0.25639  1.0000
  H   H1409     1.0  0.25190  0.76679  0.32414  1.0000
  H   H1410     1.0  0.37532  0.83070  0.39828  1.0000
  S   S232      1.0  0.46959  0.82715  0.37824  1.0000
  H   H1411     1.0  0.45397  0.93712  0.19547  1.0000
  H   H1412     1.0  0.31842  0.95430  0.02270  1.0000
  H   H1413     1.0  0.44581  0.84309  0.46179  1.0000
  H   H1414     1.0  0.25027  0.74468  0.27134  1.0000
  C   C828      1.0  0.28007  0.76778  0.31072  1.0000
  C   C829      1.0  0.24957  0.74086  0.28923  1.0000
  H   H1415     1.0  0.29348  0.72573  0.31051  1.0000
  H   H1416     1.0  0.38104  0.95009  0.11688  1.0000
  H   H1417     1.0  0.23852  0.70938  0.40029  1.0000
  H   H1418     1.0  0.39258  0.82216  0.45582  1.0000
  H   H1419     1.0  0.32757  0.93692  0.17431  1.0000
  H   H1420     1.0  0.24822  0.87086  0.00375  1.0000
  H   H1421     1.0  0.35959  0.83918  0.43004  1.0000
  H   H1422     1.0  0.43781  0.87650  0.26662  1.0000
  H   H1423     1.0  0.27300  0.73089  0.28454  1.0000
  H   H1424     1.0  0.34676  0.78922  0.44833  1.0000
  H   H1425     1.0  0.46879  0.92783  0.14858  1.0000
  H   H1426     1.0  0.41667  0.85281  0.29787  1.0000
  H   H1427     1.0  0.24334  0.74990  0.29805  1.0000
  S   S233      1.0  0.45651  0.80690  0.44347  1.0000
  C   C830      1.0  0.31109  0.96052  0.01104  1.0000
  C   C831      1.0  0.23758  0.69483  0.35235  1.0000
  C   C832      1.0  0.30235  0.73954  0.31029  1.0000
  Fe  Fe115     1.0  0.25736  0.91476  0.05550  1.0000
  H   H1428     1.0  0.29931  0.74364  0.32634  1.0000
  C   C833      1.0  0.46743  0.74561  0.45959  1.0000
  H   H1429     1.0  0.23948  0.71126  0.42798  1.0000
  H   H1430     1.0  0.30982  0.98179  0.02947  1.0000
  H   H1431     1.0  0.24285  0.78463  0.45715  1.0000
  H   H1432     1.0  0.42006  0.83532  0.28327  1.0000
  C   C834      1.0  0.47900  0.91522  0.17529  1.0000
  H   H1433     1.0  0.26477  0.92242  0.98905  1.0000
  C   C835      1.0  0.36098  0.97336  0.11588  1.0000
  C   C836      1.0  0.25426  0.87098  0.98711  1.0000
  Fe  Fe116     1.0  0.45176  0.66125  0.36203  1.0000
  S   S234      1.0  0.45494  0.78272  0.39693  1.0000
  S   S235      1.0  0.25770  0.86370  0.05769  1.0000
  H   H1434     1.0  0.25989  0.78079  0.29729  1.0000
  H   H1435     1.0  0.29611  0.79624  0.24929  1.0000
  H   H1436     1.0  0.26779  0.78892  0.31999  1.0000
  C   C837      1.0  0.45538  0.96571  0.16109  1.0000
  H   H1437     1.0  0.44108  0.85812  0.25256  1.0000
  H   H1438     1.0  0.24006  0.72695  0.29431  1.0000
  H   H1439     1.0  0.46289  0.73137  0.46895  1.0000
  C   C838      1.0  0.46530  0.72584  0.34941  1.0000
  C   C839      1.0  0.35995  0.83736  0.47185  1.0000
  H   H1440     1.0  0.39086  0.81161  0.41068  1.0000
  H   H1441     1.0  0.27015  0.77229  0.26835  1.0000
  C   C840      1.0  0.28343  0.76969  0.27003  1.0000
  H   H1442     1.0  0.31369  0.96767  0.08696  1.0000
  C   C841      1.0  0.47300  0.74029  0.35963  1.0000
  H   H1443     1.0  0.29648  0.95298  0.01633  1.0000
  C   C842      1.0  0.45199  0.94601  0.20756  1.0000
  H   H1444     1.0  0.26572  0.73282  0.31202  1.0000
  H   H1445     1.0  0.27833  0.75836  0.32642  1.0000
  C   C843      1.0  0.43252  0.84139  0.47239  1.0000
  C   C844      1.0  0.23415  0.72551  0.34811  1.0000
  C   C845      1.0  0.26828  0.74016  0.29482  1.0000
  C   C846      1.0  0.29373  0.82638  0.46575  1.0000
  H   H1446     1.0  0.24045  0.74059  0.41959  1.0000
  H   H1447     1.0  0.23382  0.83029  0.00482  1.0000
  H   H1448     1.0  0.43817  0.74247  0.46366  1.0000
  H   H1449     1.0  0.38513  0.93223  0.10315  1.0000
  C   C847      1.0  0.43722  0.86178  0.26871  1.0000
  Fe  Fe117     1.0  0.46955  0.80766  0.40864  1.0000
  N   N56       1.0  0.40978  0.73218  0.36390  1.0000
  C   C848      1.0  0.42723  0.74698  0.36178  1.0000
  C   C849      1.0  0.40399  0.72376  0.38786  1.0000
  C   C850      1.0  0.39585  0.74117  0.35604  1.0000
  C   C851      1.0  0.41343  0.71859  0.34982  1.0000
  C   C852      1.0  0.43533  0.75809  0.33855  1.0000
  C   C853      1.0  0.41678  0.71351  0.39776  1.0000
  C   C854      1.0  0.37561  0.73143  0.36496  1.0000
  C   C855      1.0  0.39803  0.70107  0.35149  1.0000
  H   H1450     1.0  0.42537  0.75692  0.37271  1.0000
  H   H1451     1.0  0.43806  0.74125  0.36720  1.0000
  H   H1452     1.0  0.39040  0.71383  0.39131  1.0000
  H   H1453     1.0  0.40241  0.73446  0.39776  1.0000
  H   H1454     1.0  0.39781  0.75499  0.36044  1.0000
  H   H1455     1.0  0.39762  0.74348  0.33785  1.0000
  H   H1456     1.0  0.41660  0.72496  0.33221  1.0000
  H   H1457     1.0  0.42600  0.71456  0.35248  1.0000
  H   H1458     1.0  0.42581  0.76504  0.33163  1.0000
  H   H1459     1.0  0.44758  0.76896  0.33949  1.0000
  H   H1460     1.0  0.43993  0.74965  0.32715  1.0000
  H   H1461     1.0  0.43004  0.72283  0.39868  1.0000
  H   H1462     1.0  0.41037  0.70681  0.41484  1.0000
  H   H1463     1.0  0.41904  0.70254  0.38881  1.0000
  H   H1464     1.0  0.37181  0.71703  0.36281  1.0000
  H   H1465     1.0  0.36713  0.73857  0.35599  1.0000
  H   H1466     1.0  0.37191  0.73232  0.38247  1.0000
  H   H1467     1.0  0.38869  0.70321  0.33998  1.0000
  H   H1468     1.0  0.39014  0.69562  0.36817  1.0000
  H   H1469     1.0  0.40412  0.69003  0.34716  1.0000
  N   N57       1.0  0.36643  0.81534  0.44570  1.0000
  H   H1470     1.0  0.35219  0.82890  0.39658  1.0000
  C   C856      1.0  0.36181  0.79511  0.44548  1.0000
  C   C857      1.0  0.35669  0.82428  0.42997  1.0000
  H   H1471     1.0  0.46690  0.96808  0.23310  1.0000
  H   H1472     1.0  0.37314  0.92656  0.13053  1.0000
  H   H1473     1.0  0.47979  0.78249  0.45247  1.0000
  C   C858      1.0  0.47426  0.90308  0.19524  1.0000
  C   C859      1.0  0.48002  0.73678  0.37867  1.0000
  H   H1474     1.0  0.38935  0.83936  0.43589  1.0000
  C   C860      1.0  0.36935  0.78373  0.46232  1.0000
  H   H1475     1.0  0.36662  0.79211  0.42933  1.0000
  H   H1476     1.0  0.30228  0.98463  0.00404  1.0000
  C   C861      1.0  0.27813  0.98112  0.05506  1.0000
  H   H1477     1.0  0.36768  0.76982  0.45834  1.0000
  N   N58       1.0  0.46398  0.96517  0.19950  1.0000
  H   H1478     1.0  0.34969  0.84265  0.46415  1.0000
  C   C862      1.0  0.36123  0.82276  0.40573  1.0000
  C   C863      1.0  0.45724  0.97503  0.18127  1.0000
  H   H1479     1.0  0.42578  0.85157  0.46573  1.0000
  S   S236      1.0  0.24097  0.89207  0.08314  1.0000
  C   C864      1.0  0.43140  0.94385  0.21315  1.0000
  C   C865      1.0  0.30787  0.80152  0.46769  1.0000
  C   C866      1.0  0.24086  0.78219  0.47533  1.0000
  H   H1480     1.0  0.31244  0.93265  0.15542  1.0000
  H   H1481     1.0  0.24331  0.85995  0.15148  1.0000
  H   H1482     1.0  0.44979  0.76232  0.47251  1.0000
  C   C867      1.0  0.30393  0.97153  0.07782  1.0000
  N   N59       1.0  0.28276  0.75804  0.29174  1.0000
  N   N60       1.0  0.34210  0.93982  0.11801  1.0000
  C   C868      1.0  0.32414  0.92965  0.11290  1.0000
  C   C869      1.0  0.34118  0.93501  0.14238  1.0000
  C   C870      1.0  0.35703  0.93340  0.10590  1.0000
  C   C871      1.0  0.34452  0.95990  0.11039  1.0000
  C   C872      1.0  0.32338  0.92904  0.08849  1.0000
  C   C873      1.0  0.32626  0.94040  0.15690  1.0000
  C   C874      1.0  0.37501  0.93597  0.11478  1.0000
  H   H1483     1.0  0.24208  0.84104  0.12827  1.0000
  H   H1484     1.0  0.32005  0.91525  0.12155  1.0000
  H   H1485     1.0  0.31298  0.93553  0.11902  1.0000
  H   H1486     1.0  0.35415  0.94117  0.14757  1.0000
  H   H1487     1.0  0.33907  0.92001  0.14723  1.0000
  H   H1488     1.0  0.35233  0.91846  0.10599  1.0000
  H   H1489     1.0  0.36046  0.94003  0.08834  1.0000
  H   H1490     1.0  0.34590  0.96298  0.09228  1.0000
  H   H1491     1.0  0.33213  0.96412  0.11624  1.0000
  H   H1492     1.0  0.32695  0.94280  0.07829  1.0000
  H   H1493     1.0  0.33213  0.92091  0.08163  1.0000
  H   H1494     1.0  0.30925  0.92204  0.08708  1.0000
  H   H1495     1.0  0.45583  0.93961  0.22259  1.0000
  H   H1496     1.0  0.38398  0.78968  0.46222  1.0000
  H   H1497     1.0  0.47363  0.75415  0.35266  1.0000
  C   C875      1.0  0.47119  0.70425  0.37755  1.0000
  H   H1498     1.0  0.42437  0.92913  0.21889  1.0000
  H   H1499     1.0  0.36428  0.96915  0.13208  1.0000
  H   H1500     1.0  0.23837  0.85526  0.10611  1.0000
  H   H1501     1.0  0.31431  0.79263  0.47662  1.0000
  H   H1502     1.0  0.45885  0.68243  0.46090  1.0000
  H   H1503     1.0  0.47048  0.69035  0.38457  1.0000
  H   H1504     1.0  0.35772  0.98657  0.11674  1.0000
  H   H1505     1.0  0.37317  0.97582  0.10299  1.0000
  H   H1506     1.0  0.45162  0.76215  0.44375  1.0000
  H   H1507     1.0  0.34581  0.97382  0.01169  1.0000
  C   C876      1.0  0.34538  0.98781  0.01397  1.0000
  C   C877      1.0  0.46544  0.66057  0.44613  1.0000
  S   S237      1.0  0.24643  0.89818  0.03061  1.0000
  C   C878      1.0  0.41083  0.98721  0.18000  1.0000
  H   H1508     1.0  0.46877  0.96529  0.15241  1.0000
  H   H1509     1.0  0.26951  0.78857  0.47583  1.0000
  H   H1510     1.0  0.28680  0.76202  0.47978  1.0000
  C   C879      1.0  0.47927  0.71876  0.38751  1.0000
  H   H1511     1.0  0.36166  0.78202  0.47911  1.0000
  H   H1512     1.0  0.37372  0.84673  0.46588  1.0000
  Fe  Fe118     1.0  0.48253  0.78098  0.38312  1.0000
  S   S238      1.0  0.48317  0.79751  0.35049  1.0000
  H   H1513     1.0  0.48240  0.95449  0.17906  1.0000
  C   C880      1.0  0.48286  0.96400  0.19101  1.0000
  H   H1514     1.0  0.46648  0.98899  0.17516  1.0000
  H   H1515     1.0  0.23953  0.79516  0.48035  1.0000
  H   H1516     1.0  0.36627  0.81211  0.48073  1.0000
  Fe  Fe119     1.0  0.32001  0.80403  0.52583  1.0000
  S   S239      1.0  0.33204  0.78244  0.51501  1.0000
  S   S240      1.0  0.30628  0.81959  0.50350  1.0000
  Fe  Fe120     1.0  0.33078  0.79916  0.57121  1.0000
  S   S241      1.0  0.34324  0.77657  0.56361  1.0000
  S   S242      1.0  0.33023  0.80561  0.60576  1.0000
  Fe  Fe121     1.0  0.35505  0.79489  0.53111  1.0000
  S   S243      1.0  0.38427  0.80002  0.51537  1.0000
  Fe  Fe122     1.0  0.31887  0.76633  0.54838  1.0000
  S   S244      1.0  0.30550  0.73649  0.54931  1.0000
  S   S245      1.0  0.34420  0.81809  0.53944  1.0000
  S   S246      1.0  0.30518  0.78726  0.55846  1.0000
  S   S247      1.0  0.42691  0.80390  0.59381  1.0000
  Fe  Fe123     1.0  0.25132  0.89442  0.85810  1.0000
  S   S248      1.0  0.26973  0.88241  0.87644  1.0000
  C   C881      1.0  0.28749  0.91317  0.79513  1.0000
  H   H1517     1.0  0.46956  0.94196  0.75036  1.0000
  Fe  Fe124     1.0  0.24424  0.86278  0.89615  1.0000
  H   H1518     1.0  0.40023  0.81839  0.65263  1.0000
  Fe  Fe125     1.0  0.26764  0.86280  0.85255  1.0000
  S   S249      1.0  0.29468  0.85845  0.83783  1.0000
  H   H1519     1.0  0.30363  0.85174  0.61869  1.0000
  Fe  Fe126     1.0  0.39338  0.86762  0.71102  1.0000
  S   S250      1.0  0.40225  0.89128  0.68319  1.0000
  S   S251      1.0  0.41562  0.85405  0.71638  1.0000
  Fe  Fe127     1.0  0.35443  0.87123  0.72027  1.0000
  S   S252      1.0  0.36096  0.89525  0.69279  1.0000
  S   S253      1.0  0.32457  0.86263  0.73656  1.0000
  Fe  Fe128     1.0  0.37553  0.87879  0.67334  1.0000
  S   S254      1.0  0.37410  0.87627  0.63771  1.0000
  Fe  Fe129     1.0  0.38687  0.90505  0.70542  1.0000
  S   S255      1.0  0.39624  0.93196  0.71692  1.0000
  S   S256      1.0  0.36760  0.85422  0.69992  1.0000
  S   S257      1.0  0.37948  0.88191  0.73412  1.0000
  C   C882      1.0  0.41211  0.95209  0.70217  1.0000
  C   C883      1.0  0.41751  0.96663  0.71327  1.0000
  C   C884      1.0  0.43210  0.97041  0.66909  1.0000
  C   C885      1.0  0.41954  0.95394  0.68006  1.0000
  H   H1520     1.0  0.31323  0.88807  0.65461  1.0000
  H   H1521     1.0  0.41547  0.94278  0.67140  1.0000
  C   C886      1.0  0.30268  0.85976  0.80956  1.0000
  C   C887      1.0  0.29155  0.86096  0.79388  1.0000
  C   C888      1.0  0.29844  0.86178  0.77161  1.0000
  C   C889      1.0  0.31663  0.86190  0.76471  1.0000
  C   C890      1.0  0.32784  0.86102  0.78035  1.0000
  C   C891      1.0  0.32082  0.85972  0.80267  1.0000
  H   H1522     1.0  0.27755  0.86091  0.79895  1.0000
  H   H1523     1.0  0.28964  0.86238  0.75966  1.0000
  H   H1524     1.0  0.34182  0.86099  0.77529  1.0000
  H   H1525     1.0  0.32952  0.85875  0.81468  1.0000
  C   C892      1.0  0.27564  0.94341  0.85463  1.0000
  C   C893      1.0  0.27579  0.96181  0.84851  1.0000
  H   H1526     1.0  0.40457  0.85854  0.61884  1.0000
  H   H1527     1.0  0.26491  0.96495  0.84086  1.0000
  C   C894      1.0  0.29631  0.68132  0.56229  1.0000
  C   C895      1.0  0.25067  0.86453  0.95073  1.0000
  H   H1528     1.0  0.31800  0.83018  0.66742  1.0000
  C   C896      1.0  0.44263  0.88823  0.75183  1.0000
  C   C897      1.0  0.42896  0.87880  0.74176  1.0000
  C   C898      1.0  0.43308  0.86798  0.72664  1.0000
  C   C899      1.0  0.45109  0.86728  0.72089  1.0000
  C   C900      1.0  0.46487  0.87712  0.73055  1.0000
  H   H1529     1.0  0.41509  0.87931  0.74640  1.0000
  H   H1530     1.0  0.45435  0.85894  0.70916  1.0000
  S   S258      1.0  0.25742  0.92575  0.84972  1.0000
  C   C901      1.0  0.28159  0.73001  0.55444  1.0000
  C   C902      1.0  0.27223  0.71561  0.54534  1.0000
  C   C903      1.0  0.25314  0.70998  0.54953  1.0000
  H   H1531     1.0  0.45779  0.86743  0.52925  1.0000
  C   C904      1.0  0.25267  0.73337  0.57160  1.0000
  C   C905      1.0  0.27177  0.73889  0.56759  1.0000
  H   H1532     1.0  0.27975  0.70898  0.53476  1.0000
  H   H1533     1.0  0.24605  0.69918  0.54203  1.0000
  C   C906      1.0  0.29161  0.92194  0.92555  1.0000
  H   H1534     1.0  0.27887  0.74992  0.57483  1.0000
  C   C907      1.0  0.34396  0.82492  0.61377  1.0000
  C   C908      1.0  0.35304  0.84095  0.59888  1.0000
  C   C909      1.0  0.36246  0.85647  0.60641  1.0000
  C   C910      1.0  0.36298  0.85610  0.62882  1.0000
  C   C911      1.0  0.35435  0.83989  0.64357  1.0000
  C   C912      1.0  0.34487  0.82444  0.63608  1.0000
  H   H1535     1.0  0.35241  0.84154  0.58167  1.0000
  H   H1536     1.0  0.36912  0.86892  0.59483  1.0000
  H   H1537     1.0  0.35481  0.83927  0.66080  1.0000
  H   H1538     1.0  0.33800  0.81205  0.64768  1.0000
  C   C913      1.0  0.39697  0.80307  0.53630  1.0000
  C   C914      1.0  0.41504  0.80222  0.53322  1.0000
  C   C915      1.0  0.42473  0.80345  0.55059  1.0000
  C   C916      1.0  0.41612  0.80499  0.57115  1.0000
  C   C917      1.0  0.39820  0.80619  0.57405  1.0000
  C   C918      1.0  0.38873  0.80547  0.55657  1.0000
  H   H1539     1.0  0.42134  0.80011  0.51762  1.0000
  H   H1540     1.0  0.43856  0.80244  0.54834  1.0000
  H   H1541     1.0  0.39152  0.80747  0.58990  1.0000
  H   H1542     1.0  0.37494  0.80657  0.55898  1.0000
  C   C919      1.0  0.46168  0.82910  0.75979  1.0000
  H   H1543     1.0  0.44909  0.80008  0.49010  1.0000
  H   H1544     1.0  0.45725  0.96794  0.75908  1.0000
  S   S259      1.0  0.47136  0.84093  0.57067  1.0000
  H   H1545     1.0  0.31068  0.68123  0.55733  1.0000
  C   C920      1.0  0.29736  0.85173  0.65373  1.0000
  H   H1546     1.0  0.41278  0.79400  0.80431  1.0000
  C   C921      1.0  0.28074  0.87706  0.95880  1.0000
  H   H1547     1.0  0.45157  0.68713  0.63929  1.0000
  H   H1548     1.0  0.44957  0.89165  0.51827  1.0000
  C   C922      1.0  0.45478  0.96198  0.74424  1.0000
  C   C923      1.0  0.45610  0.73811  0.60041  1.0000
  S   S260      1.0  0.48061  0.68113  0.56246  1.0000
  H   H1549     1.0  0.42539  0.86385  0.54299  1.0000
  H   H1550     1.0  0.34021  0.98085  0.97553  1.0000
  H   H1551     1.0  0.42726  0.79582  0.82464  1.0000
  H   H1552     1.0  0.28200  0.93498  0.96679  1.0000
  H   H1553     1.0  0.46687  0.74698  0.52345  1.0000
  C   C924      1.0  0.44140  0.80894  0.79173  1.0000
  H   H1554     1.0  0.24002  0.74119  0.48875  1.0000
  H   H1555     1.0  0.26214  0.95751  0.89975  1.0000
  H   H1556     1.0  0.41987  0.81478  0.81513  1.0000
  H   H1557     1.0  0.43364  0.83012  0.74372  1.0000
  H   H1558     1.0  0.47213  0.95684  0.68098  1.0000
  C   C925      1.0  0.24313  0.86483  0.97229  1.0000
  H   H1559     1.0  0.26231  0.90550  0.95903  1.0000
  H   H1560     1.0  0.41151  0.83957  0.76758  1.0000
  H   H1561     1.0  0.23351  0.67240  0.58846  1.0000
  N   N61       1.0  0.25629  0.77123  0.50676  1.0000
  C   C926      1.0  0.27337  0.76625  0.51131  1.0000
  C   C927      1.0  0.46799  0.74323  0.50690  1.0000
  C   C928      1.0  0.47922  0.76013  0.48990  1.0000
  H   H1562     1.0  0.24144  0.94005  0.90016  1.0000
  H   H1563     1.0  0.26905  0.78331  0.54532  1.0000
  H   H1564     1.0  0.25781  0.67218  0.55549  1.0000
  C   C929      1.0  0.44284  0.84217  0.78385  1.0000
  H   H1565     1.0  0.47629  0.72355  0.63459  1.0000
  N   N62       1.0  0.44531  0.85962  0.50145  1.0000
  H   H1566     1.0  0.42017  0.83792  0.50592  1.0000
  C   C930      1.0  0.42424  0.80322  0.80967  1.0000
  H   H1567     1.0  0.47912  0.69281  0.61756  1.0000
  N   N63       1.0  0.44333  0.82526  0.77433  1.0000
  C   C931      1.0  0.28630  0.66400  0.57933  1.0000
  N   N64       1.0  0.43114  0.84810  0.63968  1.0000
  C   C932      1.0  0.44281  0.86761  0.63485  1.0000
  C   C933      1.0  0.42573  0.84347  0.61846  1.0000
  C   C934      1.0  0.44285  0.83621  0.64725  1.0000
  C   C935      1.0  0.41502  0.84647  0.65725  1.0000
  C   C936      1.0  0.45063  0.87499  0.65427  1.0000
  C   C937      1.0  0.41534  0.85582  0.60720  1.0000
  C   C938      1.0  0.43396  0.81552  0.65284  1.0000
  C   C939      1.0  0.39781  0.83074  0.65822  1.0000
  C   C940      1.0  0.42885  0.82141  0.76028  1.0000
  H   H1568     1.0  0.43496  0.87713  0.62907  1.0000
  H   H1569     1.0  0.41714  0.82931  0.62054  1.0000
  H   H1570     1.0  0.43797  0.84392  0.60641  1.0000
  H   H1571     1.0  0.45529  0.83851  0.63467  1.0000
  H   H1572     1.0  0.44771  0.83978  0.66239  1.0000
  H   H1573     1.0  0.41898  0.84511  0.67367  1.0000
  H   H1574     1.0  0.41047  0.85922  0.65512  1.0000
  H   H1575     1.0  0.44882  0.92336  0.73253  1.0000
  H   H1576     1.0  0.47868  0.87627  0.72632  1.0000
  H   H1577     1.0  0.47277  0.83034  0.76961  1.0000
  H   H1578     1.0  0.47193  0.77095  0.49047  1.0000
  H   H1579     1.0  0.40866  0.84898  0.59478  1.0000
  H   H1580     1.0  0.26879  0.67838  0.60836  1.0000
  H   H1581     1.0  0.42846  0.80990  0.63907  1.0000
  C   C941      1.0  0.25610  0.78576  0.54174  1.0000
  H   H1582     1.0  0.44451  0.80854  0.65654  1.0000
  H   H1583     1.0  0.39056  0.82643  0.67546  1.0000
  C   C942      1.0  0.24330  0.71881  0.56273  1.0000
  H   H1584     1.0  0.24281  0.91313  0.96563  1.0000
  H   H1585     1.0  0.44211  0.73647  0.60764  1.0000
  Fe  Fe130     1.0  0.45363  0.67962  0.58227  1.0000
  H   H1586     1.0  0.40212  0.70794  0.55295  1.0000
  C   C943      1.0  0.24966  0.94122  0.93273  1.0000
  H   H1587     1.0  0.40077  0.82000  0.75739  1.0000
  H   H1588     1.0  0.28497  0.94695  0.93091  1.0000
  H   H1589     1.0  0.33388  0.89538  0.66410  1.0000
  H   H1590     1.0  0.34443  0.91678  0.79507  1.0000
  H   H1591     1.0  0.29029  0.68211  0.54726  1.0000
  H   H1592     1.0  0.23559  0.93615  0.94232  1.0000
  H   H1593     1.0  0.31255  0.90055  0.77255  1.0000
  C   C944      1.0  0.26955  0.87072  0.94395  1.0000
  H   H1594     1.0  0.33423  0.88522  0.64054  1.0000
  H   H1595     1.0  0.38744  0.75739  0.52525  1.0000
  H   H1596     1.0  0.27080  0.74156  0.49598  1.0000
  N   N65       1.0  0.30548  0.85165  0.67432  1.0000
  H   H1597     1.0  0.33580  0.90127  0.76561  1.0000
  S   S261      1.0  0.44491  0.70246  0.59595  1.0000
  H   H1598     1.0  0.44027  0.83056  0.50186  1.0000
  H   H1599     1.0  0.46142  0.86876  0.65883  1.0000
  H   H1600     1.0  0.44143  0.95158  0.74874  1.0000
  S   S262      1.0  0.47703  0.89796  0.76067  1.0000
  H   H1601     1.0  0.25538  0.79877  0.54718  1.0000
  H   H1602     1.0  0.45714  0.88988  0.64927  1.0000
  H   H1603     1.0  0.45165  0.90203  0.49002  1.0000
  C   C945      1.0  0.41033  0.82477  0.76846  1.0000
  C   C946      1.0  0.44800  0.85588  0.52490  1.0000
  H   H1604     1.0  0.42478  0.86898  0.59840  1.0000
  H   H1605     1.0  0.43997  0.87319  0.66883  1.0000
  C   C947      1.0  0.43072  0.85173  0.54249  1.0000
  H   H1606     1.0  0.25758  0.90016  0.92405  1.0000
  H   H1607     1.0  0.45974  0.91345  0.69736  1.0000
  C   C948      1.0  0.25532  0.78773  0.51704  1.0000
  H   H1608     1.0  0.27224  0.65777  0.53254  1.0000
  C   C949      1.0  0.43020  0.98294  0.70243  1.0000
  S   S263      1.0  0.43765  0.66671  0.55871  1.0000
  H   H1609     1.0  0.45352  0.81046  0.79986  1.0000
  H   H1610     1.0  0.35646  0.83733  0.48966  1.0000
  C   C950      1.0  0.47035  0.95353  0.73703  1.0000
  H   H1611     1.0  0.27675  0.87224  0.70445  1.0000
  H   H1612     1.0  0.32345  0.85599  0.63107  1.0000
  H   H1613     1.0  0.46054  0.96795  0.69784  1.0000
  H   H1614     1.0  0.28475  0.77879  0.50990  1.0000
  S   S264      1.0  0.47371  0.80945  0.61099  1.0000
  C   C951      1.0  0.47240  0.96218  0.69656  1.0000
  C   C952      1.0  0.45776  0.84870  0.79723  1.0000
  C   C953      1.0  0.47194  0.81695  0.50058  1.0000
  H   H1615     1.0  0.43774  0.97186  0.65196  1.0000
  H   H1616     1.0  0.45398  0.97316  0.73160  1.0000
  C   C954      1.0  0.29207  0.85424  0.69273  1.0000
  N   N66       1.0  0.25935  0.92639  0.93400  1.0000
  H   H1617     1.0  0.36501  0.74789  0.54178  1.0000
  H   H1618     1.0  0.27551  0.87044  0.92737  1.0000
  H   H1619     1.0  0.24513  0.74032  0.58174  1.0000
  H   H1620     1.0  0.27135  0.75903  0.52844  1.0000
  C   C955      1.0  0.45219  0.93333  0.71693  1.0000
  C   C956      1.0  0.28993  0.93966  0.86433  1.0000
  N   N67       1.0  0.47038  0.94694  0.71542  1.0000
  H   H1621     1.0  0.44105  0.94020  0.71736  1.0000
  H   H1622     1.0  0.27912  0.84318  0.69553  1.0000
  H   H1623     1.0  0.42563  0.71958  0.55315  1.0000
  C   C957      1.0  0.25737  0.91793  0.95767  1.0000
  H   H1624     1.0  0.45452  0.86943  0.62134  1.0000
  H   H1625     1.0  0.25451  0.91677  0.90367  1.0000
  C   C958      1.0  0.24164  0.67512  0.60148  1.0000
  C   C959      1.0  0.30904  0.84798  0.63369  1.0000
  H   H1626     1.0  0.41981  0.84011  0.54029  1.0000
  H   H1627     1.0  0.42968  0.84074  0.79448  1.0000
  H   H1628     1.0  0.28740  0.91010  0.91733  1.0000
  S   S265      1.0  0.25004  0.87553  0.83325  1.0000
  H   H1629     1.0  0.44713  0.76740  0.54213  1.0000
  H   H1630     1.0  0.38101  0.76470  0.55049  1.0000
  C   C960      1.0  0.28722  0.87260  0.69019  1.0000
  H   H1631     1.0  0.43920  0.89598  0.76418  1.0000
  H   H1632     1.0  0.42036  0.86816  0.50610  1.0000
  Fe  Fe131     1.0  0.45715  0.81176  0.58464  1.0000
  N   N68       1.0  0.40219  0.74292  0.56551  1.0000
  C   C961      1.0  0.40570  0.72611  0.57763  1.0000
  C   C962      1.0  0.39880  0.75499  0.58181  1.0000
  C   C963      1.0  0.41828  0.75338  0.54814  1.0000
  C   C964      1.0  0.38602  0.73715  0.55454  1.0000
  C   C965      1.0  0.41200  0.71318  0.56334  1.0000
  C   C966      1.0  0.38035  0.74837  0.59756  1.0000
  C   C967      1.0  0.43650  0.75934  0.55620  1.0000
  C   C968      1.0  0.37974  0.75273  0.54227  1.0000
  H   H1633     1.0  0.41606  0.72980  0.58817  1.0000
  H   H1634     1.0  0.39324  0.71771  0.58914  1.0000
  H   H1635     1.0  0.39992  0.76900  0.57343  1.0000
  H   H1636     1.0  0.40946  0.75684  0.59226  1.0000
  H   H1637     1.0  0.42034  0.74547  0.53484  1.0000
  H   H1638     1.0  0.41572  0.76603  0.53986  1.0000
  H   H1639     1.0  0.38900  0.72890  0.54197  1.0000
  H   H1640     1.0  0.37414  0.72770  0.56616  1.0000
  H   H1641     1.0  0.41325  0.70105  0.57428  1.0000
  H   H1642     1.0  0.36882  0.74866  0.58883  1.0000
  H   H1643     1.0  0.37828  0.73455  0.60713  1.0000
  H   H1644     1.0  0.38002  0.75785  0.60942  1.0000
  H   H1645     1.0  0.44116  0.74752  0.56288  1.0000
  H   H1646     1.0  0.43584  0.76831  0.56856  1.0000
  H   H1647     1.0  0.30837  0.83325  0.63511  1.0000
  H   H1648     1.0  0.31475  0.95094  0.87592  1.0000
  H   H1649     1.0  0.29008  0.92564  0.86917  1.0000
  H   H1650     1.0  0.27714  0.92040  0.80004  1.0000
  H   H1651     1.0  0.32668  0.86843  0.68778  1.0000
  C   C969      1.0  0.46132  0.72344  0.59302  1.0000
  H   H1652     1.0  0.29673  0.69394  0.56921  1.0000
  C   C970      1.0  0.46411  0.81483  0.74530  1.0000
  H   H1653     1.0  0.32680  0.89628  0.80493  1.0000
  H   H1654     1.0  0.25649  0.95262  0.94044  1.0000
  H   H1655     1.0  0.29533  0.88184  0.95354  1.0000
  C   C971      1.0  0.32355  0.86572  0.67153  1.0000
  C   C972      1.0  0.46057  0.88730  0.74640  1.0000
  H   H1656     1.0  0.28395  0.84130  0.65679  1.0000
  C   C973      1.0  0.31531  0.82903  0.70182  1.0000
  H   H1657     1.0  0.29535  0.92024  0.77890  1.0000
  H   H1658     1.0  0.28034  0.93998  0.90628  1.0000
  H   H1659     1.0  0.28132  0.87535  0.67536  1.0000
  H   H1660     1.0  0.33991  0.93017  0.82720  1.0000
  H   H1661     1.0  0.33274  0.89624  0.83828  1.0000
  H   H1662     1.0  0.31782  0.92974  0.84010  1.0000
  H   H1663     1.0  0.29518  0.82208  0.68147  1.0000
  C   C974      1.0  0.32959  0.91052  0.79617  1.0000
  H   H1664     1.0  0.29227  0.75034  0.50341  1.0000
  C   C975      1.0  0.32358  0.90395  0.84520  1.0000
  H   H1665     1.0  0.30941  0.89520  0.84923  1.0000
  H   H1666     1.0  0.32763  0.90686  0.86096  1.0000
  H   H1667     1.0  0.41182  0.96528  0.73039  1.0000
  C   C976      1.0  0.30391  0.95408  0.86818  1.0000
  H   H1668     1.0  0.45473  0.81361  0.73333  1.0000
  C   C977      1.0  0.32534  0.92220  0.83009  1.0000
  H   H1669     1.0  0.26660  0.79987  0.50859  1.0000
  C   C978      1.0  0.32589  0.88438  0.65678  1.0000
  C   C979      1.0  0.28094  0.75432  0.49660  1.0000
  N   N69       1.0  0.31865  0.92088  0.80864  1.0000
  H   H1670     1.0  0.32777  0.83960  0.70254  1.0000
  H   H1671     1.0  0.33747  0.94695  0.79351  1.0000
  H   H1672     1.0  0.45166  0.93090  0.68219  1.0000
  H   H1673     1.0  0.46493  0.76611  0.60479  1.0000
  C   C980      1.0  0.32648  0.90880  0.77271  1.0000
  H   H1674     1.0  0.29678  0.89601  0.81862  1.0000
  H   H1675     1.0  0.46590  0.81321  0.51772  1.0000
  C   C981      1.0  0.27906  0.93475  0.92389  1.0000
  H   H1676     1.0  0.27977  0.89947  0.79291  1.0000
  C   C982      1.0  0.30392  0.97248  0.86238  1.0000
  H   H1677     1.0  0.46486  0.84245  0.74855  1.0000
  H   H1678     1.0  0.31892  0.81585  0.70281  1.0000
  H   H1679     1.0  0.29912  0.88401  0.69068  1.0000
  C   C983      1.0  0.32260  0.94015  0.79631  1.0000
  H   H1680     1.0  0.29790  0.94630  0.81237  1.0000
  C   C984      1.0  0.30812  0.83285  0.68034  1.0000
  C   C985      1.0  0.28980  0.97623  0.85230  1.0000
  H   H1681     1.0  0.40399  0.81739  0.78518  1.0000
  H   H1682     1.0  0.45513  0.86045  0.80444  1.0000
  C   C986      1.0  0.29866  0.91091  0.81355  1.0000
  H   H1683     1.0  0.29170  0.91512  0.82798  1.0000
  H   H1684     1.0  0.30488  0.82762  0.71649  1.0000
  H   H1685     1.0  0.33469  0.86031  0.66432  1.0000
  H   H1686     1.0  0.32977  0.92212  0.76161  1.0000
  C   C987      1.0  0.31271  0.95266  0.80734  1.0000
  H   H1687     1.0  0.29415  0.86474  0.64848  1.0000
  H   H1688     1.0  0.26737  0.68910  0.58200  1.0000
  H   H1689     1.0  0.24012  0.75109  0.53451  1.0000
  H   H1690     1.0  0.31933  0.94061  0.77967  1.0000
  H   H1691     1.0  0.31861  0.95686  0.82160  1.0000
  H   H1692     1.0  0.31448  0.96542  0.79553  1.0000
  H   H1693     1.0  0.43415  0.84795  0.55884  1.0000
  H   H1694     1.0  0.29731  0.85325  0.70839  1.0000
  C   C988      1.0  0.46211  0.68638  0.64956  1.0000
  H   H1695     1.0  0.45425  0.84426  0.52742  1.0000
  S   S266      1.0  0.46768  0.67853  0.50389  1.0000
  H   H1696     1.0  0.43627  0.91275  0.70168  1.0000
  C   C989      1.0  0.44244  0.89230  0.50418  1.0000
  H   H1697     1.0  0.45672  0.67304  0.66082  1.0000
  H   H1698     1.0  0.24057  0.68853  0.60544  1.0000
  H   H1699     1.0  0.29246  0.91699  0.94274  1.0000
  C   C990      1.0  0.43746  0.98493  0.68029  1.0000
  H   H1700     1.0  0.42337  0.81191  0.66780  1.0000
  H   H1701     1.0  0.45395  0.73838  0.50377  1.0000
  H   H1702     1.0  0.42608  0.80707  0.75741  1.0000
  H   H1703     1.0  0.38814  0.83568  0.64904  1.0000
  C   C991      1.0  0.25134  0.91171  0.92168  1.0000
  H   H1704     1.0  0.44124  0.79664  0.78417  1.0000
  H   H1705     1.0  0.24448  0.77489  0.55179  1.0000
  C   C992      1.0  0.43483  0.87360  0.49777  1.0000
  C   C993      1.0  0.45021  0.92215  0.69828  1.0000
  C   C994      1.0  0.43431  0.84188  0.49658  1.0000
  S   S267      1.0  0.24389  0.84161  0.87450  1.0000
  H   H1706     1.0  0.30560  0.92962  0.91716  1.0000
  Fe  Fe132     1.0  0.46446  0.66640  0.53987  1.0000
  C   C995      1.0  0.26189  0.67621  0.59406  1.0000
  H   H1707     1.0  0.24064  0.96026  0.91071  1.0000
  H   H1708     1.0  0.46267  0.80124  0.75511  1.0000
  H   H1709     1.0  0.23541  0.66489  0.61658  1.0000
  H   H1710     1.0  0.43097  0.89802  0.50949  1.0000
  C   C996      1.0  0.23571  0.73868  0.50668  1.0000
  H   H1711     1.0  0.24254  0.79156  0.51524  1.0000
  C   C997      1.0  0.46900  0.75488  0.59883  1.0000
  H   H1712     1.0  0.44391  0.85366  0.77050  1.0000
  C   C998      1.0  0.23955  0.75597  0.51714  1.0000
  S   S268      1.0  0.47377  0.80059  0.56069  1.0000
  N   N70       1.0  0.26589  0.66026  0.58451  1.0000
  C   C999      1.0  0.25745  0.77679  0.48246  1.0000
  H   H1713     1.0  0.29217  0.66531  0.59451  1.0000
  C   C1000     1.0  0.26707  0.93037  0.97225  1.0000
  H   H1714     1.0  0.46281  0.69761  0.65893  1.0000
  H   H1715     1.0  0.26153  0.94227  0.97359  1.0000
  H   H1716     1.0  0.47142  0.85389  0.78675  1.0000
  H   H1717     1.0  0.47451  0.73186  0.50755  1.0000
  C   C1001     1.0  0.24854  0.95004  0.90942  1.0000
  H   H1718     1.0  0.45782  0.83797  0.81096  1.0000
  H   H1719     1.0  0.47972  0.67240  0.63419  1.0000
  C   C1002     1.0  0.47950  0.72560  0.58401  1.0000
  H   H1720     1.0  0.48040  0.92292  0.72030  1.0000
  C   C1003     1.0  0.25699  0.65842  0.56465  1.0000
  S   S269      1.0  0.23593  0.85606  0.93313  1.0000
  C   C1004     1.0  0.48001  0.68694  0.63453  1.0000
  C   C1005     1.0  0.46339  0.86518  0.48598  1.0000
  H   H1721     1.0  0.47813  0.81936  0.73556  1.0000
  C   C1006     1.0  0.27310  0.87730  0.98041  1.0000
  C   C1007     1.0  0.47946  0.87850  0.49250  1.0000
  H   H1722     1.0  0.47659  0.89138  0.49567  1.0000
  H   H1723     1.0  0.48318  0.96382  0.73728  1.0000
  C   C1008     1.0  0.46944  0.66540  0.48307  1.0000
  H   H1724     1.0  0.48219  0.66492  0.67228  1.0000
  H   H1725     1.0  0.46823  0.85297  0.48364  1.0000
  H   H1726     1.0  0.24198  0.72844  0.51432  1.0000
  C   C1009     1.0  0.46240  0.80962  0.48491  1.0000
  Fe  Fe133     1.0  0.54860  0.29389  0.35525  1.0000
  S   S270      1.0  0.55762  0.26796  0.35427  1.0000
  H   H1727     1.0  0.54221  0.11972  0.26970  1.0000
  Fe  Fe134     1.0  0.53240  0.14018  0.37656  1.0000
  Fe  Fe135     1.0  0.60961  0.04617  0.22794  1.0000
  S   S271      1.0  0.61527  0.04901  0.19143  1.0000
  S   S272      1.0  0.58925  0.02059  0.24738  1.0000
  Fe  Fe136     1.0  0.63306  0.08474  0.22730  1.0000
  S   S273      1.0  0.64027  0.09038  0.19048  1.0000
  S   S274      1.0  0.64238  0.10881  0.24437  1.0000
  Fe  Fe137     1.0  0.61074  0.07665  0.19146  1.0000
  S   S275      1.0  0.59346  0.08779  0.16980  1.0000
  Fe  Fe138     1.0  0.64417  0.06217  0.19390  1.0000
  S   S276      1.0  0.66758  0.05257  0.17787  1.0000
  S   S277      1.0  0.60318  0.07317  0.22782  1.0000
  S   S278      1.0  0.63888  0.05731  0.23089  1.0000
  S   S279      1.0  0.56272  0.31187  0.37678  1.0000
  S   S280      1.0  0.51226  0.04114  0.17699  1.0000
  H   H1728     1.0  0.71274  0.00894  0.00571  1.0000
  H   H1729     1.0  0.56165  0.15499  0.40393  1.0000
  Fe  Fe139     1.0  0.68881  0.13260  0.34588  1.0000
  S   S281      1.0  0.68126  0.15912  0.34070  1.0000
  S   S282      1.0  0.68597  0.11139  0.32357  1.0000
  Fe  Fe140     1.0  0.69740  0.13716  0.39134  1.0000
  S   S283      1.0  0.69053  0.16388  0.38947  1.0000
  S   S284      1.0  0.70550  0.12532  0.42235  1.0000
  Fe  Fe141     1.0  0.66658  0.15038  0.37556  1.0000
  S   S285      1.0  0.63878  0.15225  0.39021  1.0000
  Fe  Fe142     1.0  0.70593  0.17055  0.35527  1.0000
  S   S286      1.0  0.72182  0.20034  0.34537  1.0000
  S   S287      1.0  0.67228  0.12308  0.37986  1.0000
  S   S288      1.0  0.71485  0.14465  0.35780  1.0000
  Fe  Fe143     1.0  0.52593  0.16857  0.34200  1.0000
  Fe  Fe144     1.0  0.55992  0.15599  0.33506  1.0000
  S   S289      1.0  0.54610  0.12723  0.35167  1.0000
  S   S290      1.0  0.58944  0.16381  0.32012  1.0000
  S   S291      1.0  0.53903  0.15806  0.31386  1.0000
  S   S292      1.0  0.54819  0.16884  0.36162  1.0000
  C   C1010     1.0  0.62511  0.15625  0.37092  1.0000
  C   C1011     1.0  0.63278  0.16239  0.34882  1.0000
  C   C1012     1.0  0.62186  0.16549  0.33343  1.0000
  C   C1013     1.0  0.60306  0.16185  0.33999  1.0000
  C   C1014     1.0  0.59529  0.15576  0.36213  1.0000
  C   C1015     1.0  0.60636  0.15318  0.37764  1.0000
  H   H1730     1.0  0.64711  0.16460  0.34350  1.0000
  H   H1731     1.0  0.62791  0.17020  0.31632  1.0000
  H   H1732     1.0  0.58075  0.15283  0.36728  1.0000
  H   H1733     1.0  0.60029  0.14838  0.39472  1.0000
  H   H1734     1.0  0.51270  0.17005  0.46797  1.0000
  C   C1016     1.0  0.68075  0.13977  0.44407  1.0000
  C   C1017     1.0  0.69400  0.13044  0.44594  1.0000
  H   H1735     1.0  0.48873  0.99754  0.20177  1.0000
  C   C1018     1.0  0.59112  0.02533  0.15228  1.0000
  H   H1736     1.0  0.67654  0.14258  0.42862  1.0000
  H   H1737     1.0  0.50925  0.13298  0.28348  1.0000
  C   C1019     1.0  0.65448  0.10912  0.26637  1.0000
  C   C1020     1.0  0.66003  0.12554  0.27416  1.0000
  C   C1021     1.0  0.66939  0.12639  0.29192  1.0000
  C   C1022     1.0  0.67359  0.11085  0.30179  1.0000
  C   C1023     1.0  0.66821  0.09447  0.29382  1.0000
  C   C1024     1.0  0.65853  0.09353  0.27633  1.0000
  H   H1738     1.0  0.65708  0.13771  0.26641  1.0000
  H   H1739     1.0  0.67366  0.13912  0.29774  1.0000
  H   H1740     1.0  0.67148  0.08240  0.30133  1.0000
  H   H1741     1.0  0.65429  0.08079  0.27052  1.0000
  C   C1025     1.0  0.57052  0.07532  0.17314  1.0000
  C   C1026     1.0  0.56326  0.05952  0.18902  1.0000
  C   C1027     1.0  0.54500  0.04961  0.19097  1.0000
  C   C1028     1.0  0.53395  0.05540  0.17703  1.0000
  C   C1029     1.0  0.54108  0.07149  0.16164  1.0000
  C   C1030     1.0  0.55930  0.08143  0.15974  1.0000
  H   H1742     1.0  0.57177  0.05483  0.19962  1.0000
  H   H1743     1.0  0.53949  0.03738  0.20318  1.0000
  H   H1744     1.0  0.53270  0.07597  0.15071  1.0000
  H   H1745     1.0  0.56483  0.09371  0.14752  1.0000
  C   C1031     1.0  0.68213  0.06314  0.15257  1.0000
  C   C1032     1.0  0.69647  0.05590  0.14521  1.0000
  C   C1033     1.0  0.70844  0.06397  0.12527  1.0000
  C   C1034     1.0  0.70618  0.07943  0.11253  1.0000
  C   C1035     1.0  0.69193  0.08676  0.12001  1.0000
  C   C1036     1.0  0.67992  0.07864  0.13990  1.0000
  H   H1746     1.0  0.69829  0.04393  0.15493  1.0000
  C   C1037     1.0  0.70375  0.07269  0.20722  1.0000
  H   H1747     1.0  0.69008  0.09868  0.11022  1.0000
  H   H1748     1.0  0.66888  0.08427  0.14530  1.0000
  C   C1038     1.0  0.54459  0.24721  0.34885  1.0000
  C   C1039     1.0  0.55284  0.23297  0.34731  1.0000
  C   C1040     1.0  0.54301  0.21598  0.34372  1.0000
  H   H1749     1.0  0.56701  0.23514  0.34873  1.0000
  H   H1750     1.0  0.54970  0.20530  0.34221  1.0000
  H   H1751     1.0  0.59323  0.07035  0.30342  1.0000
  H   H1752     1.0  0.59135  0.09127  0.28855  1.0000
  H   H1753     1.0  0.59179  0.11448  0.21835  1.0000
  H   H1754     1.0  0.57297  0.27009  0.45112  1.0000
  H   H1755     1.0  0.69142  0.12703  0.24006  1.0000
  C   C1041     1.0  0.52470  0.21295  0.34188  1.0000
  C   C1042     1.0  0.72670  0.00750  0.00564  1.0000
  H   H1756     1.0  0.56588  0.02179  0.11693  1.0000
  C   C1043     1.0  0.62500  0.12658  0.45180  1.0000
  H   H1757     1.0  0.60980  0.14892  0.43180  1.0000
  H   H1758     1.0  0.55837  0.04153  0.11924  1.0000
  C   C1044     1.0  0.72291  0.00104  0.07197  1.0000
  H   H1759     1.0  0.67257  0.10944  0.20915  1.0000
  C   C1045     1.0  0.51454  0.21830  0.40128  1.0000
  H   H1760     1.0  0.63487  0.10238  0.45405  1.0000
  C   C1046     1.0  0.50417  0.17400  0.40248  1.0000
  H   H1761     1.0  0.62016  0.12318  0.43654  1.0000
  N   N71       1.0  0.55763  0.00625  0.16051  1.0000
  H   H1762     1.0  0.72094  0.18987  0.40336  1.0000
  C   C1047     1.0  0.51158  0.31494  0.28504  1.0000
  H   H1763     1.0  0.54046  0.25144  0.45538  1.0000
  H   H1764     1.0  0.72007  0.20003  0.44946  1.0000
  C   C1048     1.0  0.49610  0.11839  0.26032  1.0000
  N   N72       1.0  0.69939  0.10507  0.20594  1.0000
  H   H1765     1.0  0.70045  0.06094  0.19853  1.0000
  H   H1766     1.0  0.53549  0.00162  0.21473  1.0000
  C   C1049     1.0  0.72041  0.19899  0.41553  1.0000
  C   C1050     1.0  0.55481  0.02656  0.12527  1.0000
  H   H1767     1.0  0.52713  0.00854  0.19066  1.0000
  H   H1768     1.0  0.49594  0.15967  0.40393  1.0000
  H   H1769     1.0  0.53431  0.29130  0.47634  1.0000
  H   H1770     1.0  0.69965  0.06703  0.22499  1.0000
  C   C1051     1.0  0.54318  0.26549  0.45918  1.0000
  Fe  Fe145     1.0  0.52407  0.13004  0.33242  1.0000
  C   C1052     1.0  0.54388  0.14510  0.46666  1.0000
  H   H1771     1.0  0.56747  0.09632  0.25409  1.0000
  H   H1772     1.0  0.49468  0.18266  0.40100  1.0000
  H   H1773     1.0  0.53330  0.27161  0.45155  1.0000
  H   H1774     1.0  0.70861  0.11848  0.46818  1.0000
  H   H1775     1.0  0.64111  0.13222  0.32777  1.0000
  H   H1776     1.0  0.51854  0.06556  0.22518  1.0000
  C   C1053     1.0  0.53348  0.13616  0.45267  1.0000
  H   H1777     1.0  0.72145  0.12978  0.19538  1.0000
  H   H1778     1.0  0.49594  0.13065  0.24962  1.0000
  H   H1779     1.0  0.56578  0.21192  0.41687  1.0000
  C   C1054     1.0  0.52593  0.08025  0.22025  1.0000
  H   H1780     1.0  0.59382  0.12712  0.28040  1.0000
  H   H1781     1.0  0.57734  0.09408  0.35797  1.0000
  H   H1782     1.0  0.54465  0.07529  0.24151  1.0000
  C   C1055     1.0  0.49657  0.08687  0.28790  1.0000
  H   H1783     1.0  0.51663  0.30511  0.29472  1.0000
  H   H1784     1.0  0.55962  0.23888  0.47263  1.0000
  C   C1056     1.0  0.55109  0.13885  0.22294  1.0000
  H   H1785     1.0  0.72399  0.16192  0.42364  1.0000
  C   C1057     1.0  0.55754  0.21441  0.40415  1.0000
  H   H1786     1.0  0.56559  0.29083  0.44900  1.0000
  C   C1058     1.0  0.55668  0.15217  0.42138  1.0000
  S   S293      1.0  0.52061  0.29581  0.36837  1.0000
  C   C1059     1.0  0.53973  0.13983  0.43000  1.0000
  H   H1787     1.0  0.54304  0.20444  0.44631  1.0000
  H   H1788     1.0  0.61585  0.14131  0.26863  1.0000
  H   H1789     1.0  0.56248  0.27671  0.42877  1.0000
  C   C1060     1.0  0.68533  0.12026  0.17555  1.0000
  C   C1061     1.0  0.55516  0.00537  0.18498  1.0000
  H   H1790     1.0  0.59098  0.10593  0.44793  1.0000
  C   C1062     1.0  0.50360  0.11976  0.27947  1.0000
  C   C1063     1.0  0.49685  0.16590  0.29432  1.0000
  C   C1064     1.0  0.70228  0.11989  0.24057  1.0000
  C   C1065     1.0  0.62995  0.16898  0.44214  1.0000
  C   C1066     1.0  0.48959  0.08550  0.26839  1.0000
  H   H1791     1.0  0.71934  0.05821  0.11969  1.0000
  H   H1792     1.0  0.60118  0.15840  0.45345  1.0000
  H   H1793     1.0  0.72068  0.01325  0.07730  1.0000
  C   C1067     1.0  0.54176  0.19744  0.40472  1.0000
  H   H1794     1.0  0.71865  0.07870  0.20315  1.0000
  H   H1795     1.0  0.56681  0.21744  0.38808  1.0000
  H   H1796     1.0  0.56200  0.99568  0.19267  1.0000
  H   H1797     1.0  0.53825  0.02209  0.15671  1.0000
  H   H1798     1.0  0.50743  0.27200  0.47988  1.0000
  H   H1799     1.0  0.51422  0.21004  0.38822  1.0000
  C   C1068     1.0  0.58440  0.11591  0.45442  1.0000
  H   H1800     1.0  0.50312  0.20374  0.43426  1.0000
  C   C1069     1.0  0.69306  0.08640  0.20015  1.0000
  C   C1070     1.0  0.69844  0.12586  0.46658  1.0000
  C   C1071     1.0  0.59413  0.12466  0.47179  1.0000
  C   C1072     1.0  0.58307  0.11861  0.20697  1.0000
  H   H1801     1.0  0.58237  0.13266  0.20789  1.0000
  C   C1073     1.0  0.71880  0.11485  0.19536  1.0000
  H   H1802     1.0  0.49649  0.07457  0.29871  1.0000
  C   C1074     1.0  0.56088  0.10752  0.25045  1.0000
  H   H1803     1.0  0.69336  0.08699  0.18240  1.0000
  H   H1804     1.0  0.56032  0.08966  0.34143  1.0000
  C   C1075     1.0  0.53755  0.08604  0.23759  1.0000
  C   C1076     1.0  0.56718  0.16098  0.43541  1.0000
  C   C1077     1.0  0.56068  0.15766  0.45805  1.0000
  H   H1805     1.0  0.57023  0.10828  0.46217  1.0000
  H   H1806     1.0  0.59009  0.03638  0.13951  1.0000
  H   H1807     1.0  0.61218  0.11747  0.27048  1.0000
  H   H1808     1.0  0.66307  0.15327  0.46028  1.0000
  C   C1078     1.0  0.53377  0.19136  0.44442  1.0000
  H   H1809     1.0  0.50546  0.16382  0.27968  1.0000
  H   H1810     1.0  0.57913  0.00401  0.13539  1.0000
  H   H1811     1.0  0.61441  0.01330  0.21366  1.0000
  C   C1079     1.0  0.54055  0.11853  0.22679  1.0000
  Fe  Fe146     1.0  0.53512  0.31524  0.38813  1.0000
  C   C1080     1.0  0.56223  0.27644  0.44659  1.0000
  H   H1812     1.0  0.58018  0.17070  0.42862  1.0000
  H   H1813     1.0  0.68399  0.09414  0.23876  1.0000
  H   H1814     1.0  0.53924  0.09564  0.27962  1.0000
  H   H1815     1.0  0.69049  0.12984  0.20476  1.0000
  H   H1816     1.0  0.58952  0.02958  0.16843  1.0000
  H   H1817     1.0  0.72125  0.16098  0.46788  1.0000
  H   H1818     1.0  0.57831  0.07878  0.33844  1.0000
  H   H1819     1.0  0.63991  0.10804  0.33217  1.0000
  H   H1820     1.0  0.56162  0.14193  0.23319  1.0000
  H   H1821     1.0  0.54148  0.14690  0.22769  1.0000
  H   H1822     1.0  0.67848  0.08002  0.20758  1.0000
  H   H1823     1.0  0.55828  0.10673  0.19620  1.0000
  C   C1081     1.0  0.57721  0.00711  0.15223  1.0000
  H   H1824     1.0  0.50227  0.22505  0.34167  1.0000
  C   C1082     1.0  0.51641  0.22724  0.34317  1.0000
  H   H1825     1.0  0.52759  0.08510  0.25258  1.0000
  S   S294      1.0  0.50906  0.14060  0.35892  1.0000
  N   N73       1.0  0.67006  0.21760  0.35369  1.0000
  C   C1083     1.0  0.68141  0.21962  0.33136  1.0000
  C   C1084     1.0  0.67826  0.23396  0.36340  1.0000
  C   C1085     1.0  0.65110  0.21786  0.35033  1.0000
  C   C1086     1.0  0.66992  0.19980  0.36749  1.0000
  C   C1087     1.0  0.67411  0.20557  0.31715  1.0000
  C   C1088     1.0  0.69870  0.23716  0.36451  1.0000
  C   C1089     1.0  0.63698  0.21605  0.37097  1.0000
  C   C1090     1.0  0.66716  0.19879  0.39261  1.0000
  H   H1826     1.0  0.68332  0.23343  0.32157  1.0000
  H   H1827     1.0  0.69533  0.21849  0.33282  1.0000
  H   H1828     1.0  0.67104  0.23323  0.38020  1.0000
  H   H1829     1.0  0.67670  0.24666  0.35382  1.0000
  H   H1830     1.0  0.65151  0.23062  0.33911  1.0000
  H   H1831     1.0  0.64498  0.20638  0.34227  1.0000
  H   H1832     1.0  0.65921  0.18840  0.36419  1.0000
  H   H1833     1.0  0.68282  0.19606  0.36292  1.0000
  H   H1834     1.0  0.66270  0.20872  0.30977  1.0000
  H   H1835     1.0  0.68509  0.20609  0.30339  1.0000
  H   H1836     1.0  0.66977  0.19149  0.32649  1.0000
  H   H1837     1.0  0.70726  0.24367  0.34827  1.0000
  H   H1838     1.0  0.70248  0.24662  0.37605  1.0000
  H   H1839     1.0  0.70228  0.22437  0.37011  1.0000
  H   H1840     1.0  0.63292  0.20191  0.38043  1.0000
  H   H1841     1.0  0.62441  0.21850  0.36584  1.0000
  H   H1842     1.0  0.64148  0.22614  0.38147  1.0000
  H   H1843     1.0  0.67947  0.20665  0.39776  1.0000
  H   H1844     1.0  0.66467  0.18439  0.40068  1.0000
  H   H1845     1.0  0.65535  0.20329  0.39930  1.0000
  H   H1846     1.0  0.61075  0.08331  0.28148  1.0000
  H   H1847     1.0  0.52524  0.23141  0.39556  1.0000
  H   H1848     1.0  0.58151  0.99630  0.16228  1.0000
  S   S295      1.0  0.52317  0.31415  0.42361  1.0000
  S   S296      1.0  0.52554  0.12951  0.41292  1.0000
  H   H1849     1.0  0.57224  0.12015  0.24658  1.0000
  H   H1850     1.0  0.53445  0.11667  0.21187  1.0000
  C   C1091     1.0  0.52632  0.24436  0.34666  1.0000
  H   H1851     1.0  0.60510  0.02372  0.14867  1.0000
  H   H1852     1.0  0.54192  0.02002  0.12008  1.0000
  H   H1853     1.0  0.51545  0.08783  0.21912  1.0000
  H   H1854     1.0  0.56716  0.09107  0.21187  1.0000
  H   H1855     1.0  0.72711  0.99770  0.02011  1.0000
  H   H1856     1.0  0.53420  0.08196  0.20387  1.0000
  H   H1857     1.0  0.56195  0.01874  0.18906  1.0000
  H   H1858     1.0  0.61369  0.09890  0.47188  1.0000
  N   N74       1.0  0.60615  0.11067  0.31866  1.0000
  C   C1092     1.0  0.61325  0.11406  0.33948  1.0000
  C   C1093     1.0  0.58588  0.10809  0.32358  1.0000
  C   C1094     1.0  0.61472  0.12755  0.30151  1.0000
  C   C1095     1.0  0.61141  0.09429  0.31185  1.0000
  C   C1096     1.0  0.63408  0.11872  0.33803  1.0000
  C   C1097     1.0  0.57510  0.09162  0.34140  1.0000
  C   C1098     1.0  0.60847  0.12798  0.27919  1.0000
  C   C1099     1.0  0.60088  0.08453  0.29555  1.0000
  H   H1859     1.0  0.60863  0.12530  0.34588  1.0000
  H   H1860     1.0  0.60769  0.10187  0.35267  1.0000
  H   H1861     1.0  0.57951  0.10667  0.30896  1.0000
  H   H1862     1.0  0.58289  0.12055  0.32874  1.0000
  H   H1863     1.0  0.61234  0.13976  0.30775  1.0000
  H   H1864     1.0  0.62966  0.12994  0.29776  1.0000
  H   H1865     1.0  0.62612  0.09811  0.30455  1.0000
  H   H1866     1.0  0.60998  0.08368  0.32650  1.0000
  H   H1867     1.0  0.63727  0.11961  0.35468  1.0000
  C   C1100     1.0  0.58753  0.00241  0.23283  1.0000
  S   S297      1.0  0.72076  0.09010  0.08726  1.0000
  H   H1868     1.0  0.70731  0.09448  0.23602  1.0000
  H   H1869     1.0  0.51985  0.25527  0.34780  1.0000
  H   H1870     1.0  0.52039  0.12659  0.45942  1.0000
  C   C1101     1.0  0.69792  0.10238  0.23054  1.0000
  H   H1871     1.0  0.50988  0.19294  0.46748  1.0000
  C   C1102     1.0  0.51985  0.18476  0.46601  1.0000
  S   S298      1.0  0.51186  0.19123  0.33880  1.0000
  H   H1872     1.0  0.51933  0.16432  0.42552  1.0000
  H   H1873     1.0  0.52465  0.21982  0.43120  1.0000
  H   H1874     1.0  0.54762  0.18553  0.40484  1.0000
  H   H1875     1.0  0.63233  0.17570  0.45645  1.0000
  H   H1876     1.0  0.64213  0.16480  0.43577  1.0000
  H   H1877     1.0  0.69812  0.12965  0.16583  1.0000
  H   H1878     1.0  0.56026  0.03552  0.15565  1.0000
  H   H1879     1.0  0.67455  0.12740  0.17388  1.0000
  C   C1103     1.0  0.62697  0.10894  0.46509  1.0000
  S   S299      1.0  0.51155  0.10488  0.31864  1.0000
  H   H1880     1.0  0.52848  0.11622  0.23978  1.0000
  Fe  Fe147     1.0  0.52680  0.32033  0.34130  1.0000
  C   C1104     1.0  0.67254  0.14522  0.46233  1.0000
  S   S300      1.0  0.57344  0.17008  0.47492  1.0000
  C   C1105     1.0  0.61262  0.15290  0.44767  1.0000
  Fe  Fe148     1.0  0.48818  0.05263  0.18447  1.0000
  H   H1881     1.0  0.63565  0.14984  0.47866  1.0000
  H   H1882     1.0  0.73148  0.21180  0.40985  1.0000
  C   C1106     1.0  0.50349  0.10397  0.29360  1.0000
  H   H1883     1.0  0.70282  0.11606  0.25819  1.0000
  H   H1884     1.0  0.53742  0.19915  0.38864  1.0000
  C   C1107     1.0  0.53537  0.99992  0.19742  1.0000
  H   H1885     1.0  0.50106  0.17236  0.43693  1.0000
  H   H1886     1.0  0.58347  0.12630  0.44078  1.0000
  H   H1887     1.0  0.63486  0.11187  0.47834  1.0000
  C   C1108     1.0  0.60192  0.00247  0.21665  1.0000
  H   H1888     1.0  0.64367  0.99499  0.10447  1.0000
  H   H1889     1.0  0.51162  0.30139  0.25701  1.0000
  N   N75       1.0  0.55102  0.10468  0.23146  1.0000
  C   C1109     1.0  0.56424  0.10462  0.21126  1.0000
  H   H1890     1.0  0.55728  0.14386  0.20539  1.0000
  C   C1110     1.0  0.51683  0.20875  0.42372  1.0000
  H   H1891     1.0  0.59013  0.11890  0.19018  1.0000
  H   H1892     1.0  0.49848  0.18085  0.29228  1.0000
  C   C1111     1.0  0.68660  0.11621  0.19995  1.0000
  H   H1893     1.0  0.70739  0.20276  0.41567  1.0000
  C   C1112     1.0  0.51275  0.17564  0.42315  1.0000
  H   H1894     1.0  0.55820  0.11237  0.28401  1.0000
  H   H1895     1.0  0.55279  0.22671  0.40592  1.0000
  H   H1896     1.0  0.51434  0.17680  0.38728  1.0000
  S   S301      1.0  0.49595  0.32095  0.22568  1.0000
  H   H1897     1.0  0.70802  0.17850  0.44434  1.0000
  H   H1898     1.0  0.50271  0.16174  0.30866  1.0000
  C   C1113     1.0  0.50870  0.31283  0.26370  1.0000
  H   H1899     1.0  0.63902  0.13548  0.44593  1.0000
  N   N76       1.0  0.52609  0.19357  0.42357  1.0000
  C   C1114     1.0  0.55269  0.02295  0.15048  1.0000
  N   N77       1.0  0.61324  0.13657  0.46365  1.0000
  H   H1900     1.0  0.54224  0.18159  0.44387  1.0000
  H   H1901     1.0  0.68134  0.10776  0.16844  1.0000
  H   H1902     1.0  0.62817  0.17939  0.42908  1.0000
  H   H1903     1.0  0.48933  0.13263  0.32208  1.0000
  S   S302      1.0  0.55374  0.31693  0.32660  1.0000
  C   C1115     1.0  0.54922  0.10880  0.27196  1.0000
  H   H1904     1.0  0.50148  0.22210  0.40319  1.0000
  H   H1905     1.0  0.50192  0.25029  0.47119  1.0000
  H   H1906     1.0  0.71432  0.10893  0.16182  1.0000
  C   C1116     1.0  0.48916  0.10126  0.25463  1.0000
  C   C1117     1.0  0.72091  0.18967  0.43886  1.0000
  H   H1907     1.0  0.48424  0.07225  0.26421  1.0000
  C   C1118     1.0  0.53707  0.32208  0.44230  1.0000
  H   H1908     1.0  0.71563  0.12938  0.23270  1.0000
  S   S303      1.0  0.48461  0.08098  0.17773  1.0000
  H   H1909     1.0  0.54753  0.99052  0.13650  1.0000
  H   H1910     1.0  0.51423  0.32190  0.46645  1.0000
  H   H1911     1.0  0.72830  0.11016  0.20522  1.0000
  C   C1119     1.0  0.72513  0.11239  0.17164  1.0000
  H   H1912     1.0  0.73301  0.10207  0.17162  1.0000
  H   H1913     1.0  0.52721  0.18612  0.48003  1.0000
  H   H1914     1.0  0.58533  0.13268  0.47905  1.0000
  Fe  Fe149     1.0  0.54024  0.29709  0.56316  1.0000
  S   S304      1.0  0.51671  0.27163  0.57072  1.0000
  Fe  Fe150     1.0  0.65083  0.02699  0.76829  1.0000
  S   S305      1.0  0.66527  0.02466  0.73565  1.0000
  S   S306      1.0  0.66058  0.01961  0.80004  1.0000
  Fe  Fe151     1.0  0.61770  0.03342  0.74903  1.0000
  S   S307      1.0  0.62940  0.03095  0.71518  1.0000
  S   S308      1.0  0.59121  0.04069  0.75738  1.0000
  Fe  Fe152     1.0  0.63799  0.00752  0.73214  1.0000
  S   S309      1.0  0.49561  0.09141  0.67341  1.0000
  Fe  Fe153     1.0  0.65531  0.04835  0.72196  1.0000
  S   S310      1.0  0.67205  0.07445  0.69967  1.0000
  S   S311      1.0  0.62401  0.00851  0.76547  1.0000
  S   S312      1.0  0.64312  0.05217  0.75513  1.0000
  S   S313      1.0  0.52794  0.01842  0.70360  1.0000
  Fe  Fe154     1.0  0.67482  0.12040  0.58126  1.0000
  S   S314      1.0  0.68884  0.14471  0.59459  1.0000
  S   S315      1.0  0.66622  0.09118  0.59943  1.0000
  Fe  Fe155     1.0  0.67365  0.14350  0.53808  1.0000
  S   S316      1.0  0.68717  0.16966  0.54814  1.0000
  S   S317      1.0  0.66425  0.14605  0.50559  1.0000
  Fe  Fe156     1.0  0.70580  0.15426  0.56100  1.0000
  H   H1915     1.0  0.72374  0.26925  0.58626  1.0000
  Fe  Fe157     1.0  0.66897  0.15788  0.58050  1.0000
  S   S318      1.0  0.65597  0.17510  0.60005  1.0000
  S   S319      1.0  0.69363  0.12873  0.54855  1.0000
  S   S320      1.0  0.65363  0.13297  0.56963  1.0000
  C   C1120     1.0  0.69585  0.24120  0.57660  1.0000
  Fe  Fe158     1.0  0.56946  0.18226  0.55195  1.0000
  S   S321      1.0  0.57085  0.15668  0.53932  1.0000
  S   S322      1.0  0.58873  0.19854  0.57029  1.0000
  Fe  Fe159     1.0  0.56080  0.16863  0.51014  1.0000
  H   H1916     1.0  0.72147  0.21050  0.56956  1.0000
  S   S323      1.0  0.56237  0.19541  0.52136  1.0000
  S   S324      1.0  0.54055  0.17129  0.56956  1.0000
  H   H1917     1.0  0.60101  0.13907  0.64933  1.0000
  H   H1918     1.0  0.70628  0.04200  0.89784  1.0000
  H   H1919     1.0  0.69273  0.12677  0.50114  1.0000
  C   C1121     1.0  0.63765  0.18147  0.59052  1.0000
  C   C1122     1.0  0.63045  0.19389  0.60066  1.0000
  C   C1123     1.0  0.61559  0.19906  0.59402  1.0000
  C   C1124     1.0  0.60759  0.19168  0.57740  1.0000
  C   C1125     1.0  0.61472  0.17921  0.56712  1.0000
  C   C1126     1.0  0.62985  0.17416  0.57364  1.0000
  H   H1920     1.0  0.63641  0.19958  0.61369  1.0000
  H   H1921     1.0  0.61019  0.20879  0.60189  1.0000
  H   H1922     1.0  0.60869  0.17361  0.55410  1.0000
  H   H1923     1.0  0.63542  0.16461  0.56567  1.0000
  H   H1924     1.0  0.51434  0.31109  0.61404  1.0000
  C   C1127     1.0  0.66987  0.07871  0.67200  1.0000
  C   C1128     1.0  0.66254  0.06463  0.66118  1.0000
  C   C1129     1.0  0.66147  0.06859  0.63887  1.0000
  C   C1130     1.0  0.66727  0.08666  0.62749  1.0000
  C   C1131     1.0  0.67422  0.10072  0.63848  1.0000
  C   C1132     1.0  0.67583  0.09672  0.66053  1.0000
  H   H1925     1.0  0.65805  0.05067  0.66987  1.0000
  H   H1926     1.0  0.65613  0.05763  0.63042  1.0000
  H   H1927     1.0  0.67858  0.11466  0.62997  1.0000
  H   H1928     1.0  0.68150  0.10766  0.66885  1.0000
  C   C1133     1.0  0.57403  0.03490  0.74176  1.0000
  C   C1134     1.0  0.57590  0.02481  0.72506  1.0000
  C   C1135     1.0  0.56172  0.02002  0.71329  1.0000
  C   C1136     1.0  0.54570  0.02543  0.71801  1.0000
  C   C1137     1.0  0.54390  0.03564  0.73459  1.0000
  C   C1138     1.0  0.55799  0.04024  0.74653  1.0000
  H   H1929     1.0  0.58811  0.02045  0.72140  1.0000
  H   H1930     1.0  0.56308  0.01195  0.70060  1.0000
  H   H1931     1.0  0.53154  0.03972  0.73845  1.0000
  H   H1932     1.0  0.55645  0.04797  0.75954  1.0000
  C   C1139     1.0  0.55443  0.25852  0.49397  1.0000
  C   C1140     1.0  0.70513  0.03471  0.82796  1.0000
  C   C1141     1.0  0.68813  0.02553  0.82374  1.0000
  C   C1142     1.0  0.68207  0.03146  0.80460  1.0000
  C   C1143     1.0  0.69316  0.04661  0.78967  1.0000
  C   C1144     1.0  0.71010  0.05588  0.79400  1.0000
  H   H1933     1.0  0.70972  0.02992  0.84262  1.0000
  H   H1934     1.0  0.67964  0.01376  0.83532  1.0000
  H   H1935     1.0  0.68860  0.05130  0.77488  1.0000
  C   C1145     1.0  0.51675  0.25138  0.56045  1.0000
  C   C1146     1.0  0.53244  0.24536  0.55621  1.0000
  C   C1147     1.0  0.53138  0.22865  0.54871  1.0000
  H   H1936     1.0  0.55583  0.10212  0.66262  1.0000
  C   C1148     1.0  0.50017  0.24077  0.55705  1.0000
  H   H1937     1.0  0.54527  0.25337  0.55910  1.0000
  H   H1938     1.0  0.54344  0.22391  0.54563  1.0000
  Fe  Fe160     1.0  0.54127  0.14636  0.55498  1.0000
  H   H1939     1.0  0.48632  0.21656  0.54623  1.0000
  H   H1940     1.0  0.71003  0.20921  0.53508  1.0000
  C   C1149     1.0  0.68958  0.13067  0.48520  1.0000
  H   H1941     1.0  0.49086  0.04419  0.60557  1.0000
  C   C1150     1.0  0.70915  0.22479  0.60433  1.0000
  H   H1942     1.0  0.72674  0.13475  0.58756  1.0000
  H   H1943     1.0  0.71399  0.08434  0.83255  1.0000
  C   C1151     1.0  0.54119  0.28414  0.48769  1.0000
  C   C1152     1.0  0.70879  0.08567  0.84951  1.0000
  S   S325      1.0  0.60361  0.31569  0.57912  1.0000
  C   C1153     1.0  0.51523  0.12210  0.61276  1.0000
  S   S326      1.0  0.51262  0.19801  0.53409  1.0000
  H   H1944     1.0  0.71527  0.09113  0.88966  1.0000
  H   H1945     1.0  0.53645  0.30026  0.51268  1.0000
  S   S327      1.0  0.72936  0.04342  0.93030  1.0000
  C   C1154     1.0  0.61102  0.15296  0.49698  1.0000
  C   C1155     1.0  0.70448  0.07771  0.92271  1.0000
  H   H1946     1.0  0.48468  0.02990  0.63174  1.0000
  H   H1947     1.0  0.50028  0.12462  0.64341  1.0000
  H   H1948     1.0  0.72260  0.22357  0.60784  1.0000
  H   H1949     1.0  0.67190  0.09394  0.90235  1.0000
  C   C1156     1.0  0.71029  0.07685  0.89837  1.0000
  H   H1950     1.0  0.51657  0.07504  0.64347  1.0000
  H   H1951     1.0  0.70350  0.08185  0.57971  1.0000
  H   H1952     1.0  0.69765  0.20484  0.57332  1.0000
  H   H1953     1.0  0.69866  0.24933  0.55977  1.0000
  H   H1954     1.0  0.61204  0.15692  0.62625  1.0000
  C   C1157     1.0  0.60196  0.15318  0.64172  1.0000
  H   H1955     1.0  0.59372  0.11355  0.48542  1.0000
  N   N78       1.0  0.60868  0.08017  0.68254  1.0000
  C   C1158     1.0  0.61553  0.07294  0.66272  1.0000
  C   C1159     1.0  0.61380  0.10071  0.67654  1.0000
  C   C1160     1.0  0.58822  0.07302  0.68725  1.0000
  C   C1161     1.0  0.61687  0.07344  0.70160  1.0000
  C   C1162     1.0  0.60971  0.05201  0.66443  1.0000
  C   C1163     1.0  0.63410  0.10993  0.66729  1.0000
  C   C1164     1.0  0.57797  0.07981  0.70579  1.0000
  C   C1165     1.0  0.61966  0.08545  0.71936  1.0000
  H   H1956     1.0  0.61120  0.07900  0.64781  1.0000
  H   H1957     1.0  0.63063  0.07700  0.65910  1.0000
  H   H1958     1.0  0.61007  0.10706  0.69074  1.0000
  H   H1959     1.0  0.60601  0.10503  0.66402  1.0000
  H   H1960     1.0  0.70006  0.19476  0.60791  1.0000
  H   H1961     1.0  0.58397  0.05788  0.69188  1.0000
  H   H1962     1.0  0.60850  0.05964  0.71012  1.0000
  H   H1963     1.0  0.63053  0.07156  0.69590  1.0000
  H   H1964     1.0  0.61195  0.04477  0.67991  1.0000
  H   H1965     1.0  0.59526  0.04704  0.66276  1.0000
  H   H1966     1.0  0.61796  0.04818  0.65077  1.0000
  H   H1967     1.0  0.64311  0.10423  0.67688  1.0000
  H   H1968     1.0  0.63759  0.10854  0.64991  1.0000
  H   H1969     1.0  0.63713  0.12478  0.66766  1.0000
  H   H1970     1.0  0.70209  0.06437  0.93355  1.0000
  H   H1971     1.0  0.58054  0.07424  0.72195  1.0000
  H   H1972     1.0  0.56312  0.07441  0.70631  1.0000
  H   H1973     1.0  0.63104  0.09795  0.71344  1.0000
  H   H1974     1.0  0.62346  0.07765  0.73343  1.0000
  H   H1975     1.0  0.60736  0.08927  0.72588  1.0000
  C   C1166     1.0  0.48677  0.30694  0.64670  1.0000
  H   H1976     1.0  0.71560  0.06124  0.86215  1.0000
  C   C1167     1.0  0.50712  0.09893  0.64602  1.0000
  C   C1168     1.0  0.49920  0.22447  0.54908  1.0000
  H   H1977     1.0  0.52722  0.28270  0.62601  1.0000
  H   H1978     1.0  0.48798  0.24526  0.56041  1.0000
  H   H1979     1.0  0.72176  0.00649  0.82153  1.0000
  H   H1980     1.0  0.48510  0.06164  0.63555  1.0000
  H   H1981     1.0  0.58251  0.07626  0.67224  1.0000
  H   H1982     1.0  0.72334  0.99893  0.93600  1.0000
  H   H1983     1.0  0.53671  0.99440  0.75414  1.0000
  H   H1984     1.0  0.68774  0.04374  0.91675  1.0000
  H   H1985     1.0  0.69550  0.20347  0.63229  1.0000
  Fe  Fe161     1.0  0.53362  0.18251  0.53783  1.0000
  H   H1986     1.0  0.66810  0.23545  0.57019  1.0000
  S   S328      1.0  0.53239  0.11702  0.57321  1.0000
  C   C1169     1.0  0.73276  0.18385  0.48268  1.0000
  C   C1170     1.0  0.67815  0.06995  0.89117  1.0000
  H   H1987     1.0  0.51464  0.13512  0.60420  1.0000
  H   H1988     1.0  0.53882  0.14232  0.48407  1.0000
  H   H1989     1.0  0.69697  0.09124  0.84829  1.0000
  H   H1990     1.0  0.60760  0.16235  0.65280  1.0000
  Fe  Fe162     1.0  0.48868  0.06176  0.69039  1.0000
  C   C1171     1.0  0.71380  0.09898  0.60305  1.0000
  C   C1172     1.0  0.52420  0.09407  0.61282  1.0000
  H   H1991     1.0  0.67447  0.21534  0.57723  1.0000
  H   H1992     1.0  0.70426  0.99478  0.96904  1.0000
  H   H1993     1.0  0.59964  0.14362  0.50930  1.0000
  C   C1173     1.0  0.71081  0.22164  0.54251  1.0000
  H   H1994     1.0  0.69848  0.07048  0.60715  1.0000
  H   H1995     1.0  0.72000  0.09548  0.85440  1.0000
  H   H1996     1.0  0.72076  0.07425  0.59221  1.0000
  H   H1997     1.0  0.69234  0.08290  0.92554  1.0000
  H   H1998     1.0  0.52108  0.23820  0.49011  1.0000
  H   H1999     1.0  0.73051  0.07362  0.62494  1.0000
  H   H2000     1.0  0.51939  0.25024  0.51158  1.0000
  H   H2001     1.0  0.52229  0.26670  0.65079  1.0000
  N   N79       1.0  0.49172  0.29181  0.63623  1.0000
  C   C1174     1.0  0.71615  0.04996  0.81314  1.0000
  H   H2002     1.0  0.66949  0.22812  0.59829  1.0000
  H   H2003     1.0  0.53072  0.08542  0.60425  1.0000
  H   H2004     1.0  0.49573  0.27486  0.66484  1.0000
  C   C1175     1.0  0.51471  0.21825  0.54501  1.0000
  H   H2005     1.0  0.50715  0.29046  0.60487  1.0000
  H   H2006     1.0  0.68165  0.20539  0.61212  1.0000
  H   H2007     1.0  0.69595  0.25167  0.58723  1.0000
  H   H2008     1.0  0.60567  0.16269  0.48696  1.0000
  H   H2009     1.0  0.62069  0.16144  0.50555  1.0000
  C   C1176     1.0  0.67863  0.09045  0.88730  1.0000
  C   C1177     1.0  0.51608  0.08811  0.63500  1.0000
  H   H2010     1.0  0.72384  0.23155  0.53434  1.0000
  H   H2011     1.0  0.56803  0.26852  0.48852  1.0000
  H   H2012     1.0  0.71855  0.06769  0.78244  1.0000
  S   S329      1.0  0.53134  0.15637  0.52461  1.0000
  C   C1178     1.0  0.51591  0.27338  0.63834  1.0000
  Fe  Fe163     1.0  0.50359  0.03005  0.70642  1.0000
  C   C1179     1.0  0.50706  0.11610  0.63494  1.0000
  H   H2013     1.0  0.62134  0.12993  0.49488  1.0000
  H   H2014     1.0  0.55555  0.29269  0.48418  1.0000
  C   C1180     1.0  0.50387  0.28405  0.64956  1.0000
  H   H2015     1.0  0.53937  0.27871  0.52357  1.0000
  S   S330      1.0  0.49789  0.05326  0.72194  1.0000
  H   H2016     1.0  0.51829  0.28027  0.51490  1.0000
  C   C1181     1.0  0.53331  0.28566  0.51111  1.0000
  H   H2017     1.0  0.68559  0.02949  0.87343  1.0000
  S   S331      1.0  0.49646  0.03990  0.67426  1.0000
  H   H2018     1.0  0.58649  0.99090  0.79828  1.0000
  H   H2019     1.0  0.51354  0.29521  0.65500  1.0000
  H   H2020     1.0  0.49872  0.31900  0.64405  1.0000
  H   H2021     1.0  0.48715  0.99033  0.68293  1.0000
  C   C1182     1.0  0.55649  0.23964  0.49020  1.0000
  C   C1183     1.0  0.69571  0.20606  0.61437  1.0000
  H   H2022     1.0  0.66932  0.06337  0.88026  1.0000
  N   N80       1.0  0.69612  0.06529  0.88802  1.0000
  H   H2023     1.0  0.67051  0.06400  0.90810  1.0000
  H   H2024     1.0  0.72272  0.07186  0.89715  1.0000
  H   H2025     1.0  0.56806  0.23699  0.49769  1.0000
  H   H2026     1.0  0.69917  0.22685  0.53879  1.0000
  H   H2027     1.0  0.69228  0.10009  0.88243  1.0000
  C   C1184     1.0  0.50191  0.30030  0.61339  1.0000
  S   S332      1.0  0.56759  0.30381  0.54161  1.0000
  H   H2028     1.0  0.67075  0.09328  0.87426  1.0000
  H   H2029     1.0  0.70781  0.09621  0.62078  1.0000
  C   C1185     1.0  0.70941  0.08052  0.59486  1.0000
  H   H2030     1.0  0.72980  0.25250  0.55513  1.0000
  H   H2031     1.0  0.69323  0.05806  0.85617  1.0000
  H   H2032     1.0  0.71575  0.08724  0.92802  1.0000
  N   N81       1.0  0.57241  0.14346  0.62515  1.0000
  C   C1186     1.0  0.56154  0.15392  0.61285  1.0000
  C   C1187     1.0  0.58479  0.13755  0.60848  1.0000
  C   C1188     1.0  0.58353  0.15626  0.63764  1.0000
  C   C1189     1.0  0.55913  0.12741  0.64049  1.0000
  C   C1190     1.0  0.54897  0.16250  0.62696  1.0000
  C   C1191     1.0  0.57547  0.12526  0.59357  1.0000
  C   C1192     1.0  0.56721  0.11342  0.65270  1.0000
  H   H2033     1.0  0.57077  0.16512  0.60007  1.0000
  H   H2034     1.0  0.55256  0.14506  0.60392  1.0000
  H   H2035     1.0  0.59353  0.13008  0.61633  1.0000
  H   H2036     1.0  0.59437  0.14977  0.59756  1.0000
  H   H2037     1.0  0.58715  0.17066  0.62874  1.0000
  H   H2038     1.0  0.57548  0.15625  0.65382  1.0000
  H   H2039     1.0  0.55080  0.13206  0.65334  1.0000
  H   H2040     1.0  0.54918  0.11980  0.63152  1.0000
  H   H2041     1.0  0.55635  0.17167  0.63688  1.0000
  H   H2042     1.0  0.54294  0.17102  0.61599  1.0000
  H   H2043     1.0  0.53744  0.15193  0.63764  1.0000
  H   H2044     1.0  0.56910  0.13278  0.58198  1.0000
  H   H2045     1.0  0.58594  0.12079  0.58336  1.0000
  H   H2046     1.0  0.56533  0.11277  0.60292  1.0000
  H   H2047     1.0  0.57514  0.10717  0.64137  1.0000
  H   H2048     1.0  0.57546  0.11945  0.66430  1.0000
  S   S333      1.0  0.55118  0.30910  0.59083  1.0000
  C   C1193     1.0  0.70994  0.21643  0.56737  1.0000
  C   C1194     1.0  0.67996  0.03095  0.89012  1.0000
  H   H2049     1.0  0.71272  0.12500  0.62879  1.0000
  C   C1195     1.0  0.56712  0.99267  0.77559  1.0000
  C   C1196     1.0  0.67602  0.22920  0.58104  1.0000
  H   H2050     1.0  0.72213  0.11020  0.55850  1.0000
  N   N82       1.0  0.71044  0.23173  0.58023  1.0000
  H   H2051     1.0  0.55161  0.25768  0.51200  1.0000
  C   C1197     1.0  0.50532  0.25717  0.48514  1.0000
  H   H2052     1.0  0.58086  0.09486  0.70338  1.0000
  H   H2053     1.0  0.72227  0.17342  0.59565  1.0000
  H   H2054     1.0  0.70562  0.23477  0.61431  1.0000
  C   C1198     1.0  0.52357  0.11096  0.60153  1.0000
  H   H2055     1.0  0.71811  0.01438  0.79505  1.0000
  H   H2056     1.0  0.67799  0.01753  0.90073  1.0000
  H   H2057     1.0  0.66635  0.03336  0.89048  1.0000
  C   C1199     1.0  0.70341  0.06662  0.86406  1.0000
  C   C1200     1.0  0.69315  0.04571  0.89896  1.0000
  H   H2058     1.0  0.49338  0.25277  0.49868  1.0000
  H   H2059     1.0  0.72288  0.98998  0.86580  1.0000
  H   H2060     1.0  0.70576  0.10725  0.59485  1.0000
  C   C1201     1.0  0.49115  0.30895  0.59799  1.0000
  H   H2061     1.0  0.60848  0.99556  0.70719  1.0000
  H   H2062     1.0  0.50841  0.26257  0.63055  1.0000
  H   H2063     1.0  0.55764  0.00125  0.77362  1.0000
  H   H2064     1.0  0.57891  0.99937  0.76212  1.0000
  H   H2065     1.0  0.49184  0.08125  0.60159  1.0000
  N   N83       1.0  0.54013  0.26506  0.48354  1.0000
  C   C1202     1.0  0.72872  0.24555  0.57222  1.0000
  C   C1203     1.0  0.52178  0.25219  0.49342  1.0000
  C   C1204     1.0  0.72653  0.13394  0.62181  1.0000
  H   H2066     1.0  0.49968  0.31365  0.58144  1.0000
  H   H2067     1.0  0.72489  0.04145  0.97698  1.0000
  C   C1205     1.0  0.62114  0.14213  0.48318  1.0000
  C   C1206     1.0  0.57392  0.99527  0.79729  1.0000
  H   H2068     1.0  0.48604  0.26589  0.60878  1.0000
  H   H2069     1.0  0.48986  0.29954  0.68113  1.0000
  C   C1207     1.0  0.67653  0.14035  0.48303  1.0000
  C   C1208     1.0  0.72262  0.00356  0.80453  1.0000
  H   H2070     1.0  0.57756  0.01008  0.79803  1.0000
  H   H2071     1.0  0.62907  0.31638  0.60799  1.0000
  H   H2072     1.0  0.54436  0.22846  0.49848  1.0000
  H   H2073     1.0  0.72546  0.14818  0.61926  1.0000
  H   H2074     1.0  0.73177  0.17515  0.49877  1.0000
  H   H2075     1.0  0.48805  0.32123  0.60325  1.0000
  H   H2076     1.0  0.48567  0.09633  0.56774  1.0000
  Fe  Fe164     1.0  0.57792  0.31854  0.56783  1.0000
  H   H2077     1.0  0.53904  0.32071  0.66685  1.0000
  H   H2078     1.0  0.72033  0.18872  0.48383  1.0000
  H   H2079     1.0  0.73312  0.01368  0.97097  1.0000
  H   H2080     1.0  0.48345  0.29364  0.88121  1.0000
  S   S334      1.0  0.53351  0.32254  0.54856  1.0000
  C   C1209     1.0  0.53114  0.60366  0.33546  1.0000
  H   H2081     1.0  0.68130  0.63026  0.03218  1.0000
  S   S335      1.0  0.58846  0.36026  0.33597  1.0000
  Fe  Fe165     1.0  0.67744  0.45053  0.40222  1.0000
  S   S336      1.0  0.68817  0.42707  0.39476  1.0000
  S   S337      1.0  0.68566  0.46138  0.43214  1.0000
  Fe  Fe166     1.0  0.66167  0.45337  0.35993  1.0000
  S   S338      1.0  0.67152  0.43026  0.34932  1.0000
  S   S339      1.0  0.64426  0.46720  0.34077  1.0000
  Fe  Fe167     1.0  0.66151  0.41635  0.38433  1.0000
  S   S340      1.0  0.64614  0.38663  0.39557  1.0000
  Fe  Fe168     1.0  0.69725  0.44309  0.36069  1.0000
  H   H2082     1.0  0.56245  0.32357  0.42196  1.0000
  S   S341      1.0  0.64981  0.43855  0.39458  1.0000
  S   S342      1.0  0.68840  0.46752  0.36852  1.0000
  H   H2083     1.0  0.57663  0.37785  0.45805  1.0000
  H   H2084     1.0  0.72310  0.59365  0.99737  1.0000
  C   C1210     1.0  0.50145  0.32506  0.25132  1.0000
  H   H2085     1.0  0.57264  0.34971  0.25455  1.0000
  H   H2086     1.0  0.57571  0.38476  0.29211  1.0000
  C   C1211     1.0  0.55830  0.33342  0.47371  1.0000
  H   H2087     1.0  0.57602  0.65025  0.05156  1.0000
  C   C1212     1.0  0.53417  0.38102  0.25621  1.0000
  C   C1213     1.0  0.54561  0.36795  0.24991  1.0000
  C   C1214     1.0  0.58162  0.39317  0.19876  1.0000
  N   N84       1.0  0.72007  0.38530  0.36455  1.0000
  Fe  Fe169     1.0  0.49594  0.37644  0.17375  1.0000
  S   S343      1.0  0.52015  0.40001  0.15641  1.0000
  H   H2088     1.0  0.54177  0.39558  0.25076  1.0000
  H   H2089     1.0  0.50541  0.58005  0.36388  1.0000
  H   H2090     1.0  0.56662  0.40737  0.41041  1.0000
  H   H2091     1.0  0.68514  0.39718  0.34022  1.0000
  Fe  Fe170     1.0  0.61166  0.51174  0.20804  1.0000
  S   S344      1.0  0.60206  0.50056  0.17932  1.0000
  S   S345      1.0  0.60516  0.53734  0.21639  1.0000
  Fe  Fe171     1.0  0.63247  0.48342  0.21724  1.0000
  S   S346      1.0  0.62494  0.47052  0.18834  1.0000
  S   S347      1.0  0.64935  0.47024  0.23804  1.0000
  Fe  Fe172     1.0  0.63111  0.49956  0.17013  1.0000
  S   S348      1.0  0.64445  0.51205  0.13462  1.0000
  Fe  Fe173     1.0  0.59676  0.47278  0.20005  1.0000
  S   S349      1.0  0.57065  0.44937  0.20997  1.0000
  S   S350      1.0  0.64087  0.51211  0.19801  1.0000
  S   S351      1.0  0.60416  0.48432  0.22983  1.0000
  Fe  Fe174     1.0  0.50627  0.59623  0.21588  1.0000
  S   S352      1.0  0.49716  0.60088  0.18341  1.0000
  C   C1215     1.0  0.52885  0.32447  0.46271  1.0000
  Fe  Fe175     1.0  0.51590  0.56164  0.20669  1.0000
  S   S353      1.0  0.50791  0.56421  0.17359  1.0000
  S   S354      1.0  0.52272  0.53522  0.21698  1.0000
  Fe  Fe176     1.0  0.52275  0.59410  0.16949  1.0000
  S   S355      1.0  0.54252  0.60760  0.13725  1.0000
  H   H2092     1.0  0.55000  0.63776  0.16184  1.0000
  S   S356      1.0  0.53257  0.59085  0.20157  1.0000
  H   H2093     1.0  0.71594  0.36468  0.39332  1.0000
  C   C1216     1.0  0.58197  0.53624  0.21845  1.0000
  C   C1217     1.0  0.57598  0.55163  0.22182  1.0000
  C   C1218     1.0  0.55776  0.55149  0.22146  1.0000
  C   C1219     1.0  0.54546  0.53582  0.21811  1.0000
  C   C1220     1.0  0.55133  0.52024  0.21550  1.0000
  C   C1221     1.0  0.56958  0.52048  0.21551  1.0000
  H   H2094     1.0  0.58548  0.56372  0.22449  1.0000
  H   H2095     1.0  0.55321  0.56343  0.22390  1.0000
  H   H2096     1.0  0.54181  0.50803  0.21314  1.0000
  H   H2097     1.0  0.57406  0.50849  0.21315  1.0000
  C   C1222     1.0  0.57170  0.63431  0.11226  1.0000
  C   C1223     1.0  0.55905  0.62918  0.13200  1.0000
  H   H2098     1.0  0.57139  0.62497  0.10080  1.0000
  C   C1224     1.0  0.70376  0.54673  0.11074  1.0000
  C   C1225     1.0  0.69801  0.53755  0.13256  1.0000
  C   C1226     1.0  0.67985  0.52717  0.14023  1.0000
  C   C1227     1.0  0.66734  0.52539  0.12594  1.0000
  C   C1228     1.0  0.67313  0.53446  0.10405  1.0000
  C   C1229     1.0  0.69117  0.54529  0.09654  1.0000
  H   H2099     1.0  0.70767  0.53839  0.14362  1.0000
  H   H2100     1.0  0.67563  0.52016  0.15705  1.0000
  H   H2101     1.0  0.66358  0.53310  0.09284  1.0000
  H   H2102     1.0  0.69545  0.55208  0.07964  1.0000
  H   H2103     1.0  0.61757  0.38748  0.44047  1.0000
  H   H2104     1.0  0.71072  0.62222  0.99932  1.0000
  H   H2105     1.0  0.58671  0.36712  0.41164  1.0000
  H   H2106     1.0  0.59852  0.45423  0.31072  1.0000
  C   C1230     1.0  0.53405  0.41406  0.17119  1.0000
  C   C1231     1.0  0.55034  0.42671  0.16014  1.0000
  C   C1232     1.0  0.56170  0.43792  0.17158  1.0000
  C   C1233     1.0  0.55673  0.43662  0.19418  1.0000
  C   C1234     1.0  0.54027  0.42426  0.20511  1.0000
  C   C1235     1.0  0.52906  0.41301  0.19373  1.0000
  H   H2107     1.0  0.55432  0.42770  0.14267  1.0000
  H   H2108     1.0  0.57435  0.44739  0.16297  1.0000
  H   H2109     1.0  0.53626  0.42326  0.22256  1.0000
  H   H2110     1.0  0.51649  0.40368  0.20246  1.0000
  C   C1236     1.0  0.49506  0.43505  0.14973  1.0000
  C   C1237     1.0  0.72510  0.40093  0.37666  1.0000
  H   H2111     1.0  0.53478  0.60190  0.40038  1.0000
  H   H2112     1.0  0.64308  0.57119  0.16521  1.0000
  H   H2113     1.0  0.51881  0.44448  0.17882  1.0000
  C   C1238     1.0  0.51224  0.62506  0.34203  1.0000
  C   C1239     1.0  0.49463  0.61398  0.26411  1.0000
  C   C1240     1.0  0.60086  0.40245  0.40858  1.0000
  S   S357      1.0  0.72697  0.55893  0.10169  1.0000
  C   C1241     1.0  0.57579  0.37360  0.41671  1.0000
  C   C1242     1.0  0.50036  0.34173  0.28151  1.0000
  H   H2114     1.0  0.52118  0.37824  0.24994  1.0000
  C   C1243     1.0  0.69955  0.58993  0.13380  1.0000
  C   C1244     1.0  0.56309  0.35569  0.22346  1.0000
  H   H2115     1.0  0.66057  0.38168  0.46511  1.0000
  H   H2116     1.0  0.68309  0.61552  0.12633  1.0000
  C   C1245     1.0  0.53423  0.65458  0.09948  1.0000
  H   H2117     1.0  0.54858  0.59967  0.37563  1.0000
  S   S358      1.0  0.72413  0.44346  0.34101  1.0000
  C   C1246     1.0  0.53851  0.36848  0.21322  1.0000
  H   H2118     1.0  0.69655  0.37206  0.39017  1.0000
  H   H2119     1.0  0.60741  0.41463  0.41533  1.0000
  H   H2120     1.0  0.53042  0.37869  0.27434  1.0000
  C   C1247     1.0  0.70130  0.35158  0.37082  1.0000
  C   C1248     1.0  0.52741  0.64199  0.32976  1.0000
  C   C1249     1.0  0.67269  0.45194  0.45843  1.0000
  C   C1250     1.0  0.65441  0.44218  0.46133  1.0000
  H   H2121     1.0  0.55001  0.36649  0.40454  1.0000
  H   H2122     1.0  0.69488  0.46243  0.47467  1.0000
  N   N85       1.0  0.58366  0.39139  0.42392  1.0000
  H   H2123     1.0  0.49524  0.59423  0.39548  1.0000
  H   H2124     1.0  0.64805  0.44015  0.44719  1.0000
  H   H2125     1.0  0.57420  0.39311  0.23298  1.0000
  H   H2126     1.0  0.55911  0.39995  0.21692  1.0000
  C   C1251     1.0  0.70297  0.65420  0.07367  1.0000
  C   C1252     1.0  0.64697  0.46929  0.31193  1.0000
  C   C1253     1.0  0.65858  0.46106  0.30034  1.0000
  C   C1254     1.0  0.65944  0.46184  0.27763  1.0000
  C   C1255     1.0  0.64879  0.47090  0.26626  1.0000
  C   C1256     1.0  0.63736  0.47938  0.27777  1.0000
  C   C1257     1.0  0.63648  0.47857  0.30051  1.0000
  H   H2127     1.0  0.66679  0.45395  0.30888  1.0000
  H   H2128     1.0  0.66834  0.45527  0.26885  1.0000
  H   H2129     1.0  0.62912  0.48644  0.26919  1.0000
  H   H2130     1.0  0.62752  0.48505  0.30933  1.0000
  H   H2131     1.0  0.65020  0.55180  0.15747  1.0000
  H   H2132     1.0  0.72976  0.38763  0.40818  1.0000
  C   C1258     1.0  0.60469  0.36667  0.35261  1.0000
  C   C1259     1.0  0.61836  0.38302  0.34541  1.0000
  C   C1260     1.0  0.63107  0.38908  0.35852  1.0000
  C   C1261     1.0  0.63059  0.37861  0.37874  1.0000
  C   C1262     1.0  0.61717  0.36199  0.38586  1.0000
  C   C1263     1.0  0.60410  0.35609  0.37290  1.0000
  H   H2133     1.0  0.61915  0.39113  0.32969  1.0000
  H   H2134     1.0  0.64124  0.40186  0.35286  1.0000
  H   H2135     1.0  0.61669  0.35382  0.40155  1.0000
  H   H2136     1.0  0.59362  0.34342  0.37859  1.0000
  H   H2137     1.0  0.66846  0.58120  0.08812  1.0000
  H   H2138     1.0  0.48790  0.45992  0.15489  1.0000
  Fe  Fe177     1.0  0.56524  0.33502  0.34942  1.0000
  H   H2139     1.0  0.54554  0.38001  0.43894  1.0000
  C   C1264     1.0  0.49785  0.33984  0.26008  1.0000
  C   C1265     1.0  0.54350  0.36989  0.18829  1.0000
  H   H2140     1.0  0.52828  0.35507  0.21958  1.0000
  C   C1266     1.0  0.70832  0.36887  0.38059  1.0000
  H   H2141     1.0  0.55060  0.35971  0.18364  1.0000
  H   H2142     1.0  0.68541  0.60889  0.02858  1.0000
  H   H2143     1.0  0.53686  0.35372  0.25572  1.0000
  C   C1267     1.0  0.55960  0.64147  0.14658  1.0000
  H   H2144     1.0  0.58275  0.40678  0.18902  1.0000
  H   H2145     1.0  0.53799  0.64753  0.06737  1.0000
  S   S359      1.0  0.49058  0.34711  0.16892  1.0000
  H   H2146     1.0  0.49686  0.35282  0.28845  1.0000
  C   C1268     1.0  0.50698  0.32916  0.29419  1.0000
  H   H2147     1.0  0.71273  0.40388  0.38496  1.0000
  H   H2148     1.0  0.64973  0.60262  0.16246  1.0000
  H   H2149     1.0  0.51185  0.58715  0.31813  1.0000
  H   H2150     1.0  0.58812  0.36877  0.23522  1.0000
  H   H2151     1.0  0.60224  0.36574  0.43909  1.0000
  N   N86       1.0  0.55390  0.37069  0.22598  1.0000
  C   C1269     1.0  0.58855  0.38709  0.44628  1.0000
  C   C1270     1.0  0.57038  0.40280  0.42620  1.0000
  H   H2152     1.0  0.69099  0.59008  0.09239  1.0000
  C   C1271     1.0  0.55239  0.39356  0.44235  1.0000
  H   H2153     1.0  0.58117  0.33362  0.44957  1.0000
  C   C1272     1.0  0.60408  0.37774  0.44736  1.0000
  H   H2154     1.0  0.57679  0.41575  0.43161  1.0000
  C   C1273     1.0  0.52004  0.47272  0.16848  1.0000
  H   H2155     1.0  0.53480  0.47708  0.16908  1.0000
  H   H2156     1.0  0.67400  0.60241  0.09772  1.0000
  H   H2157     1.0  0.51415  0.48370  0.17324  1.0000
  C   C1274     1.0  0.57832  0.35521  0.23697  1.0000
  H   H2158     1.0  0.53484  0.59132  0.34282  1.0000
  H   H2159     1.0  0.61095  0.39440  0.40701  1.0000
  H   H2160     1.0  0.55287  0.34208  0.22814  1.0000
  H   H2161     1.0  0.51528  0.45654  0.20033  1.0000
  H   H2162     1.0  0.64690  0.59664  0.13593  1.0000
  C   C1275     1.0  0.67284  0.57417  0.16185  1.0000
  H   H2163     1.0  0.49242  0.34940  0.25071  1.0000
  C   C1276     1.0  0.48578  0.42760  0.19950  1.0000
  H   H2164     1.0  0.71020  0.38242  0.33385  1.0000
  C   C1277     1.0  0.71017  0.39103  0.34674  1.0000
  N   N87       1.0  0.51830  0.60906  0.35204  1.0000
  H   H2165     1.0  0.50402  0.62988  0.35477  1.0000
  H   H2166     1.0  0.68075  0.56381  0.16324  1.0000
  H   H2167     1.0  0.51973  0.62023  0.38214  1.0000
  C   C1278     1.0  0.65561  0.60571  0.14472  1.0000
  H   H2168     1.0  0.65567  0.57426  0.12612  1.0000
  N   N88       1.0  0.67923  0.58682  0.13988  1.0000
  S   S360      1.0  0.70903  0.63418  0.08366  1.0000
  C   C1279     1.0  0.68465  0.65440  0.07817  1.0000
  H   H2169     1.0  0.52051  0.61089  0.30519  1.0000
  H   H2170     1.0  0.51009  0.44007  0.14665  1.0000
  H   H2171     1.0  0.49105  0.58496  0.26910  1.0000
  H   H2172     1.0  0.71066  0.34269  0.37178  1.0000
  H   H2173     1.0  0.70520  0.60016  0.11847  1.0000
  C   C1280     1.0  0.67070  0.57783  0.12253  1.0000
  C   C1281     1.0  0.67654  0.58874  0.09897  1.0000
  S   S361      1.0  0.50549  0.61825  0.23650  1.0000
  H   H2174     1.0  0.55134  0.38392  0.18021  1.0000
  H   H2175     1.0  0.48487  0.47264  0.18712  1.0000
  C   C1282     1.0  0.56656  0.33106  0.45329  1.0000
  H   H2176     1.0  0.52890  0.63982  0.10664  1.0000
  H   H2177     1.0  0.59418  0.65532  0.09174  1.0000
  C   C1283     1.0  0.70226  0.63152  0.00359  1.0000
  N   N89       1.0  0.57967  0.57182  0.15188  1.0000
  C   C1284     1.0  0.57341  0.58271  0.16822  1.0000
  C   C1285     1.0  0.56437  0.56552  0.13968  1.0000
  C   C1286     1.0  0.59623  0.58319  0.13579  1.0000
  C   C1287     1.0  0.58450  0.55587  0.16407  1.0000
  C   C1288     1.0  0.58807  0.59310  0.17981  1.0000
  C   C1289     1.0  0.54815  0.54989  0.15264  1.0000
  C   C1290     1.0  0.59397  0.60077  0.12270  1.0000
  C   C1291     1.0  0.59058  0.54264  0.15005  1.0000
  H   H2178     1.0  0.56711  0.59296  0.16049  1.0000
  H   H2179     1.0  0.56241  0.57373  0.18129  1.0000
  H   H2180     1.0  0.56926  0.56120  0.12425  1.0000
  H   H2181     1.0  0.55866  0.57700  0.13415  1.0000
  H   H2182     1.0  0.60811  0.58698  0.14412  1.0000
  H   H2183     1.0  0.60043  0.57516  0.12350  1.0000
  H   H2184     1.0  0.59576  0.56057  0.17302  1.0000
  H   H2185     1.0  0.57309  0.54780  0.17726  1.0000
  H   H2186     1.0  0.59488  0.58402  0.18866  1.0000
  H   H2187     1.0  0.59840  0.60430  0.16834  1.0000
  H   H2188     1.0  0.58139  0.59953  0.19223  1.0000
  H   H2189     1.0  0.54288  0.55284  0.16872  1.0000
  H   H2190     1.0  0.53685  0.54807  0.14320  1.0000
  H   H2191     1.0  0.55176  0.53673  0.15518  1.0000
  H   H2192     1.0  0.58345  0.59772  0.11232  1.0000
  H   H2193     1.0  0.60699  0.60815  0.11158  1.0000
  H   H2194     1.0  0.59062  0.61026  0.13342  1.0000
  H   H2195     1.0  0.60563  0.54535  0.14720  1.0000
  H   H2196     1.0  0.58614  0.54323  0.13400  1.0000
  H   H2197     1.0  0.58457  0.52838  0.15888  1.0000
  S   S362      1.0  0.49118  0.36964  0.21013  1.0000
  N   N90       1.0  0.59973  0.42171  0.29184  1.0000
  C   C1292     1.0  0.60842  0.42957  0.30986  1.0000
  C   C1293     1.0  0.60974  0.40834  0.28463  1.0000
  C   C1294     1.0  0.58009  0.41193  0.30136  1.0000
  C   C1295     1.0  0.60121  0.43732  0.27361  1.0000
  C   C1296     1.0  0.59875  0.44180  0.32185  1.0000
  C   C1297     1.0  0.63028  0.41629  0.27570  1.0000
  C   C1298     1.0  0.57038  0.39695  0.28970  1.0000
  C   C1299     1.0  0.59519  0.43261  0.25214  1.0000
  H   H2198     1.0  0.60954  0.41848  0.32264  1.0000
  H   H2199     1.0  0.62254  0.43807  0.30342  1.0000
  H   H2200     1.0  0.60391  0.40148  0.27182  1.0000
  H   H2201     1.0  0.60809  0.39694  0.29844  1.0000
  H   H2202     1.0  0.57883  0.40492  0.31857  1.0000
  H   H2203     1.0  0.57175  0.42186  0.30224  1.0000
  H   H2204     1.0  0.59299  0.44643  0.27913  1.0000
  H   H2205     1.0  0.61522  0.44654  0.26929  1.0000
  H   H2206     1.0  0.58480  0.43436  0.33043  1.0000
  H   H2207     1.0  0.60653  0.44657  0.33460  1.0000
  H   H2208     1.0  0.63578  0.40555  0.26936  1.0000
  H   H2209     1.0  0.63312  0.42791  0.26192  1.0000
  H   H2210     1.0  0.63796  0.42049  0.28871  1.0000
  H   H2211     1.0  0.57121  0.40180  0.27209  1.0000
  H   H2212     1.0  0.55574  0.39229  0.29726  1.0000
  H   H2213     1.0  0.58054  0.43170  0.25269  1.0000
  H   H2214     1.0  0.59813  0.42016  0.24753  1.0000
  H   H2215     1.0  0.60309  0.44364  0.23835  1.0000
  H   H2216     1.0  0.73298  0.36983  0.34417  1.0000
  H   H2217     1.0  0.53572  0.63902  0.31553  1.0000
  C   C1300     1.0  0.52389  0.59918  0.31450  1.0000
  H   H2218     1.0  0.53458  0.59571  0.30343  1.0000
  H   H2219     1.0  0.56910  0.35619  0.20625  1.0000
  H   H2220     1.0  0.54429  0.61442  0.33044  1.0000
  C   C1301     1.0  0.67562  0.60512  0.14102  1.0000
  H   H2221     1.0  0.48455  0.41130  0.23115  1.0000
  H   H2222     1.0  0.70283  0.57715  0.13036  1.0000
  C   C1302     1.0  0.71094  0.59680  0.15090  1.0000
  S   S363      1.0  0.72421  0.60014  0.05382  1.0000
  H   H2223     1.0  0.67714  0.40303  0.46299  1.0000
  H   H2224     1.0  0.53119  0.37905  0.21523  1.0000
  H   H2225     1.0  0.49363  0.41901  0.19183  1.0000
  H   H2226     1.0  0.72545  0.59797  0.14462  1.0000
  H   H2227     1.0  0.50303  0.62102  0.33039  1.0000
  C   C1303     1.0  0.69214  0.62364  0.02734  1.0000
  H   H2228     1.0  0.57921  0.38331  0.18753  1.0000
  H   H2229     1.0  0.67456  0.64235  0.08733  1.0000
  C   C1304     1.0  0.68078  0.45478  0.47686  1.0000
  H   H2230     1.0  0.54291  0.40226  0.44079  1.0000
  H   H2231     1.0  0.67539  0.58188  0.17543  1.0000
  H   H2232     1.0  0.72989  0.46284  0.37737  1.0000
  H   H2233     1.0  0.70717  0.58719  0.16674  1.0000
  H   H2234     1.0  0.67381  0.56450  0.12237  1.0000
  C   C1305     1.0  0.50171  0.59312  0.36028  1.0000
  H   H2235     1.0  0.55450  0.39216  0.45959  1.0000
  C   C1306     1.0  0.51150  0.45434  0.18421  1.0000
  H   H2236     1.0  0.68135  0.61090  0.15467  1.0000
  H   H2237     1.0  0.69175  0.62982  0.99291  1.0000
  H   H2238     1.0  0.54040  0.62594  0.36396  1.0000
  C   C1307     1.0  0.69030  0.39107  0.35432  1.0000
  H   H2239     1.0  0.59517  0.39409  0.20342  1.0000
  H   H2240     1.0  0.52567  0.58558  0.38484  1.0000
  H   H2241     1.0  0.71018  0.61060  0.15351  1.0000
  H   H2242     1.0  0.55631  0.36964  0.26026  1.0000
  H   H2243     1.0  0.68759  0.34386  0.38007  1.0000
  N   N91       1.0  0.49120  0.44671  0.18643  1.0000
  H   H2244     1.0  0.65498  0.61965  0.13792  1.0000
  H   H2245     1.0  0.59249  0.39974  0.45337  1.0000
  H   H2246     1.0  0.48722  0.46171  0.21284  1.0000
  C   C1308     1.0  0.59920  0.40930  0.38487  1.0000
  H   H2247     1.0  0.53074  0.36704  0.18147  1.0000
  C   C1309     1.0  0.56681  0.38959  0.21941  1.0000
  H   H2248     1.0  0.56496  0.38766  0.38942  1.0000
  C   C1310     1.0  0.58458  0.65157  0.10699  1.0000
  C   C1311     1.0  0.52800  0.61447  0.37038  1.0000
  H   H2249     1.0  0.56933  0.36657  0.38555  1.0000
  C   C1312     1.0  0.56448  0.37403  0.39812  1.0000
  H   H2250     1.0  0.56664  0.36374  0.43081  1.0000
  H   H2251     1.0  0.68122  0.37709  0.36018  1.0000
  H   H2252     1.0  0.64953  0.55601  0.18476  1.0000
  H   H2253     1.0  0.58990  0.41817  0.38377  1.0000
  C   C1313     1.0  0.53465  0.59950  0.38331  1.0000
  H   H2254     1.0  0.70143  0.62466  0.03936  1.0000
  S   S364      1.0  0.53867  0.33982  0.36247  1.0000
  H   H2255     1.0  0.50308  0.43129  0.22483  1.0000
  H   H2256     1.0  0.71733  0.40508  0.33779  1.0000
  H   H2257     1.0  0.59540  0.39783  0.37595  1.0000
  H   H2258     1.0  0.61280  0.41776  0.37600  1.0000
  H   H2259     1.0  0.60428  0.37271  0.46479  1.0000
  H   H2260     1.0  0.68906  0.39936  0.36725  1.0000
  H   H2261     1.0  0.58605  0.34579  0.23117  1.0000
  C   C1314     1.0  0.65273  0.56287  0.16732  1.0000
  C   C1315     1.0  0.55598  0.32541  0.43761  1.0000
  H   H2262     1.0  0.49608  0.64234  0.26430  1.0000
  S   S365      1.0  0.49060  0.56666  0.22415  1.0000
  H   H2263     1.0  0.51896  0.47156  0.15125  1.0000
  H   H2264     1.0  0.69963  0.35459  0.35357  1.0000
  N   N92       1.0  0.71372  0.65110  0.99946  1.0000
  C   C1316     1.0  0.49146  0.62864  0.27375  1.0000
  H   H2265     1.0  0.72495  0.64872  0.02922  1.0000
  H   H2266     1.0  0.53628  0.64821  0.34072  1.0000
  C   C1317     1.0  0.48863  0.42597  0.22351  1.0000
  C   C1318     1.0  0.48888  0.59474  0.38065  1.0000
  C   C1319     1.0  0.66325  0.39481  0.47114  1.0000
  Fe  Fe178     1.0  0.48394  0.34054  0.20589  1.0000
  H   H2267     1.0  0.49334  0.59091  0.34732  1.0000
  H   H2268     1.0  0.65390  0.40274  0.46572  1.0000
  S   S366      1.0  0.50729  0.33065  0.32199  1.0000
  C   C1320     1.0  0.48859  0.59632  0.27637  1.0000
  H   H2269     1.0  0.55711  0.65025  0.08065  1.0000
  C   C1321     1.0  0.72963  0.65163  0.01119  1.0000
  C   C1322     1.0  0.48569  0.44594  0.16434  1.0000
  H   H2270     1.0  0.52097  0.65252  0.32312  1.0000
  H   H2271     1.0  0.48418  0.60726  0.37815  1.0000
  H   H2272     1.0  0.49091  0.42026  0.15667  1.0000
  H   H2273     1.0  0.49076  0.43644  0.13352  1.0000
  H   H2274     1.0  0.73244  0.41364  0.36507  1.0000
  C   C1323     1.0  0.53941  0.33010  0.47837  1.0000
  Fe  Fe179     1.0  0.73320  0.62420  0.07036  1.0000
  H   H2275     1.0  0.48353  0.62869  0.47069  1.0000
  Fe  Fe180     1.0  0.48335  0.57058  0.19070  1.0000
  S   S367      1.0  0.53635  0.64230  0.78474  1.0000
  C   C1324     1.0  0.55789  0.63302  0.81436  1.0000
  H   H2276     1.0  0.55409  0.38888  0.63114  1.0000
  H   H2277     1.0  0.60628  0.37059  0.66282  1.0000
  H   H2278     1.0  0.61145  0.61633  0.79445  1.0000
  H   H2279     1.0  0.67931  0.62333  0.89498  1.0000
  C   C1325     1.0  0.63208  0.34382  0.52298  1.0000
  Fe  Fe181     1.0  0.65854  0.40826  0.59659  1.0000
  S   S368      1.0  0.63590  0.42001  0.58923  1.0000
  S   S369      1.0  0.65274  0.37980  0.61528  1.0000
  Fe  Fe182     1.0  0.68745  0.44321  0.57650  1.0000
  S   S370      1.0  0.66686  0.45803  0.56755  1.0000
  S   S371      1.0  0.71742  0.45818  0.56839  1.0000
  Fe  Fe183     1.0  0.65095  0.44456  0.60115  1.0000
  S   S372      1.0  0.63372  0.45768  0.62271  1.0000
  Fe  Fe184     1.0  0.65362  0.43219  0.55647  1.0000
  S   S373      1.0  0.63938  0.42946  0.52741  1.0000
  S   S374      1.0  0.67258  0.43191  0.61101  1.0000
  S   S375      1.0  0.67531  0.41830  0.56291  1.0000
  H   H2280     1.0  0.60581  0.39679  0.75086  1.0000
  C   C1326     1.0  0.49977  0.63959  0.62461  1.0000
  C   C1327     1.0  0.62211  0.65434  0.80211  1.0000
  C   C1328     1.0  0.67070  0.44788  0.49810  1.0000
  H   H2281     1.0  0.66058  0.37538  0.56028  1.0000
  H   H2282     1.0  0.69445  0.51016  0.85984  1.0000
  C   C1329     1.0  0.56989  0.63723  0.82917  1.0000
  H   H2283     1.0  0.57042  0.42192  0.64736  1.0000
  H   H2284     1.0  0.64646  0.63109  0.93947  1.0000
  N   N93       1.0  0.64526  0.37906  0.51003  1.0000
  Fe  Fe185     1.0  0.50288  0.34718  0.72194  1.0000
  S   S376      1.0  0.51463  0.35288  0.75212  1.0000
  H   H2285     1.0  0.63031  0.41392  0.72755  1.0000
  C   C1330     1.0  0.51535  0.35231  0.65956  1.0000
  C   C1331     1.0  0.63011  0.44295  0.74406  1.0000
  Fe  Fe186     1.0  0.51173  0.38131  0.74275  1.0000
  S   S377      1.0  0.53201  0.40954  0.73513  1.0000
  H   H2286     1.0  0.48342  0.45928  0.75917  1.0000
  S   S378      1.0  0.50142  0.37572  0.71176  1.0000
  Fe  Fe187     1.0  0.63726  0.51953  0.76586  1.0000
  S   S379      1.0  0.64120  0.52768  0.72901  1.0000
  S   S380      1.0  0.64830  0.53933  0.78846  1.0000
  Fe  Fe188     1.0  0.60898  0.48279  0.76531  1.0000
  S   S381      1.0  0.61142  0.48877  0.72907  1.0000
  S   S382      1.0  0.58986  0.45564  0.78354  1.0000
  Fe  Fe189     1.0  0.64129  0.49838  0.72817  1.0000
  S   S383      1.0  0.65990  0.48685  0.70612  1.0000
  Fe  Fe190     1.0  0.61073  0.51705  0.73346  1.0000
  S   S384      1.0  0.58965  0.52646  0.71670  1.0000
  S   S385      1.0  0.63925  0.49082  0.76469  1.0000
  S   S386      1.0  0.60651  0.51059  0.77006  1.0000
  Fe  Fe191     1.0  0.55101  0.60517  0.72879  1.0000
  S   S387      1.0  0.53962  0.59461  0.76437  1.0000
  S   S388      1.0  0.58037  0.60567  0.71894  1.0000
  Fe  Fe192     1.0  0.51685  0.61612  0.71943  1.0000
  S   S389      1.0  0.50352  0.60700  0.75492  1.0000
  H   H2287     1.0  0.64408  0.44555  0.73467  1.0000
  Fe  Fe193     1.0  0.53082  0.62050  0.76308  1.0000
  H   H2288     1.0  0.70326  0.52912  0.92289  1.0000
  Fe  Fe194     1.0  0.51364  0.58216  0.75266  1.0000
  C   C1332     1.0  0.62384  0.40442  0.69834  1.0000
  S   S390      1.0  0.54316  0.63151  0.72768  1.0000
  S   S391      1.0  0.52602  0.59072  0.71700  1.0000
  C   C1333     1.0  0.58825  0.54901  0.71604  1.0000
  C   C1334     1.0  0.57353  0.55388  0.70840  1.0000
  C   C1335     1.0  0.57098  0.57120  0.70947  1.0000
  C   C1336     1.0  0.58362  0.58405  0.71724  1.0000
  C   C1337     1.0  0.59878  0.57949  0.72403  1.0000
  C   C1338     1.0  0.60092  0.56185  0.72383  1.0000
  H   H2289     1.0  0.56389  0.54410  0.70200  1.0000
  H   H2290     1.0  0.55941  0.57474  0.70395  1.0000
  H   H2291     1.0  0.60865  0.58945  0.72991  1.0000
  H   H2292     1.0  0.61237  0.55820  0.72962  1.0000
  C   C1339     1.0  0.73208  0.44621  0.57889  1.0000
  C   C1340     1.0  0.70176  0.54884  0.79613  1.0000
  C   C1341     1.0  0.68503  0.54164  0.78950  1.0000
  C   C1342     1.0  0.67013  0.54849  0.79518  1.0000
  C   C1343     1.0  0.67236  0.56281  0.80729  1.0000
  H   H2293     1.0  0.71304  0.54320  0.79189  1.0000
  H   H2294     1.0  0.68360  0.53064  0.78024  1.0000
  H   H2295     1.0  0.51759  0.50206  0.75531  1.0000
  H   H2296     1.0  0.60877  0.37452  0.53408  1.0000
  C   C1344     1.0  0.54686  0.42214  0.75014  1.0000
  C   C1345     1.0  0.55576  0.44048  0.74116  1.0000
  C   C1346     1.0  0.56860  0.45093  0.75150  1.0000
  C   C1347     1.0  0.57282  0.44314  0.77095  1.0000
  C   C1348     1.0  0.56357  0.42492  0.78029  1.0000
  C   C1349     1.0  0.55062  0.41442  0.76993  1.0000
  H   H2297     1.0  0.55297  0.44659  0.72586  1.0000
  H   H2298     1.0  0.57531  0.46500  0.74432  1.0000
  H   H2299     1.0  0.56666  0.41880  0.79541  1.0000
  H   H2300     1.0  0.54386  0.40031  0.77703  1.0000
  H   H2301     1.0  0.52549  0.51366  0.72815  1.0000
  S   S392      1.0  0.49808  0.55201  0.76287  1.0000
  C   C1350     1.0  0.51570  0.63853  0.63268  1.0000
  C   C1351     1.0  0.51534  0.63387  0.65535  1.0000
  N   N94       1.0  0.70641  0.49504  0.61710  1.0000
  H   H2302     1.0  0.64724  0.39507  0.53590  1.0000
  C   C1352     1.0  0.48342  0.63561  0.63937  1.0000
  H   H2303     1.0  0.52842  0.64155  0.62136  1.0000
  H   H2304     1.0  0.52772  0.63341  0.66142  1.0000
  H   H2305     1.0  0.71284  0.45166  0.63429  1.0000
  H   H2306     1.0  0.54514  0.38703  0.66752  1.0000
  S   S393      1.0  0.72494  0.57052  0.81781  1.0000
  H   H2307     1.0  0.51223  0.52326  0.74676  1.0000
  C   C1353     1.0  0.64117  0.46567  0.64585  1.0000
  C   C1354     1.0  0.63325  0.47807  0.65526  1.0000
  C   C1355     1.0  0.63871  0.48448  0.67393  1.0000
  C   C1356     1.0  0.65221  0.47858  0.68323  1.0000
  C   C1357     1.0  0.65990  0.46593  0.67404  1.0000
  C   C1358     1.0  0.65434  0.45942  0.65548  1.0000
  H   H2308     1.0  0.62293  0.48286  0.64802  1.0000
  H   H2309     1.0  0.63270  0.49424  0.68087  1.0000
  H   H2310     1.0  0.67013  0.46109  0.68139  1.0000
  H   H2311     1.0  0.66007  0.44942  0.64877  1.0000
  H   H2312     1.0  0.58893  0.40361  0.71968  1.0000
  C   C1359     1.0  0.67827  0.52457  0.89532  1.0000
  N   N95       1.0  0.69295  0.54109  0.88282  1.0000
  H   H2313     1.0  0.53294  0.33207  0.49397  1.0000
  H   H2314     1.0  0.71121  0.42102  0.59083  1.0000
  C   C1360     1.0  0.62817  0.33021  0.60352  1.0000
  C   C1361     1.0  0.65234  0.43844  0.50100  1.0000
  H   H2315     1.0  0.71580  0.52226  0.84326  1.0000
  C   C1362     1.0  0.61509  0.35176  0.58408  1.0000
  C   C1363     1.0  0.62655  0.36610  0.59146  1.0000
  C   C1364     1.0  0.63844  0.36238  0.60536  1.0000
  C   C1365     1.0  0.63901  0.34438  0.61160  1.0000
  H   H2316     1.0  0.50037  0.42158  0.73751  1.0000
  H   H2317     1.0  0.63074  0.39956  0.50531  1.0000
  H   H2318     1.0  0.62639  0.38002  0.58619  1.0000
  H   H2319     1.0  0.64817  0.34142  0.62234  1.0000
  S   S394      1.0  0.57389  0.34533  0.55386  1.0000
  H   H2320     1.0  0.50664  0.35881  0.66873  1.0000
  H   H2321     1.0  0.69016  0.46767  0.63186  1.0000
  C   C1366     1.0  0.59755  0.37088  0.65013  1.0000
  H   H2322     1.0  0.51160  0.50531  0.80923  1.0000
  H   H2323     1.0  0.50352  0.52518  0.80690  1.0000
  H   H2324     1.0  0.72335  0.63213  0.96361  1.0000
  Fe  Fe195     1.0  0.54624  0.33495  0.57515  1.0000
  H   H2325     1.0  0.64013  0.35848  0.48961  1.0000
  H   H2326     1.0  0.58745  0.63894  0.73966  1.0000
  C   C1367     1.0  0.50361  0.59025  0.64355  1.0000
  C   C1368     1.0  0.61024  0.37427  0.51631  1.0000
  H   H2327     1.0  0.61151  0.39312  0.70540  1.0000
  N   N96       1.0  0.61147  0.63924  0.76986  1.0000
  H   H2328     1.0  0.73328  0.48946  0.58653  1.0000
  C   C1369     1.0  0.64631  0.38079  0.53353  1.0000
  H   H2329     1.0  0.66047  0.55171  0.88992  1.0000
  C   C1370     1.0  0.70391  0.56304  0.80841  1.0000
  C   C1371     1.0  0.51953  0.45431  0.70756  1.0000
  C   C1372     1.0  0.50174  0.58039  0.66718  1.0000
  C   C1373     1.0  0.61947  0.63450  0.74877  1.0000
  H   H2330     1.0  0.50709  0.59094  0.67697  1.0000
  H   H2331     1.0  0.60898  0.62587  0.74142  1.0000
  H   H2332     1.0  0.50440  0.51370  0.78431  1.0000
  H   H2333     1.0  0.52144  0.44089  0.71377  1.0000
  C   C1374     1.0  0.72550  0.42793  0.58906  1.0000
  H   H2334     1.0  0.53275  0.46423  0.70750  1.0000
  H   H2335     1.0  0.58218  0.39454  0.75915  1.0000
  N   N97       1.0  0.54387  0.52357  0.77399  1.0000
  C   C1375     1.0  0.56307  0.53428  0.77451  1.0000
  C   C1376     1.0  0.54249  0.50370  0.78176  1.0000
  C   C1377     1.0  0.53105  0.53017  0.78939  1.0000
  C   C1378     1.0  0.54068  0.52720  0.75079  1.0000
  C   C1379     1.0  0.56659  0.55523  0.77178  1.0000
  C   C1380     1.0  0.55419  0.49503  0.76669  1.0000
  C   C1381     1.0  0.51164  0.51762  0.79765  1.0000
  C   C1382     1.0  0.52290  0.51586  0.74533  1.0000
  H   H2336     1.0  0.56731  0.52979  0.79020  1.0000
  H   H2337     1.0  0.57302  0.53177  0.76145  1.0000
  H   H2338     1.0  0.52839  0.49497  0.78406  1.0000
  H   H2339     1.0  0.54626  0.50179  0.79831  1.0000
  H   H2340     1.0  0.53673  0.53257  0.80449  1.0000
  H   H2341     1.0  0.52960  0.54362  0.78174  1.0000
  H   H2342     1.0  0.54086  0.54174  0.74591  1.0000
  H   H2343     1.0  0.55207  0.52551  0.73905  1.0000
  H   H2344     1.0  0.56235  0.56114  0.75691  1.0000
  H   H2345     1.0  0.55981  0.55939  0.78626  1.0000
  H   H2346     1.0  0.58141  0.56152  0.77019  1.0000
  H   H2347     1.0  0.55249  0.48063  0.77434  1.0000
  H   H2348     1.0  0.55002  0.49482  0.75047  1.0000
  H   H2349     1.0  0.56886  0.50197  0.76434  1.0000
  Fe  Fe196     1.0  0.48521  0.34512  0.76934  1.0000
  C   C1383     1.0  0.66226  0.39225  0.49620  1.0000
  H   H2350     1.0  0.66099  0.56831  0.81168  1.0000
  C   C1384     1.0  0.68914  0.57017  0.81366  1.0000
  H   H2351     1.0  0.60188  0.42401  0.68593  1.0000
  H   H2352     1.0  0.61947  0.44429  0.68415  1.0000
  C   C1385     1.0  0.50424  0.43524  0.76453  1.0000
  C   C1386     1.0  0.52987  0.34768  0.62432  1.0000
  H   H2353     1.0  0.62295  0.45686  0.71651  1.0000
  H   H2354     1.0  0.68443  0.51376  0.90195  1.0000
  H   H2355     1.0  0.69055  0.58123  0.82282  1.0000
  C   C1387     1.0  0.69766  0.50053  0.59803  1.0000
  H   H2356     1.0  0.50744  0.42311  0.77322  1.0000
  C   C1388     1.0  0.64449  0.36007  0.50562  1.0000
  H   H2357     1.0  0.51046  0.46730  0.73386  1.0000
  H   H2358     1.0  0.62360  0.40977  0.68104  1.0000
  H   H2359     1.0  0.69022  0.55598  0.90967  1.0000
  C   C1389     1.0  0.59401  0.41427  0.72935  1.0000
  N   N98       1.0  0.61099  0.42807  0.71663  1.0000
  C   C1390     1.0  0.62662  0.41973  0.71215  1.0000
  H   H2360     1.0  0.63905  0.43054  0.70346  1.0000
  H   H2361     1.0  0.63562  0.39848  0.69797  1.0000
  H   H2362     1.0  0.62665  0.42991  0.75566  1.0000
  H   H2363     1.0  0.50020  0.46970  0.71088  1.0000
  C   C1391     1.0  0.66231  0.37534  0.54239  1.0000
  C   C1392     1.0  0.68593  0.55350  0.86745  1.0000
  S   S395      1.0  0.53313  0.35225  0.59540  1.0000
  C   C1393     1.0  0.50427  0.45938  0.72191  1.0000
  C   C1394     1.0  0.55900  0.38500  0.66443  1.0000
  H   H2364     1.0  0.58385  0.36180  0.65739  1.0000
  C   C1395     1.0  0.71121  0.54307  0.91468  1.0000
  H   H2365     1.0  0.62269  0.34727  0.53562  1.0000
  C   C1396     1.0  0.71794  0.46679  0.63036  1.0000
  S   S396      1.0  0.71869  0.60762  0.85796  1.0000
  H   H2366     1.0  0.67239  0.47804  0.60736  1.0000
  N   N99       1.0  0.58323  0.39305  0.62847  1.0000
  C   C1397     1.0  0.51917  0.35656  0.63650  1.0000
  C   C1398     1.0  0.60686  0.43528  0.69480  1.0000
  C   C1399     1.0  0.61641  0.44397  0.72842  1.0000
  C   C1400     1.0  0.67972  0.63693  0.88581  1.0000
  H   H2367     1.0  0.69739  0.56505  0.85807  1.0000
  H   H2368     1.0  0.55150  0.61894  0.81371  1.0000
  H   H2369     1.0  0.62896  0.62599  0.75199  1.0000
  H   H2370     1.0  0.67085  0.52824  0.90985  1.0000
  H   H2371     1.0  0.60424  0.44644  0.73793  1.0000
  H   H2372     1.0  0.58283  0.42084  0.73251  1.0000
  C   C1401     1.0  0.57643  0.38782  0.59008  1.0000
  H   H2373     1.0  0.58186  0.40192  0.58062  1.0000
  N   N100      1.0  0.48785  0.44406  0.73302  1.0000
  H   H2374     1.0  0.69670  0.53068  0.84012  1.0000
  C   C1402     1.0  0.59240  0.44609  0.69541  1.0000
  C   C1403     1.0  0.58569  0.41310  0.62042  1.0000
  C   C1404     1.0  0.53349  0.33077  0.65843  1.0000
  H   H2375     1.0  0.56168  0.38508  0.59618  1.0000
  H   H2376     1.0  0.66285  0.36143  0.54012  1.0000
  C   C1405     1.0  0.59040  0.60595  0.77716  1.0000
  H   H2377     1.0  0.59809  0.41426  0.76336  1.0000
  H   H2378     1.0  0.65097  0.52036  0.88669  1.0000
  H   H2379     1.0  0.59222  0.45233  0.67839  1.0000
  H   H2380     1.0  0.57858  0.43701  0.70208  1.0000
  H   H2381     1.0  0.59532  0.45744  0.70469  1.0000
  H   H2382     1.0  0.63384  0.37274  0.54484  1.0000
  H   H2383     1.0  0.56073  0.36891  0.63944  1.0000
  H   H2384     1.0  0.58419  0.36936  0.61327  1.0000
  H   H2385     1.0  0.60175  0.38939  0.60118  1.0000
  H   H2386     1.0  0.69777  0.50328  0.67086  1.0000
  C   C1406     1.0  0.58709  0.38447  0.60864  1.0000
  H   H2387     1.0  0.66749  0.51763  0.86489  1.0000
  C   C1407     1.0  0.70815  0.53556  0.87001  1.0000
  H   H2388     1.0  0.72112  0.47156  0.64558  1.0000
  H   H2389     1.0  0.57535  0.41514  0.61027  1.0000
  H   H2390     1.0  0.70127  0.48244  0.66477  1.0000
  C   C1408     1.0  0.70337  0.47455  0.62088  1.0000
  H   H2391     1.0  0.69860  0.51586  0.63326  1.0000
  H   H2392     1.0  0.49760  0.42551  0.69752  1.0000
  H   H2393     1.0  0.72475  0.54286  0.90616  1.0000
  H   H2394     1.0  0.63044  0.45389  0.75398  1.0000
  H   H2395     1.0  0.59915  0.41920  0.60954  1.0000
  H   H2396     1.0  0.67997  0.54660  0.85473  1.0000
  S   S397      1.0  0.48360  0.37429  0.76266  1.0000
  H   H2397     1.0  0.70086  0.51569  0.59364  1.0000
  H   H2398     1.0  0.58102  0.60997  0.76687  1.0000
  C   C1409     1.0  0.60164  0.62200  0.78611  1.0000
  N   N101      1.0  0.68442  0.65175  0.89922  1.0000
  H   H2399     1.0  0.51342  0.36643  0.62805  1.0000
  C   C1410     1.0  0.62921  0.38509  0.50365  1.0000
  C   C1411     1.0  0.66340  0.51569  0.88283  1.0000
  H   H2400     1.0  0.70312  0.49579  0.58312  1.0000
  H   H2401     1.0  0.61113  0.39835  0.63356  1.0000
  S   S398      1.0  0.49763  0.62556  0.69877  1.0000
  C   C1412     1.0  0.56394  0.38376  0.63998  1.0000
  C   C1413     1.0  0.69754  0.50097  0.63683  1.0000
  H   H2402     1.0  0.67551  0.38533  0.53501  1.0000
  H   H2403     1.0  0.59456  0.42504  0.64866  1.0000
  C   C1414     1.0  0.49899  0.63024  0.67007  1.0000
  H   H2404     1.0  0.67707  0.45012  0.51219  1.0000
  S   S399      1.0  0.50088  0.64630  0.59617  1.0000
  H   H2405     1.0  0.56808  0.39615  0.67022  1.0000
  H   H2406     1.0  0.69644  0.63550  0.92078  1.0000
  H   H2407     1.0  0.60596  0.35467  0.57338  1.0000
  C   C1415     1.0  0.59720  0.39075  0.64252  1.0000
  C   C1416     1.0  0.49770  0.54780  0.70123  1.0000
  C   C1417     1.0  0.58439  0.42524  0.63785  1.0000
  H   H2408     1.0  0.68275  0.49405  0.64096  1.0000
  H   H2409     1.0  0.67792  0.57301  0.88683  1.0000
  H   H2410     1.0  0.57155  0.63533  0.76496  1.0000
  H   H2411     1.0  0.70205  0.46917  0.60544  1.0000
  C   C1418     1.0  0.66860  0.65103  0.91664  1.0000
  H   H2412     1.0  0.72859  0.64920  0.90430  1.0000
  H   H2413     1.0  0.59556  0.39678  0.65744  1.0000
  C   C1419     1.0  0.55336  0.64699  0.80138  1.0000
  H   H2414     1.0  0.58752  0.43964  0.62934  1.0000
  C   C1420     1.0  0.66182  0.63522  0.87689  1.0000
  C   C1421     1.0  0.72067  0.59274  0.96344  1.0000
  H   H2415     1.0  0.60374  0.36528  0.63649  1.0000
  C   C1422     1.0  0.59546  0.40454  0.75189  1.0000
  H   H2416     1.0  0.66963  0.49998  0.61242  1.0000
  H   H2417     1.0  0.59938  0.59934  0.76766  1.0000
  H   H2418     1.0  0.57271  0.62628  0.83974  1.0000
  C   C1423     1.0  0.67159  0.56198  0.87831  1.0000
  C   C1424     1.0  0.70475  0.49725  0.65823  1.0000
  H   H2419     1.0  0.69058  0.63915  0.87128  1.0000
  H   H2420     1.0  0.55798  0.37180  0.67501  1.0000
  H   H2421     1.0  0.59228  0.62499  0.79940  1.0000
  S   S400      1.0  0.57195  0.34141  0.49260  1.0000
  C   C1425     1.0  0.70096  0.55220  0.89897  1.0000
  H   H2422     1.0  0.51207  0.55606  0.69810  1.0000
  H   H2423     1.0  0.67232  0.49539  0.58528  1.0000
  H   H2424     1.0  0.48862  0.57046  0.71110  1.0000
  H   H2425     1.0  0.70662  0.58473  0.96728  1.0000
  H   H2426     1.0  0.65713  0.65444  0.90949  1.0000
  Fe  Fe197     1.0  0.56173  0.33016  0.52883  1.0000
  H   H2427     1.0  0.71929  0.54789  0.86183  1.0000
  C   C1426     1.0  0.52224  0.33912  0.67058  1.0000
  S   S401      1.0  0.71758  0.59214  0.92015  1.0000
  C   C1427     1.0  0.67682  0.49295  0.60126  1.0000
  H   H2428     1.0  0.60002  0.38078  0.51032  1.0000
  H   H2429     1.0  0.73068  0.46985  0.61826  1.0000
  C   C1428     1.0  0.62712  0.64945  0.77936  1.0000
  C   C1429     1.0  0.72952  0.59802  0.94146  1.0000
  H   H2430     1.0  0.66544  0.56841  0.86538  1.0000
  H   H2431     1.0  0.51717  0.45476  0.69043  1.0000
  C   C1430     1.0  0.59909  0.65142  0.76642  1.0000
  H   H2432     1.0  0.70728  0.64144  0.82872  1.0000
  H   H2433     1.0  0.57809  0.37846  0.57839  1.0000
  H   H2434     1.0  0.65908  0.50071  0.88884  1.0000
  H   H2435     1.0  0.73228  0.40421  0.60448  1.0000
  H   H2436     1.0  0.71051  0.56540  0.89025  1.0000
  H   H2437     1.0  0.71436  0.52722  0.88100  1.0000
  H   H2438     1.0  0.68086  0.65270  0.82028  1.0000
  H   H2439     1.0  0.58198  0.59539  0.79110  1.0000
  H   H2440     1.0  0.71387  0.55133  0.92771  1.0000
  H   H2441     1.0  0.60647  0.36012  0.51311  1.0000
  H   H2442     1.0  0.62995  0.42860  0.48470  1.0000
  H   H2443     1.0  0.62344  0.33402  0.51470  1.0000
  H   H2444     1.0  0.65835  0.35793  0.50384  1.0000
  C   C1431     1.0  0.72626  0.50541  0.61171  1.0000
  C   C1432     1.0  0.53734  0.33505  0.63543  1.0000
  C   C1433     1.0  0.49274  0.42913  0.74725  1.0000
  H   H2445     1.0  0.51747  0.44511  0.75694  1.0000
  H   H2446     1.0  0.66209  0.62080  0.92650  1.0000
  H   H2447     1.0  0.64037  0.33609  0.53143  1.0000
  H   H2448     1.0  0.64977  0.63098  0.89020  1.0000
  H   H2449     1.0  0.66845  0.63353  0.94758  1.0000
  H   H2450     1.0  0.50216  0.58048  0.63201  1.0000
  C   C1434     1.0  0.66118  0.63307  0.93346  1.0000
  C   C1435     1.0  0.70314  0.52404  0.85241  1.0000
  H   H2451     1.0  0.49528  0.53956  0.71787  1.0000
  C   C1436     1.0  0.61616  0.33381  0.58979  1.0000
  S   S402      1.0  0.51614  0.33166  0.69922  1.0000
  C   C1437     1.0  0.70008  0.64920  0.91014  1.0000
  H   H2452     1.0  0.71632  0.63942  0.88487  1.0000
  C   C1438     1.0  0.58352  0.64501  0.75391  1.0000
  H   H2453     1.0  0.66420  0.40609  0.50065  1.0000
  H   H2454     1.0  0.61493  0.64221  0.81480  1.0000
  C   C1439     1.0  0.71788  0.65059  0.89452  1.0000
  H   H2455     1.0  0.67458  0.38796  0.49933  1.0000
  C   C1440     1.0  0.70757  0.65558  0.82874  1.0000
  H   H2456     1.0  0.54595  0.32844  0.62635  1.0000
  H   H2457     1.0  0.48678  0.54946  0.65737  1.0000
  C   C1441     1.0  0.62977  0.65082  0.73051  1.0000
  H   H2458     1.0  0.49683  0.44085  0.77713  1.0000
  H   H2459     1.0  0.66182  0.64805  0.86635  1.0000
  H   H2460     1.0  0.71951  0.50358  0.65661  1.0000
  H   H2461     1.0  0.62845  0.38443  0.48620  1.0000
  H   H2462     1.0  0.66033  0.62454  0.86648  1.0000
  H   H2463     1.0  0.51154  0.57198  0.66610  1.0000
  H   H2464     1.0  0.63736  0.64150  0.78074  1.0000
  H   H2465     1.0  0.49413  0.59887  0.64183  1.0000
  H   H2466     1.0  0.51756  0.59954  0.63837  1.0000
  C   C1442     1.0  0.73123  0.64631  0.96351  1.0000
  H   H2467     1.0  0.63362  0.64554  0.71541  1.0000
  H   H2468     1.0  0.49572  0.53813  0.68963  1.0000
  H   H2469     1.0  0.59237  0.65334  0.78244  1.0000
  C   C1443     1.0  0.57804  0.65544  0.83073  1.0000
  H   H2470     1.0  0.72786  0.52026  0.61149  1.0000
  C   C1444     1.0  0.72996  0.59777  0.98050  1.0000
  C   C1445     1.0  0.64421  0.43567  0.48257  1.0000
  C   C1446     1.0  0.48448  0.56002  0.70070  1.0000
  H   H2471     1.0  0.70723  0.65604  0.96708  1.0000
  H   H2472     1.0  0.52224  0.65994  0.09857  1.0000
  S   S403      1.0  0.49033  0.75478  0.39118  1.0000
  C   C1447     1.0  0.55099  0.78396  0.31971  1.0000
  H   H2473     1.0  0.56119  0.95854  0.27348  1.0000
  H   H2474     1.0  0.50942  0.79854  0.29792  1.0000
  H   H2475     1.0  0.53227  0.70749  0.04262  1.0000
  Fe  Fe198     1.0  0.49600  0.82165  0.36489  1.0000
  S   S404      1.0  0.52152  0.84144  0.34427  1.0000
  C   C1448     1.0  0.55511  0.78249  0.29534  1.0000
  H   H2476     1.0  0.65200  0.82902  0.00647  1.0000
  C   C1449     1.0  0.66536  0.95152  0.13845  1.0000
  Fe  Fe199     1.0  0.52943  0.90125  0.22590  1.0000
  S   S405      1.0  0.52133  0.88871  0.19711  1.0000
  S   S406      1.0  0.51188  0.89129  0.25962  1.0000
  Fe  Fe200     1.0  0.55862  0.93319  0.19679  1.0000
  S   S407      1.0  0.55224  0.92356  0.16593  1.0000
  S   S408      1.0  0.58308  0.95734  0.19177  1.0000
  Fe  Fe201     1.0  0.52289  0.91747  0.18188  1.0000
  S   S409      1.0  0.50198  0.92687  0.16455  1.0000
  Fe  Fe202     1.0  0.55150  0.89602  0.18382  1.0000
  S   S410      1.0  0.56926  0.87915  0.17010  1.0000
  S   S411      1.0  0.52952  0.92973  0.21114  1.0000
  S   S412      1.0  0.55932  0.90596  0.21417  1.0000
  Fe  Fe203     1.0  0.64095  0.90183  0.06113  1.0000
  S   S413      1.0  0.66016  0.89781  0.08384  1.0000
  S   S414      1.0  0.61180  0.90200  0.07212  1.0000
  Fe  Fe204     1.0  0.67010  0.90811  0.02062  1.0000
  S   S415      1.0  0.69139  0.90467  0.04079  1.0000
  H   H2477     1.0  0.49256  0.73258  0.47622  1.0000
  Fe  Fe205     1.0  0.66911  0.88038  0.06032  1.0000
  S   S416      1.0  0.67339  0.85203  0.07077  1.0000
  Fe  Fe206     1.0  0.68032  0.92252  0.06182  1.0000
  S   S417      1.0  0.64863  0.88318  0.03890  1.0000
  S   S418      1.0  0.66027  0.92707  0.04033  1.0000
  Fe  Fe207     1.0  0.62502  0.70982  0.03373  1.0000
  S   S419      1.0  0.65165  0.73079  0.03001  1.0000
  Fe  Fe208     1.0  0.61999  0.70178  0.08355  1.0000
  S   S420      1.0  0.64645  0.72277  0.08374  1.0000
  S   S421      1.0  0.59989  0.68651  0.11494  1.0000
  Fe  Fe209     1.0  0.63869  0.74174  0.05790  1.0000
  S   S422      1.0  0.63700  0.77177  0.05256  1.0000
  Fe  Fe210     1.0  0.65767  0.71051  0.05581  1.0000
  S   S423      1.0  0.68607  0.70605  0.04977  1.0000
  S   S424      1.0  0.61150  0.72155  0.06004  1.0000
  S   S425      1.0  0.63177  0.68863  0.05723  1.0000
  C   C1450     1.0  0.68535  0.82577  0.00667  1.0000
  H   H2478     1.0  0.51955  0.78217  0.45407  1.0000
  H   H2479     1.0  0.64376  0.84815  0.13564  1.0000
  C   C1451     1.0  0.58641  0.95700  0.28219  1.0000
  H   H2480     1.0  0.53084  0.74837  0.32520  1.0000
  C   C1452     1.0  0.67564  0.86245  0.99909  1.0000
  H   H2481     1.0  0.55402  0.77225  0.32966  1.0000
  H   H2482     1.0  0.49618  0.96688  0.21985  1.0000
  C   C1453     1.0  0.69216  0.68594  0.05943  1.0000
  C   C1454     1.0  0.67924  0.67014  0.07098  1.0000
  H   H2483     1.0  0.72174  0.94047  0.00823  1.0000
  H   H2484     1.0  0.63100  0.93839  0.15548  1.0000
  H   H2485     1.0  0.54227  0.81415  0.35419  1.0000
  C   C1455     1.0  0.66341  0.82992  0.06497  1.0000
  C   C1456     1.0  0.66958  0.81497  0.07324  1.0000
  C   C1457     1.0  0.66186  0.79716  0.06953  1.0000
  C   C1458     1.0  0.64766  0.79395  0.05762  1.0000
  C   C1459     1.0  0.64146  0.80891  0.04938  1.0000
  C   C1460     1.0  0.64935  0.82675  0.05282  1.0000
  H   H2486     1.0  0.68044  0.81715  0.08265  1.0000
  H   H2487     1.0  0.66682  0.78589  0.07604  1.0000
  H   H2488     1.0  0.63043  0.80663  0.04025  1.0000
  H   H2489     1.0  0.64436  0.83797  0.04635  1.0000
  C   C1461     1.0  0.55738  0.69581  0.09409  1.0000
  H   H2490     1.0  0.69720  0.97892  0.01396  1.0000
  C   C1462     1.0  0.53872  0.68315  0.05771  1.0000
  C   C1463     1.0  0.58174  0.88728  0.14328  1.0000
  C   C1464     1.0  0.59955  0.88572  0.13832  1.0000
  C   C1465     1.0  0.60926  0.89090  0.11668  1.0000
  C   C1466     1.0  0.60096  0.89714  0.09980  1.0000
  C   C1467     1.0  0.58330  0.89903  0.10485  1.0000
  C   C1468     1.0  0.57377  0.89428  0.12653  1.0000
  H   H2491     1.0  0.60580  0.88039  0.15126  1.0000
  H   H2492     1.0  0.62293  0.88958  0.11297  1.0000
  H   H2493     1.0  0.57681  0.90391  0.09189  1.0000
  H   H2494     1.0  0.56002  0.89546  0.13017  1.0000
  C   C1469     1.0  0.54849  0.97123  0.16405  1.0000
  H   H2495     1.0  0.58546  0.92018  0.24158  1.0000
  C   C1470     1.0  0.57008  0.97368  0.22490  1.0000
  C   C1471     1.0  0.58449  0.97403  0.20844  1.0000
  H   H2496     1.0  0.63970  0.85686  0.99681  1.0000
  H   H2497     1.0  0.68031  0.95407  0.13356  1.0000
  C   C1472     1.0  0.57162  0.98791  0.23710  1.0000
  H   H2498     1.0  0.55765  0.96280  0.22776  1.0000
  H   H2499     1.0  0.53172  0.95040  0.27285  1.0000
  H   H2500     1.0  0.62740  0.92093  0.13937  1.0000
  C   C1473     1.0  0.62590  0.93488  0.14043  1.0000
  H   H2501     1.0  0.53782  0.95999  0.16035  1.0000
  C   C1474     1.0  0.53062  0.78497  0.35273  1.0000
  H   H2502     1.0  0.49158  0.97728  0.18145  1.0000
  S   S426      1.0  0.60942  0.70393  0.00628  1.0000
  H   H2503     1.0  0.65741  0.98147  0.09431  1.0000
  H   H2504     1.0  0.62999  0.84410  0.08256  1.0000
  C   C1475     1.0  0.58115  0.91947  0.25940  1.0000
  H   H2505     1.0  0.54243  0.69114  0.09825  1.0000
  H   H2506     1.0  0.50946  0.84485  0.46633  1.0000
  H   H2507     1.0  0.66510  0.67013  0.07454  1.0000
  H   H2508     1.0  0.53224  0.80134  0.28343  1.0000
  H   H2509     1.0  0.65961  0.98935  0.11996  1.0000
  H   H2510     1.0  0.50957  0.75319  0.47413  1.0000
  H   H2511     1.0  0.51645  0.74798  0.35087  1.0000
  C   C1476     1.0  0.49816  0.74657  0.46632  1.0000
  H   H2512     1.0  0.51643  0.77130  0.30682  1.0000
  H   H2513     1.0  0.56058  0.79624  0.28494  1.0000
  C   C1477     1.0  0.51815  0.75110  0.33278  1.0000
  N   N102      1.0  0.55399  0.67553  0.06379  1.0000
  C   C1478     1.0  0.51872  0.85414  0.31988  1.0000
  C   C1479     1.0  0.50170  0.85651  0.31730  1.0000
  C   C1480     1.0  0.49985  0.86761  0.29845  1.0000
  C   C1481     1.0  0.51484  0.87600  0.28170  1.0000
  C   C1482     1.0  0.53182  0.87319  0.28390  1.0000
  C   C1483     1.0  0.53379  0.86246  0.30310  1.0000
  H   H2514     1.0  0.49124  0.88214  0.47881  1.0000
  H   H2515     1.0  0.59924  0.92391  0.16116  1.0000
  H   H2516     1.0  0.54345  0.87960  0.27108  1.0000
  H   H2517     1.0  0.54699  0.86063  0.30499  1.0000
  C   C1484     1.0  0.71051  0.68575  0.05503  1.0000
  H   H2518     1.0  0.72211  0.68955  0.00276  1.0000
  H   H2519     1.0  0.59273  0.92801  0.26511  1.0000
  S   S427      1.0  0.69192  0.94882  0.07501  1.0000
  H   H2520     1.0  0.48481  0.71597  0.40216  1.0000
  H   H2521     1.0  0.59800  0.92750  0.13294  1.0000
  C   C1485     1.0  0.58484  0.66405  0.12134  1.0000
  C   C1486     1.0  0.63862  0.84522  0.98794  1.0000
  H   H2522     1.0  0.70001  0.66032  0.02653  1.0000
  H   H2523     1.0  0.61112  0.79475  0.09961  1.0000
  C   C1487     1.0  0.69526  0.87195  0.00159  1.0000
  C   C1488     1.0  0.72872  0.96983  0.99657  1.0000
  H   H2524     1.0  0.56180  0.96979  0.15637  1.0000
  N   N103      1.0  0.60623  0.83715  0.10863  1.0000
  C   C1489     1.0  0.58890  0.84309  0.11224  1.0000
  C   C1490     1.0  0.61650  0.84672  0.08612  1.0000
  H   H2525     1.0  0.56144  0.71095  0.08983  1.0000
  C   C1491     1.0  0.60092  0.81666  0.11073  1.0000
  C   C1492     1.0  0.57787  0.83799  0.13581  1.0000
  C   C1493     1.0  0.60690  0.84189  0.06685  1.0000
  H   H2526     1.0  0.52504  0.82058  0.29019  1.0000
  C   C1494     1.0  0.54373  0.80048  0.36055  1.0000
  H   H2527     1.0  0.59177  0.85815  0.10741  1.0000
  H   H2528     1.0  0.57936  0.83725  0.10164  1.0000
  H   H2529     1.0  0.69723  0.81998  0.00623  1.0000
  H   H2530     1.0  0.61957  0.86183  0.08510  1.0000
  H   H2531     1.0  0.54037  0.79855  0.37869  1.0000
  C   C1495     1.0  0.49312  0.95719  0.20841  1.0000
  H   H2532     1.0  0.59378  0.81013  0.12764  1.0000
  H   H2533     1.0  0.59059  0.81194  0.10050  1.0000
  H   H2534     1.0  0.56557  0.84313  0.13605  1.0000
  H   H2535     1.0  0.57310  0.82304  0.14157  1.0000
  H   H2536     1.0  0.58548  0.84459  0.14766  1.0000
  H   H2537     1.0  0.59417  0.84620  0.06729  1.0000
  H   H2538     1.0  0.61593  0.84943  0.05128  1.0000
  H   H2539     1.0  0.60426  0.82716  0.06605  1.0000
  N   N104      1.0  0.67345  0.84919  0.98332  1.0000
  H   H2540     1.0  0.64473  0.85755  0.10782  1.0000
  H   H2541     1.0  0.59248  0.95648  0.26528  1.0000
  C   C1496     1.0  0.64986  0.98380  0.10947  1.0000
  H   H2542     1.0  0.49639  0.73574  0.43546  1.0000
  H   H2543     1.0  0.66084  0.93962  0.15205  1.0000
  C   C1497     1.0  0.61635  0.80746  0.10602  1.0000
  H   H2544     1.0  0.49261  0.77306  0.43415  1.0000
  C   C1498     1.0  0.56634  0.68764  0.07563  1.0000
  H   H2545     1.0  0.53042  0.67410  0.04824  1.0000
  H   H2546     1.0  0.66285  0.96376  0.14440  1.0000
  H   H2547     1.0  0.62768  0.81573  0.09317  1.0000
  H   H2548     1.0  0.51135  0.80071  0.44320  1.0000
  H   H2549     1.0  0.55278  0.91440  0.25956  1.0000
  C   C1499     1.0  0.49641  0.83483  0.47156  1.0000
  H   H2550     1.0  0.61487  0.94179  0.10192  1.0000
  H   H2551     1.0  0.50670  0.74123  0.32824  1.0000
  N   N105      1.0  0.55785  0.92994  0.28564  1.0000
  C   C1500     1.0  0.53737  0.92585  0.29025  1.0000
  C   C1501     1.0  0.56326  0.91768  0.30301  1.0000
  C   C1502     1.0  0.61720  0.84303  0.12589  1.0000
  C   C1503     1.0  0.56558  0.94988  0.28619  1.0000
  H   H2552     1.0  0.67306  0.81397  0.01079  1.0000
  C   C1504     1.0  0.55700  0.91917  0.32700  1.0000
  H   H2553     1.0  0.72171  0.97010  0.01311  1.0000
  H   H2554     1.0  0.55129  0.70297  0.02713  1.0000
  H   H2555     1.0  0.53105  0.91089  0.29212  1.0000
  H   H2556     1.0  0.53253  0.92978  0.30596  1.0000
  H   H2557     1.0  0.57823  0.92009  0.30083  1.0000
  H   H2558     1.0  0.55779  0.90311  0.30155  1.0000
  C   C1505     1.0  0.63792  0.84548  0.12079  1.0000
  H   H2559     1.0  0.56498  0.93757  0.25017  1.0000
  H   H2560     1.0  0.55809  0.80024  0.35638  1.0000
  H   H2561     1.0  0.56020  0.95328  0.30202  1.0000
  N   N106      1.0  0.48379  0.75683  0.46684  1.0000
  H   H2562     1.0  0.61582  0.85648  0.12937  1.0000
  H   H2563     1.0  0.55357  0.71251  0.05181  1.0000
  H   H2564     1.0  0.56294  0.91039  0.33781  1.0000
  H   H2565     1.0  0.56177  0.93324  0.33018  1.0000
  H   H2566     1.0  0.54204  0.91394  0.33211  1.0000
  H   H2567     1.0  0.60258  0.94665  0.14729  1.0000
  H   H2568     1.0  0.61188  0.83332  0.14171  1.0000
  H   H2569     1.0  0.57544  0.68025  0.08282  1.0000
  H   H2570     1.0  0.66843  0.85545  0.01585  1.0000
  N   N107      1.0  0.53245  0.78591  0.32824  1.0000
  C   C1506     1.0  0.51728  0.77067  0.32439  1.0000
  H   H2571     1.0  0.63406  0.96881  0.14019  1.0000
  C   C1507     1.0  0.54456  0.70263  0.04406  1.0000
  H   H2572     1.0  0.57873  0.90504  0.26740  1.0000
  C   C1508     1.0  0.56352  0.92567  0.26326  1.0000
  C   C1509     1.0  0.70821  0.98520  0.07483  1.0000
  H   H2573     1.0  0.59014  0.97164  0.28379  1.0000
  H   H2574     1.0  0.59256  0.94973  0.29431  1.0000
  H   H2575     1.0  0.53287  0.93301  0.25630  1.0000
  C   C1510     1.0  0.71071  0.96895  0.06847  1.0000
  H   H2576     1.0  0.56545  0.77475  0.29307  1.0000
  H   H2577     1.0  0.64163  0.83336  0.11609  1.0000
  H   H2578     1.0  0.64225  0.89377  0.99131  1.0000
  H   H2579     1.0  0.50389  0.77204  0.33211  1.0000
  H   H2580     1.0  0.51658  0.78494  0.35997  1.0000
  H   H2581     1.0  0.62172  0.80390  0.12111  1.0000
  H   H2582     1.0  0.56260  0.69239  0.10937  1.0000
  S   S428      1.0  0.49729  0.80469  0.39672  1.0000
  H   H2583     1.0  0.53274  0.77205  0.36090  1.0000
  C   C1511     1.0  0.53044  0.80428  0.31840  1.0000
  H   H2584     1.0  0.54231  0.66074  0.11121  1.0000
  C   C1512     1.0  0.52874  0.93551  0.27296  1.0000
  H   H2585     1.0  0.53092  0.98906  0.15950  1.0000
  C   C1513     1.0  0.71590  0.66997  0.06208  1.0000
  H   H2586     1.0  0.50630  0.95597  0.19998  1.0000
  H   H2587     1.0  0.56176  0.79593  0.32177  1.0000
  C   C1514     1.0  0.57235  0.65879  0.14121  1.0000
  H   H2588     1.0  0.52888  0.68336  0.07220  1.0000
  H   H2589     1.0  0.69796  0.86662  0.01786  1.0000
  H   H2590     1.0  0.62565  0.83490  0.99564  1.0000
  N   N108      1.0  0.63680  0.94842  0.12038  1.0000
  H   H2591     1.0  0.61158  0.98869  0.19181  1.0000
  C   C1515     1.0  0.65624  0.94745  0.11859  1.0000
  C   C1516     1.0  0.62947  0.94220  0.10077  1.0000
  C   C1517     1.0  0.63468  0.96713  0.12272  1.0000
  H   H2592     1.0  0.65347  0.95489  0.07448  1.0000
  H   H2593     1.0  0.52037  0.80848  0.32957  1.0000
  C   C1518     1.0  0.63872  0.95372  0.07817  1.0000
  H   H2594     1.0  0.68581  0.96041  0.00152  1.0000
  H   H2595     1.0  0.64140  0.74807  0.98267  1.0000
  C   C1519     1.0  0.70193  0.66246  0.00836  1.0000
  H   H2596     1.0  0.66514  0.95692  0.10420  1.0000
  H   H2597     1.0  0.65729  0.93369  0.11574  1.0000
  H   H2598     1.0  0.63029  0.92801  0.10007  1.0000
  H   H2599     1.0  0.63261  0.94680  0.06545  1.0000
  H   H2600     1.0  0.64584  0.69982  0.99438  1.0000
  H   H2601     1.0  0.69905  0.68975  0.00942  1.0000
  H   H2602     1.0  0.54335  0.77472  0.28922  1.0000
  H   H2603     1.0  0.68075  0.98169  0.99753  1.0000
  H   H2604     1.0  0.54339  0.81517  0.31659  1.0000
  C   C1520     1.0  0.60037  0.98839  0.20445  1.0000
  H   H2605     1.0  0.68563  0.83383  0.02005  1.0000
  H   H2606     1.0  0.57569  0.69938  0.06375  1.0000
  H   H2607     1.0  0.52860  0.98540  0.19771  1.0000
  C   C1521     1.0  0.52399  0.80597  0.29616  1.0000
  H   H2608     1.0  0.58876  0.66622  0.02814  1.0000
  C   C1522     1.0  0.49039  0.77494  0.45151  1.0000
  H   H2609     1.0  0.62148  0.96855  0.11842  1.0000
  H   H2610     1.0  0.59056  0.67211  0.05436  1.0000
  C   C1523     1.0  0.60534  0.93339  0.14537  1.0000
  H   H2611     1.0  0.51372  0.92992  0.27712  1.0000
  C   C1524     1.0  0.70827  0.68326  0.00010  1.0000
  C   C1525     1.0  0.56510  0.67393  0.04263  1.0000
  H   H2612     1.0  0.72062  0.69796  0.04627  1.0000
  C   C1526     1.0  0.58087  0.66505  0.04475  1.0000
  H   H2613     1.0  0.48671  0.86980  0.29691  1.0000
  H   H2614     1.0  0.49268  0.83157  0.43862  1.0000
  H   H2615     1.0  0.63611  0.96736  0.07624  1.0000
  C   C1527     1.0  0.62097  0.69941  0.98226  1.0000
  H   H2616     1.0  0.57157  0.68762  0.03233  1.0000
  C   C1528     1.0  0.72823  0.96888  0.05895  1.0000
  H   H2617     1.0  0.54759  0.96911  0.18205  1.0000
  C   C1529     1.0  0.48695  0.82733  0.45587  1.0000
  H   H2618     1.0  0.57244  0.66828  0.15249  1.0000
  C   C1530     1.0  0.50776  0.78802  0.45565  1.0000
  H   H2619     1.0  0.49002  0.85020  0.33011  1.0000
  H   H2620     1.0  0.55627  0.66607  0.03261  1.0000
  H   H2621     1.0  0.66894  0.87338  0.99462  1.0000
  C   C1531     1.0  0.50657  0.74406  0.44350  1.0000
  S   S429      1.0  0.67983  0.91589  0.98410  1.0000
  H   H2622     1.0  0.48571  0.94339  0.21765  1.0000
  C   C1532     1.0  0.65448  0.83641  0.98937  1.0000
  H   H2623     1.0  0.69483  0.98549  0.08238  1.0000
  H   H2624     1.0  0.73009  0.67014  0.05902  1.0000
  C   C1533     1.0  0.72249  0.94998  0.99286  1.0000
  H   H2625     1.0  0.69658  0.88670  0.00132  1.0000
  C   C1534     1.0  0.69212  0.97536  0.99904  1.0000
  H   H2626     1.0  0.51699  0.73650  0.44546  1.0000
  H   H2627     1.0  0.73053  0.95648  0.05430  1.0000
  H   H2628     1.0  0.51359  0.75723  0.43250  1.0000
  H   H2629     1.0  0.68800  0.65800  0.00446  1.0000
  H   H2630     1.0  0.56040  0.98795  0.24948  1.0000
  H   H2631     1.0  0.50562  0.79219  0.47187  1.0000
  H   H2632     1.0  0.70621  0.87125  0.98871  1.0000
  C   C1535     1.0  0.68647  0.83741  0.98410  1.0000
  H   H2633     1.0  0.48474  0.90050  0.20406  1.0000
  C   C1536     1.0  0.54615  0.65654  0.07699  1.0000
  C   C1537     1.0  0.54553  0.98969  0.15459  1.0000
  H   H2634     1.0  0.70727  0.68682  0.98263  1.0000
  H   H2635     1.0  0.70886  0.94676  0.98828  1.0000
  H   H2636     1.0  0.65086  0.94373  0.83602  1.0000
  H   H2637     1.0  0.63448  0.66266  0.76849  1.0000
  C   C1538     1.0  0.66592  0.90621  0.96638  1.0000
  C   C1539     1.0  0.66514  0.97939  0.77356  1.0000
  H   H2638     1.0  0.67238  0.66190  0.92650  1.0000
  H   H2639     1.0  0.62120  0.66001  0.72638  1.0000
  S   S430      1.0  0.50377  0.77716  0.59037  1.0000
  H   H2640     1.0  0.64624  0.73291  0.95111  1.0000
  S   S431      1.0  0.50942  0.82967  0.57226  1.0000
  H   H2641     1.0  0.70905  0.70672  0.82696  1.0000
  H   H2642     1.0  0.62383  0.87907  0.96577  1.0000
  Fe  Fe211     1.0  0.64740  0.88076  0.88555  1.0000
  S   S432      1.0  0.63237  0.87774  0.92000  1.0000
  Fe  Fe212     1.0  0.64498  0.88534  0.83703  1.0000
  S   S433      1.0  0.67408  0.88475  0.82847  1.0000
  S   S434      1.0  0.63286  0.88975  0.80616  1.0000
  Fe  Fe213     1.0  0.66718  0.86092  0.85649  1.0000
  H   H2643     1.0  0.61391  0.66435  0.80152  1.0000
  S   S435      1.0  0.63781  0.86061  0.86374  1.0000
  S   S436      1.0  0.65148  0.90544  0.85960  1.0000
  Fe  Fe214     1.0  0.52851  0.87688  0.72310  1.0000
  S   S437      1.0  0.51427  0.86959  0.75826  1.0000
  S   S438      1.0  0.52806  0.85564  0.70124  1.0000
  Fe  Fe215     1.0  0.54235  0.91687  0.72546  1.0000
  S   S439      1.0  0.52892  0.91310  0.76036  1.0000
  S   S440      1.0  0.55604  0.94504  0.70636  1.0000
  Fe  Fe216     1.0  0.53959  0.88837  0.76525  1.0000
  S   S441      1.0  0.55031  0.88295  0.79686  1.0000
  Fe  Fe217     1.0  0.50510  0.89490  0.75043  1.0000
  C   C1540     1.0  0.54949  0.89591  0.62318  1.0000
  S   S442      1.0  0.55474  0.89343  0.73070  1.0000
  S   S443      1.0  0.51754  0.90090  0.71503  1.0000
  H   H2644     1.0  0.48366  0.71439  0.57829  1.0000
  Fe  Fe218     1.0  0.65570  0.69790  0.83794  1.0000
  S   S444      1.0  0.63848  0.67518  0.86399  1.0000
  S   S445      1.0  0.67540  0.68887  0.81444  1.0000
  Fe  Fe219     1.0  0.63506  0.72509  0.85275  1.0000
  S   S446      1.0  0.61591  0.70313  0.87943  1.0000
  S   S447      1.0  0.62955  0.75343  0.85118  1.0000
  Fe  Fe220     1.0  0.64126  0.69573  0.88623  1.0000
  S   S448      1.0  0.65106  0.69005  0.91835  1.0000
  Fe  Fe221     1.0  0.61475  0.68449  0.85422  1.0000
  H   H2645     1.0  0.69931  0.96556  0.85567  1.0000
  S   S449      1.0  0.66045  0.71817  0.86072  1.0000
  S   S450      1.0  0.63198  0.70679  0.82710  1.0000
  N   N109      1.0  0.64349  0.94714  0.79047  1.0000
  H   H2646     1.0  0.50952  0.67438  0.63657  1.0000
  H   H2647     1.0  0.52423  0.91108  0.66466  1.0000
  H   H2648     1.0  0.63239  0.76399  0.96733  1.0000
  H   H2649     1.0  0.50914  0.96005  0.71305  1.0000
  Fe  Fe222     1.0  0.49201  0.80109  0.58559  1.0000
  H   H2650     1.0  0.58004  0.68351  0.81827  1.0000
  H   H2651     1.0  0.52376  0.70653  0.59814  1.0000
  H   H2652     1.0  0.52606  0.68387  0.60062  1.0000
  C   C1541     1.0  0.60299  0.98091  0.71031  1.0000
  C   C1542     1.0  0.62621  0.93904  0.80717  1.0000
  H   H2653     1.0  0.53247  0.98132  0.73329  1.0000
  C   C1543     1.0  0.69292  0.68039  0.82371  1.0000
  C   C1544     1.0  0.70841  0.69240  0.82786  1.0000
  C   C1545     1.0  0.72316  0.66772  0.83256  1.0000
  C   C1546     1.0  0.69402  0.87271  0.95019  1.0000
  H   H2654     1.0  0.64003  0.79747  0.91601  1.0000
  C   C1547     1.0  0.53026  0.97184  0.80142  1.0000
  C   C1548     1.0  0.61208  0.69731  0.96431  1.0000
  C   C1549     1.0  0.62114  0.69436  0.94464  1.0000
  C   C1550     1.0  0.63910  0.69328  0.94291  1.0000
  C   C1551     1.0  0.64788  0.69504  0.96101  1.0000
  H   H2655     1.0  0.70508  0.98408  0.78873  1.0000
  S   S451      1.0  0.49325  0.86103  0.61520  1.0000
  H   H2656     1.0  0.61420  0.69283  0.93085  1.0000
  H   H2657     1.0  0.66177  0.69421  0.95978  1.0000
  H   H2658     1.0  0.66037  0.95734  0.74359  1.0000
  C   C1552     1.0  0.73229  0.94359  0.85837  1.0000
  H   H2659     1.0  0.50354  0.71932  0.61356  1.0000
  H   H2660     1.0  0.72306  0.66389  0.88320  1.0000
  C   C1553     1.0  0.60606  0.95067  0.72227  1.0000
  C   C1554     1.0  0.58859  0.94296  0.71827  1.0000
  C   C1555     1.0  0.57835  0.95424  0.71019  1.0000
  C   C1556     1.0  0.56155  0.66522  0.80287  1.0000
  H   H2661     1.0  0.62698  0.85956  0.78253  1.0000
  H   H2662     1.0  0.61392  0.94191  0.72861  1.0000
  H   H2663     1.0  0.58303  0.92832  0.72164  1.0000
  H   H2664     1.0  0.49544  0.74240  0.63269  1.0000
  C   C1557     1.0  0.66283  0.81172  0.85484  1.0000
  C   C1558     1.0  0.67178  0.79845  0.84981  1.0000
  C   C1559     1.0  0.66192  0.78040  0.84934  1.0000
  C   C1560     1.0  0.64290  0.77537  0.85373  1.0000
  C   C1561     1.0  0.63398  0.78845  0.85951  1.0000
  C   C1562     1.0  0.64383  0.80644  0.86021  1.0000
  H   H2665     1.0  0.50163  0.94247  0.73725  1.0000
  H   H2666     1.0  0.66905  0.77056  0.84487  1.0000
  H   H2667     1.0  0.61930  0.78461  0.86343  1.0000
  H   H2668     1.0  0.63673  0.81631  0.86458  1.0000
  C   C1563     1.0  0.60983  0.88781  0.80405  1.0000
  C   C1564     1.0  0.60522  0.89046  0.78312  1.0000
  C   C1565     1.0  0.58710  0.88918  0.78061  1.0000
  C   C1566     1.0  0.57338  0.88510  0.79907  1.0000
  C   C1567     1.0  0.57803  0.88249  0.81999  1.0000
  C   C1568     1.0  0.59618  0.88391  0.82249  1.0000
  H   H2669     1.0  0.61570  0.89347  0.76874  1.0000
  H   H2670     1.0  0.58370  0.89119  0.76444  1.0000
  H   H2671     1.0  0.56750  0.87933  0.83436  1.0000
  H   H2672     1.0  0.59956  0.88192  0.83869  1.0000
  C   C1569     1.0  0.51672  0.69212  0.60561  1.0000
  C   C1570     1.0  0.49393  0.67430  0.67675  1.0000
  C   C1571     1.0  0.63763  0.88733  0.95970  1.0000
  C   C1572     1.0  0.64509  0.88948  0.93746  1.0000
  C   C1573     1.0  0.66282  0.90042  0.92964  1.0000
  C   C1574     1.0  0.67317  0.90879  0.94405  1.0000
  H   H2673     1.0  0.57794  0.98196  0.69925  1.0000
  H   H2674     1.0  0.58495  0.97136  0.75639  1.0000
  H   H2675     1.0  0.66860  0.90244  0.91248  1.0000
  H   H2676     1.0  0.68694  0.91711  0.93788  1.0000
  H   H2677     1.0  0.52266  0.97091  0.76084  1.0000
  C   C1575     1.0  0.48727  0.75686  0.59044  1.0000
  C   C1576     1.0  0.58575  0.97319  0.70573  1.0000
  H   H2678     1.0  0.67080  0.98826  0.78491  1.0000
  H   H2679     1.0  0.48843  0.93657  0.69390  1.0000
  C   C1577     1.0  0.69795  0.68684  0.89361  1.0000
  H   H2680     1.0  0.50662  0.74379  0.57631  1.0000
  C   C1578     1.0  0.57405  0.66945  0.81715  1.0000
  H   H2681     1.0  0.68647  0.80228  0.84578  1.0000
  H   H2682     1.0  0.58799  0.95561  0.63635  1.0000
  C   C1579     1.0  0.50239  0.85878  0.63941  1.0000
  C   C1580     1.0  0.50126  0.87125  0.65357  1.0000
  C   C1581     1.0  0.50863  0.87009  0.67283  1.0000
  C   C1582     1.0  0.51765  0.85676  0.67783  1.0000
  C   C1583     1.0  0.51876  0.84424  0.66368  1.0000
  C   C1584     1.0  0.51103  0.84515  0.64459  1.0000
  H   H2683     1.0  0.66426  0.98875  0.75884  1.0000
  H   H2684     1.0  0.50729  0.87951  0.68376  1.0000
  H   H2685     1.0  0.52566  0.83382  0.66744  1.0000
  H   H2686     1.0  0.51201  0.83549  0.63374  1.0000
  C   C1585     1.0  0.48982  0.97808  0.69208  1.0000
  C   C1586     1.0  0.61799  0.83606  0.82129  1.0000
  C   C1587     1.0  0.59798  0.83668  0.82482  1.0000
  H   H2687     1.0  0.62618  0.85045  0.81669  1.0000
  H   H2688     1.0  0.62115  0.83129  0.83755  1.0000
  H   H2689     1.0  0.59431  0.84287  0.80960  1.0000
  H   H2690     1.0  0.58841  0.82309  0.83153  1.0000
  H   H2691     1.0  0.59609  0.84554  0.83706  1.0000
  H   H2692     1.0  0.61707  0.85327  0.76030  1.0000
  C   C1588     1.0  0.58337  0.94283  0.64872  1.0000
  H   H2693     1.0  0.53176  0.98583  0.79290  1.0000
  H   H2694     1.0  0.50621  0.66934  0.67329  1.0000
  Fe  Fe223     1.0  0.48977  0.82969  0.54886  1.0000
  H   H2695     1.0  0.67468  0.94934  0.82643  1.0000
  H   H2696     1.0  0.59514  0.94175  0.65668  1.0000
  S   S452      1.0  0.49981  0.84126  0.51288  1.0000
  C   C1589     1.0  0.64578  0.96736  0.78404  1.0000
  C   C1590     1.0  0.61317  0.96966  0.71860  1.0000
  H   H2697     1.0  0.52565  0.69537  0.63632  1.0000
  N   N110      1.0  0.63991  0.75168  0.92617  1.0000
  C   C1591     1.0  0.64788  0.74129  0.91035  1.0000
  C   C1592     1.0  0.61950  0.74491  0.92905  1.0000
  C   C1593     1.0  0.64601  0.74747  0.94777  1.0000
  C   C1594     1.0  0.64701  0.77172  0.91648  1.0000
  C   C1595     1.0  0.66859  0.74370  0.90802  1.0000
  C   C1596     1.0  0.61130  0.74767  0.90820  1.0000
  H   H2698     1.0  0.56275  0.98174  0.73805  1.0000
  C   C1597     1.0  0.63909  0.78516  0.92822  1.0000
  H   H2699     1.0  0.64119  0.72640  0.91504  1.0000
  H   H2700     1.0  0.64530  0.74524  0.89353  1.0000
  H   H2701     1.0  0.61248  0.75124  0.94118  1.0000
  H   H2702     1.0  0.61497  0.73005  0.93595  1.0000
  H   H2703     1.0  0.68424  0.82785  0.97225  1.0000
  H   H2704     1.0  0.73234  0.94707  0.98010  1.0000
  H   H2705     1.0  0.66194  0.77637  0.91580  1.0000
  H   H2706     1.0  0.64570  0.77444  0.89896  1.0000
  H   H2707     1.0  0.67652  0.75800  0.90142  1.0000
  H   H2708     1.0  0.67256  0.73870  0.92358  1.0000
  H   H2709     1.0  0.67267  0.73529  0.89623  1.0000
  H   H2710     1.0  0.59624  0.74359  0.91269  1.0000
  H   H2711     1.0  0.61546  0.76210  0.89985  1.0000
  H   H2712     1.0  0.61480  0.73879  0.89673  1.0000
  H   H2713     1.0  0.60858  0.95280  0.79016  1.0000
  H   H2714     1.0  0.70080  0.84541  0.97866  1.0000
  C   C1598     1.0  0.71945  0.65704  0.97499  1.0000
  H   H2715     1.0  0.50121  0.97474  0.68210  1.0000
  H   H2716     1.0  0.62450  0.77993  0.93531  1.0000
  C   C1599     1.0  0.63441  0.75019  0.96853  1.0000
  Fe  Fe224     1.0  0.68036  0.90375  0.85258  1.0000
  H   H2717     1.0  0.64146  0.97320  0.79857  1.0000
  N   N111      1.0  0.49760  0.69679  0.64074  1.0000
  C   C1600     1.0  0.49718  0.69416  0.66514  1.0000
  H   H2718     1.0  0.59765  0.80295  0.81372  1.0000
  C   C1601     1.0  0.62618  0.84958  0.77138  1.0000
  H   H2719     1.0  0.61304  0.80147  0.83196  1.0000
  H   H2720     1.0  0.60306  0.82624  0.78403  1.0000
  S   S453      1.0  0.67598  0.83463  0.85369  1.0000
  H   H2721     1.0  0.57923  0.65704  0.74689  1.0000
  S   S454      1.0  0.67653  0.87983  0.87989  1.0000
  H   H2722     1.0  0.55466  0.90844  0.61057  1.0000
  N   N112      1.0  0.62306  0.82449  0.80512  1.0000
  C   C1602     1.0  0.61235  0.80496  0.81434  1.0000
  H   H2723     1.0  0.65485  0.85540  0.79124  1.0000
  C   C1603     1.0  0.68924  0.66996  0.88412  1.0000
  H   H2724     1.0  0.66552  0.86718  0.95901  1.0000
  C   C1604     1.0  0.61807  0.82965  0.78315  1.0000
  H   H2725     1.0  0.63986  0.85149  0.76156  1.0000
  C   C1605     1.0  0.57693  0.88467  0.67894  1.0000
  Fe  Fe225     1.0  0.48936  0.83813  0.59554  1.0000
  H   H2726     1.0  0.64561  0.81596  0.81631  1.0000
  H   H2727     1.0  0.66021  0.75564  0.94720  1.0000
  H   H2728     1.0  0.57237  0.94449  0.66096  1.0000
  H   H2729     1.0  0.48671  0.69954  0.67378  1.0000
  C   C1606     1.0  0.55191  0.97339  0.75180  1.0000
  C   C1607     1.0  0.64309  0.82549  0.80277  1.0000
  H   H2730     1.0  0.67508  0.97209  0.76809  1.0000
  C   C1608     1.0  0.65632  0.84408  0.80316  1.0000
  H   H2731     1.0  0.56048  0.93536  0.78565  1.0000
  H   H2732     1.0  0.62103  0.73981  0.97270  1.0000
  C   C1609     1.0  0.61815  0.79008  0.80307  1.0000
  H   H2733     1.0  0.62243  0.82122  0.77150  1.0000
  H   H2734     1.0  0.61731  0.79190  0.78544  1.0000
  H   H2735     1.0  0.67051  0.84313  0.79921  1.0000
  H   H2736     1.0  0.58164  0.96557  0.78530  1.0000
  H   H2737     1.0  0.70196  0.97149  0.96696  1.0000
  H   H2738     1.0  0.69991  0.69923  0.88108  1.0000
  H   H2739     1.0  0.64790  0.82091  0.78747  1.0000
  H   H2740     1.0  0.63198  0.78923  0.80526  1.0000
  H   H2741     1.0  0.60880  0.77654  0.81093  1.0000
  H   H2742     1.0  0.65474  0.84751  0.81982  1.0000
  H   H2743     1.0  0.57779  0.87422  0.66852  1.0000
  C   C1610     1.0  0.64805  0.89560  0.97417  1.0000
  H   H2744     1.0  0.49409  0.98247  0.70705  1.0000
  S   S455      1.0  0.70140  0.93175  0.84084  1.0000
  C   C1611     1.0  0.70776  0.98582  0.80533  1.0000
  C   C1612     1.0  0.51267  0.68935  0.63086  1.0000
  C   C1613     1.0  0.63890  0.69823  0.98059  1.0000
  C   C1614     1.0  0.50327  0.94528  0.71911  1.0000
  H   H2745     1.0  0.68919  0.68849  0.90831  1.0000
  C   C1615     1.0  0.48884  0.82983  0.49393  1.0000
  H   H2746     1.0  0.49104  0.67357  0.69477  1.0000
  H   H2747     1.0  0.51637  0.96362  0.80078  1.0000
  H   H2748     1.0  0.58494  0.91359  0.67682  1.0000
  H   H2749     1.0  0.63741  0.84954  0.97068  1.0000
  H   H2750     1.0  0.71157  0.68673  0.89729  1.0000
  H   H2751     1.0  0.69364  0.87832  0.93298  1.0000
  C   C1616     1.0  0.66171  0.95104  0.82187  1.0000
  H   H2752     1.0  0.72532  0.97508  0.76374  1.0000
  H   H2753     1.0  0.55092  0.95796  0.80614  1.0000
  H   H2754     1.0  0.56325  0.88100  0.68914  1.0000
  N   N113      1.0  0.55901  0.97322  0.77309  1.0000
  H   H2755     1.0  0.70547  0.86638  0.94955  1.0000
  H   H2756     1.0  0.63018  0.94042  0.76316  1.0000
  H   H2757     1.0  0.59508  0.90577  0.65408  1.0000
  H   H2758     1.0  0.55595  0.91529  0.68217  1.0000
  C   C1617     1.0  0.58190  0.90402  0.66513  1.0000
  H   H2759     1.0  0.65485  0.93436  0.73966  1.0000
  H   H2760     1.0  0.71070  0.97350  0.81368  1.0000
  S   S456      1.0  0.63458  0.97910  0.72491  1.0000
  C   C1618     1.0  0.67552  0.85904  0.96018  1.0000
  H   H2761     1.0  0.51635  0.72377  0.63461  1.0000
  H   H2762     1.0  0.49467  0.88189  0.64961  1.0000
  H   H2763     1.0  0.60683  0.66560  0.75846  1.0000
  H   H2764     1.0  0.51350  0.93845  0.71275  1.0000
  C   C1619     1.0  0.71541  0.94627  0.85532  1.0000
  H   H2765     1.0  0.67197  0.94727  0.78983  1.0000
  C   C1620     1.0  0.57448  0.96431  0.77117  1.0000
  H   H2766     1.0  0.55801  0.67614  0.79312  1.0000
  C   C1621     1.0  0.65801  0.94310  0.75210  1.0000
  H   H2767     1.0  0.65636  0.92778  0.80564  1.0000
  H   H2768     1.0  0.62510  0.92457  0.81420  1.0000
  H   H2769     1.0  0.63827  0.92269  0.77625  1.0000
  H   H2770     1.0  0.67053  0.94077  0.75731  1.0000
  N   N114      1.0  0.56786  0.90846  0.65223  1.0000
  C   C1622     1.0  0.55152  0.90902  0.66814  1.0000
  C   C1623     1.0  0.57688  0.92649  0.63720  1.0000
  H   H2771     1.0  0.50432  0.68738  0.59862  1.0000
  H   H2772     1.0  0.53930  0.93209  0.66658  1.0000
  C   C1624     1.0  0.56938  0.94369  0.77038  1.0000
  C   C1625     1.0  0.49249  0.74224  0.58290  1.0000
  H   H2773     1.0  0.58893  0.92539  0.62594  1.0000
  H   H2774     1.0  0.54326  0.89493  0.67564  1.0000
  H   H2775     1.0  0.72711  0.67161  0.97036  1.0000
  H   H2776     1.0  0.59697  0.93541  0.81331  1.0000
  C   C1626     1.0  0.65874  0.94285  0.80108  1.0000
  C   C1627     1.0  0.50260  0.71694  0.63160  1.0000
  H   H2777     1.0  0.63654  0.96986  0.77248  1.0000
  H   H2778     1.0  0.69659  0.88459  0.95871  1.0000
  H   H2779     1.0  0.60485  0.92874  0.78853  1.0000
  H   H2780     1.0  0.54805  0.95951  0.74778  1.0000
  C   C1628     1.0  0.53500  0.98049  0.75040  1.0000
  H   H2781     1.0  0.62628  0.94635  0.82132  1.0000
  C   C1629     1.0  0.64161  0.93773  0.77096  1.0000
  H   H2782     1.0  0.58197  0.93907  0.76859  1.0000
  C   C1630     1.0  0.53848  0.91958  0.65928  1.0000
  H   H2783     1.0  0.59818  0.69811  0.96555  1.0000
  C   C1631     1.0  0.60825  0.93918  0.79901  1.0000
  H   H2784     1.0  0.56308  0.94047  0.75612  1.0000
  H   H2785     1.0  0.53586  0.89517  0.63218  1.0000
  H   H2786     1.0  0.49185  0.76565  0.49630  1.0000
  H   H2787     1.0  0.66264  0.96582  0.81947  1.0000
  C   C1632     1.0  0.70620  0.98182  0.97746  1.0000
  C   C1633     1.0  0.54452  0.96239  0.79218  1.0000
  S   S457      1.0  0.59224  0.65972  0.85069  1.0000
  H   H2788     1.0  0.56806  0.93055  0.62607  1.0000
  H   H2789     1.0  0.67257  0.84906  0.94892  1.0000
  C   C1634     1.0  0.72553  0.97702  0.86410  1.0000
  C   C1635     1.0  0.72348  0.68612  0.83211  1.0000
  H   H2790     1.0  0.54040  0.92341  0.64135  1.0000
  H   H2791     1.0  0.57526  0.89200  0.62895  1.0000
  H   H2792     1.0  0.55614  0.88022  0.64975  1.0000
  H   H2793     1.0  0.64690  0.78951  0.94108  1.0000
  H   H2794     1.0  0.53068  0.97245  0.81896  1.0000
  H   H2795     1.0  0.51025  0.70218  0.66879  1.0000
  C   C1636     1.0  0.56280  0.89364  0.63888  1.0000
  H   H2796     1.0  0.67701  0.67262  0.87819  1.0000
  H   H2797     1.0  0.58678  0.88405  0.69021  1.0000
  C   C1637     1.0  0.71207  0.96305  0.85850  1.0000
  H   H2798     1.0  0.54744  0.88423  0.61425  1.0000
  H   H2799     1.0  0.53689  0.94946  0.78774  1.0000
  C   C1638     1.0  0.69257  0.66196  0.82411  1.0000
  N   N115      1.0  0.72596  0.98414  0.97926  1.0000
  H   H2800     1.0  0.70318  0.65913  0.92137  1.0000
  H   H2801     1.0  0.69871  0.66996  0.86916  1.0000
  H   H2802     1.0  0.63480  0.66099  0.80767  1.0000
  H   H2803     1.0  0.73004  0.96908  0.95288  1.0000
  H   H2804     1.0  0.73328  0.96866  0.78834  1.0000
  C   C1639     1.0  0.48953  0.72774  0.64004  1.0000
  C   C1640     1.0  0.48515  0.93734  0.71156  1.0000
  H   H2805     1.0  0.48762  0.72700  0.65800  1.0000
  H   H2806     1.0  0.48407  0.87201  0.50680  1.0000
  H   H2807     1.0  0.56347  0.98832  0.81190  1.0000
  H   H2808     1.0  0.69488  0.98686  0.81477  1.0000
  H   H2809     1.0  0.64259  0.65865  0.73466  1.0000
  H   H2810     1.0  0.65276  0.82566  0.97895  1.0000
  Fe  Fe226     1.0  0.76653  0.08337  0.02564  1.0000
  S   S458      1.0  0.78646  0.07026  0.03964  1.0000
  S   S459      1.0  0.77213  0.09346  0.98896  1.0000
  H   H2811     1.0  0.81954  0.27867  0.27040  1.0000
  S   S460      1.0  0.76263  0.06708  0.08772  1.0000
  C   C1641     1.0  0.74939  0.22668  0.35517  1.0000
  Fe  Fe227     1.0  0.78608  0.08851  0.06492  1.0000
  S   S461      1.0  0.80993  0.10554  0.07886  1.0000
  Fe  Fe228     1.0  0.76133  0.05017  0.06067  1.0000
  H   H2812     1.0  0.85567  0.05014  0.07631  1.0000
  S   S462      1.0  0.76751  0.10274  0.04955  1.0000
  H   H2813     1.0  0.82110  0.02750  0.09205  1.0000
  C   C1642     1.0  0.74752  0.15424  0.43077  1.0000
  Fe  Fe229     1.0  0.74427  0.08071  0.07088  1.0000
  S   S463      1.0  0.89119  0.29289  0.24857  1.0000
  Fe  Fe230     1.0  0.90438  0.19496  0.06037  1.0000
  S   S464      1.0  0.89311  0.21944  0.05830  1.0000
  S   S465      1.0  0.88708  0.16754  0.05303  1.0000
  Fe  Fe231     1.0  0.94389  0.22052  0.06039  1.0000
  S   S466      1.0  0.93427  0.24579  0.05755  1.0000
  H   H2814     1.0  0.86738  0.21419  0.98497  1.0000
  Fe  Fe232     1.0  0.91047  0.22904  0.08298  1.0000
  S   S467      1.0  0.90072  0.23845  0.11438  1.0000
  Fe  Fe233     1.0  0.91821  0.23351  0.03329  1.0000
  S   S468      1.0  0.91817  0.24970  0.00035  1.0000
  S   S469      1.0  0.92045  0.20364  0.08685  1.0000
  S   S470      1.0  0.92927  0.20921  0.03435  1.0000
  Fe  Fe234     1.0  0.84389  0.28718  0.36620  1.0000
  S   S471      1.0  0.82102  0.27570  0.34924  1.0000
  S   S472      1.0  0.87326  0.29830  0.34898  1.0000
  Fe  Fe235     1.0  0.81819  0.28813  0.40770  1.0000
  S   S473      1.0  0.79322  0.27751  0.39345  1.0000
  S   S474      1.0  0.81433  0.29778  0.44028  1.0000
  Fe  Fe236     1.0  0.80772  0.25771  0.38165  1.0000
  S   S475      1.0  0.79308  0.22763  0.38553  1.0000
  Fe  Fe237     1.0  0.80850  0.29634  0.36237  1.0000
  S   S476      1.0  0.83202  0.26717  0.39787  1.0000
  C   C1643     1.0  0.95077  0.29893  0.27676  1.0000
  C   C1644     1.0  0.95277  0.29838  0.25206  1.0000
  H   H2815     1.0  0.93787  0.30870  0.33743  1.0000
  H   H2816     1.0  0.75611  0.20487  0.41854  1.0000
  H   H2817     1.0  0.83630  0.30498  0.24844  1.0000
  H   H2818     1.0  0.85126  0.02770  0.09043  1.0000
  H   H2819     1.0  0.77846  0.04184  0.12376  1.0000
  N   N116      1.0  0.73713  0.18232  0.44130  1.0000
  H   H2820     1.0  0.96657  0.29780  0.24497  1.0000
  H   H2821     1.0  0.83602  0.27200  0.44850  1.0000
  C   C1645     1.0  0.77378  0.22053  0.37329  1.0000
  C   C1646     1.0  0.76523  0.23298  0.36387  1.0000
  C   C1647     1.0  0.82114  0.28853  0.46408  1.0000
  C   C1648     1.0  0.96453  0.23593  0.98499  1.0000
  C   C1649     1.0  0.74055  0.00077  0.06327  1.0000
  C   C1650     1.0  0.76644  0.20182  0.37379  1.0000
  H   H2822     1.0  0.77081  0.24744  0.36332  1.0000
  H   H2823     1.0  0.93584  0.29545  0.28281  1.0000
  H   H2824     1.0  0.82891  0.03851  0.05469  1.0000
  H   H2825     1.0  0.77312  0.19215  0.38077  1.0000
  H   H2826     1.0  0.79782  0.05541  0.13193  1.0000
  H   H2827     1.0  0.74937  0.00490  0.98330  1.0000
  C   C1651     1.0  0.88667  0.29465  0.27645  1.0000
  H   H2828     1.0  0.85659  0.04636  0.10521  1.0000
  S   S477      1.0  0.75999  0.01972  0.06177  1.0000
  C   C1652     1.0  0.87826  0.29668  0.32115  1.0000
  C   C1653     1.0  0.86845  0.28208  0.31285  1.0000
  C   C1654     1.0  0.87278  0.28098  0.29064  1.0000
  H   H2829     1.0  0.78167  0.20673  0.44161  1.0000
  H   H2830     1.0  0.85773  0.27144  0.32365  1.0000
  H   H2831     1.0  0.86527  0.26950  0.28440  1.0000
  C   C1655     1.0  0.92140  0.29507  0.13299  1.0000
  C   C1656     1.0  0.91015  0.28037  0.14848  1.0000
  C   C1657     1.0  0.90377  0.26322  0.14242  1.0000
  C   C1658     1.0  0.90874  0.26048  0.12094  1.0000
  C   C1659     1.0  0.91998  0.27519  0.10543  1.0000
  C   C1660     1.0  0.92614  0.29241  0.11141  1.0000
  H   H2832     1.0  0.90630  0.28222  0.16511  1.0000
  H   H2833     1.0  0.89499  0.25197  0.15451  1.0000
  H   H2834     1.0  0.92378  0.27335  0.08880  1.0000
  H   H2835     1.0  0.93473  0.30372  0.09925  1.0000
  C   C1661     1.0  0.83064  0.12377  0.07031  1.0000
  C   C1662     1.0  0.84270  0.12542  0.05078  1.0000
  C   C1663     1.0  0.85985  0.13862  0.04605  1.0000
  C   C1664     1.0  0.86513  0.15092  0.06031  1.0000
  C   C1665     1.0  0.85286  0.14957  0.07955  1.0000
  C   C1666     1.0  0.83598  0.13594  0.08465  1.0000
  H   H2836     1.0  0.83911  0.11610  0.03965  1.0000
  H   H2837     1.0  0.86915  0.13933  0.03119  1.0000
  H   H2838     1.0  0.85654  0.15875  0.09082  1.0000
  H   H2839     1.0  0.82700  0.13479  0.09994  1.0000
  C   C1667     1.0  0.84847  0.08416  0.09574  1.0000
  H   H2840     1.0  0.74291  0.23638  0.34783  1.0000
  C   C1668     1.0  0.79348  0.04470  0.12210  1.0000
  C   C1669     1.0  0.82838  0.18316  0.01413  1.0000
  H   H2841     1.0  0.79628  0.03184  0.12916  1.0000
  S   S478      1.0  0.79596  0.31266  0.33948  1.0000
  C   C1670     1.0  0.94776  0.24093  0.12113  1.0000
  C   C1671     1.0  0.82962  0.07077  0.10507  1.0000
  H   H2842     1.0  0.74503  0.19547  0.48067  1.0000
  H   H2843     1.0  0.79577  0.03958  0.08936  1.0000
  H   H2844     1.0  0.84245  0.06961  0.06250  1.0000
  H   H2845     1.0  0.82025  0.07963  0.10712  1.0000
  H   H2846     1.0  0.79686  0.06266  0.09147  1.0000
  H   H2847     1.0  0.74457  0.17683  0.40874  1.0000
  C   C1672     1.0  0.77195  0.32183  0.46003  1.0000
  H   H2848     1.0  0.77115  0.30818  0.45553  1.0000
  H   H2849     1.0  0.94308  0.28581  0.24952  1.0000
  H   H2850     1.0  0.96679  0.23375  0.14051  1.0000
  H   H2851     1.0  0.82499  0.17921  0.99842  1.0000
  H   H2852     1.0  0.80470  0.27328  0.29620  1.0000
  C   C1673     1.0  0.82763  0.06357  0.06777  1.0000
  H   H2853     1.0  0.90825  0.21081  0.99947  1.0000
  H   H2854     1.0  0.94942  0.31009  0.24284  1.0000
  H   H2855     1.0  0.81919  0.19167  0.01886  1.0000
  C   C1674     1.0  0.83182  0.27622  0.46370  1.0000
  C   C1675     1.0  0.86007  0.16977  0.99344  1.0000
  S   S479      1.0  0.74160  0.06269  0.04528  1.0000
  C   C1676     1.0  0.82215  0.04965  0.05264  1.0000
  H   H2856     1.0  0.93917  0.25782  0.18560  1.0000
  H   H2857     1.0  0.80924  0.16429  0.04147  1.0000
  H   H2858     1.0  0.84800  0.09363  0.08089  1.0000
  H   H2859     1.0  0.96824  0.23176  0.00108  1.0000
  H   H2860     1.0  0.83006  0.06452  0.12204  1.0000
  Fe  Fe238     1.0  0.91138  0.31498  0.22313  1.0000
  C   C1677     1.0  0.80197  0.05091  0.09757  1.0000
  C   C1678     1.0  0.94275  0.25387  0.16951  1.0000
  S   S480      1.0  0.93487  0.30931  0.20233  1.0000
  C   C1679     1.0  0.96358  0.25932  0.16259  1.0000
  H   H2861     1.0  0.95289  0.24196  0.98774  1.0000
  C   C1680     1.0  0.96484  0.27791  0.12605  1.0000
  H   H2862     1.0  0.85251  0.09286  0.10798  1.0000
  H   H2863     1.0  0.92989  0.31635  0.31334  1.0000
  H   H2864     1.0  0.82537  0.03478  0.11646  1.0000
  H   H2865     1.0  0.84209  0.21542  0.02761  1.0000
  H   H2866     1.0  0.86167  0.31606  0.29290  1.0000
  C   C1681     1.0  0.75051  0.19551  0.36534  1.0000
  H   H2867     1.0  0.95544  0.28737  0.28458  1.0000
  C   C1682     1.0  0.85112  0.20617  0.02769  1.0000
  H   H2868     1.0  0.86534  0.21516  0.02388  1.0000
  H   H2869     1.0  0.94550  0.22728  0.11628  1.0000
  C   C1683     1.0  0.73402  0.17228  0.46455  1.0000
  H   H2870     1.0  0.95001  0.27388  0.12645  1.0000
  H   H2871     1.0  0.85940  0.17376  0.02653  1.0000
  N   N117      1.0  0.97112  0.26303  0.13841  1.0000
  C   C1684     1.0  0.82250  0.16520  0.03124  1.0000
  H   H2872     1.0  0.85922  0.07724  0.09211  1.0000
  H   H2873     1.0  0.96382  0.30608  0.12349  1.0000
  H   H2874     1.0  0.96456  0.30287  0.31354  1.0000
  H   H2875     1.0  0.85664  0.18737  0.05450  1.0000
  N   N118      1.0  0.82247  0.05618  0.09206  1.0000
  N   N119      1.0  0.96037  0.31670  0.28296  1.0000
  H   H2876     1.0  0.97647  0.24663  0.11399  1.0000
  H   H2877     1.0  0.93144  0.29317  0.31945  1.0000
  C   C1685     1.0  0.84778  0.19650  0.05168  1.0000
  H   H2878     1.0  0.85116  0.20701  0.06210  1.0000
  H   H2879     1.0  0.79727  0.31904  0.41818  1.0000
  C   C1686     1.0  0.89630  0.30943  0.28465  1.0000
  H   H2880     1.0  0.96929  0.27104  0.17052  1.0000
  H   H2881     1.0  0.85391  0.30045  0.26200  1.0000
  S   S481      1.0  0.97443  0.22352  0.05956  1.0000
  H   H2882     1.0  0.83328  0.18915  0.05771  1.0000
  H   H2883     1.0  0.74479  0.16546  0.46741  1.0000
  H   H2884     1.0  0.98244  0.32246  0.25527  1.0000
  H   H2885     1.0  0.84619  0.16085  0.99464  1.0000
  H   H2886     1.0  0.77829  0.19003  0.42400  1.0000
  H   H2887     1.0  0.94755  0.25062  0.10634  1.0000
  H   H2888     1.0  0.82003  0.15313  0.02301  1.0000
  C   C1687     1.0  0.96906  0.29640  0.13396  1.0000
  C   C1688     1.0  0.82874  0.03941  0.09841  1.0000
  H   H2889     1.0  0.77106  0.18381  0.45348  1.0000
  H   H2890     1.0  0.76147  0.15960  0.43371  1.0000
  C   C1689     1.0  0.96628  0.24582  0.12877  1.0000
  C   C1690     1.0  0.93811  0.30764  0.31989  1.0000
  H   H2891     1.0  0.74851  0.14704  0.41661  1.0000
  H   H2892     1.0  0.75231  0.20945  0.44493  1.0000
  H   H2893     1.0  0.74210  0.06030  0.00019  1.0000
  H   H2894     1.0  0.82711  0.21502  0.98957  1.0000
  S   S482      1.0  0.83195  0.30894  0.37748  1.0000
  N   N120      1.0  0.84799  0.19419  0.01064  1.0000
  H   H2895     1.0  0.80337  0.29182  0.27647  1.0000
  H   H2896     1.0  0.77444  0.31184  0.39634  1.0000
  H   H2897     1.0  0.80725  0.04377  0.05489  1.0000
  C   C1691     1.0  0.84925  0.04129  0.09227  1.0000
  H   H2898     1.0  0.82161  0.07510  0.06348  1.0000
  S   S483      1.0  0.93029  0.31682  0.13985  1.0000
  H   H2899     1.0  0.83186  0.16359  0.04274  1.0000
  C   C1692     1.0  0.77210  0.19414  0.43892  1.0000
  H   H2900     1.0  0.93614  0.24019  0.13397  1.0000
  C   C1693     1.0  0.75392  0.19824  0.43597  1.0000
  H   H2901     1.0  0.93696  0.23892  0.17099  1.0000
  C   C1694     1.0  0.84663  0.31102  0.25803  1.0000
  H   H2902     1.0  0.96809  0.24798  0.17110  1.0000
  C   C1695     1.0  0.82706  0.29753  0.29326  1.0000
  C   C1696     1.0  0.86108  0.18249  0.01055  1.0000
  H   H2903     1.0  0.89967  0.32178  0.31332  1.0000
  C   C1697     1.0  0.84201  0.22104  0.98535  1.0000
  H   H2904     1.0  0.81935  0.29986  0.30844  1.0000
  C   C1698     1.0  0.85270  0.20661  0.98855  1.0000
  H   H2905     1.0  0.93586  0.26115  0.15848  1.0000
  H   H2906     1.0  0.86911  0.16078  0.99638  1.0000
  H   H2907     1.0  0.83641  0.28954  0.29878  1.0000
  C   C1699     1.0  0.81293  0.28481  0.28316  1.0000
  H   H2908     1.0  0.82659  0.05677  0.03534  1.0000
  C   C1700     1.0  0.89229  0.31030  0.30702  1.0000
  H   H2909     1.0  0.87532  0.19114  0.00806  1.0000
  H   H2910     1.0  0.97306  0.25960  0.06939  1.0000
  H   H2911     1.0  0.81725  0.07133  0.99169  1.0000
  H   H2912     1.0  0.97085  0.28044  0.10833  1.0000
  C   C1701     1.0  0.74192  0.20791  0.35601  1.0000
  H   H2913     1.0  0.73478  0.12536  0.16253  1.0000
  H   H2914     1.0  0.98295  0.27043  0.00298  1.0000
  C   C1702     1.0  0.95798  0.31357  0.30762  1.0000
  C   C1703     1.0  0.73793  0.16929  0.42540  1.0000
  H   H2915     1.0  0.81483  0.09384  0.98503  1.0000
  H   H2916     1.0  0.73517  0.02098  0.00755  1.0000
  H   H2917     1.0  0.96205  0.29522  0.15099  1.0000
  C   C1704     1.0  0.90675  0.21804  0.98409  1.0000
  H   H2918     1.0  0.76297  0.31614  0.42101  1.0000
  H   H2919     1.0  0.74502  0.18105  0.36581  1.0000
  H   H2920     1.0  0.73938  0.14376  0.44495  1.0000
  N   N121      1.0  0.83767  0.31545  0.27882  1.0000
  C   C1705     1.0  0.98030  0.32083  0.27340  1.0000
  H   H2921     1.0  0.84630  0.23218  0.99465  1.0000
  C   C1706     1.0  0.73448  0.00284  0.98382  1.0000
  H   H2922     1.0  0.81710  0.32191  0.26123  1.0000
  H   H2923     1.0  0.76963  0.32031  0.47816  1.0000
  H   H2924     1.0  0.84056  0.31498  0.32585  1.0000
  H   H2925     1.0  0.90661  0.32024  0.27372  1.0000
  C   C1707     1.0  0.77342  0.32260  0.40629  1.0000
  H   H2926     1.0  0.86643  0.32118  0.22815  1.0000
  C   C1708     1.0  0.74549  0.06414  0.98261  1.0000
  H   H2927     1.0  0.86347  0.30111  0.61086  1.0000
  S   S484      1.0  0.77600  0.04634  0.84232  1.0000
  H   H2928     1.0  0.81650  0.29920  0.64109  1.0000
  H   H2929     1.0  0.74637  0.01039  0.93840  1.0000
  S   S485      1.0  0.77257  0.03855  0.89527  1.0000
  C   C1709     1.0  0.75334  0.02340  0.79345  1.0000
  Fe  Fe239     1.0  0.78366  0.06338  0.86828  1.0000
  S   S486      1.0  0.80855  0.08794  0.86776  1.0000
  Fe  Fe240     1.0  0.76204  0.02246  0.86980  1.0000
  C   C1710     1.0  0.73434  0.12956  0.59974  1.0000
  S   S487      1.0  0.75736  0.07148  0.87159  1.0000
  H   H2930     1.0  0.86980  0.22864  0.59628  1.0000
  C   C1711     1.0  0.82465  0.31311  0.64190  1.0000
  Fe  Fe241     1.0  0.89930  0.17585  0.86845  1.0000
  S   S488      1.0  0.88553  0.19836  0.86966  1.0000
  S   S489      1.0  0.88563  0.14699  0.86220  1.0000
  Fe  Fe242     1.0  0.93647  0.20171  0.87533  1.0000
  S   S490      1.0  0.92438  0.22524  0.87751  1.0000
  Fe  Fe243     1.0  0.89998  0.20422  0.89801  1.0000
  S   S491      1.0  0.88506  0.20486  0.93143  1.0000
  Fe  Fe244     1.0  0.91146  0.21708  0.84892  1.0000
  S   S492      1.0  0.91738  0.23549  0.81562  1.0000
  S   S493      1.0  0.91267  0.18094  0.89769  1.0000
  S   S494      1.0  0.92459  0.19415  0.84595  1.0000
  Fe  Fe245     1.0  0.82276  0.26915  0.55880  1.0000
  S   S495      1.0  0.79438  0.27227  0.56244  1.0000
  S   S496      1.0  0.83857  0.26616  0.52703  1.0000
  Fe  Fe246     1.0  0.82509  0.27011  0.60685  1.0000
  S   S497      1.0  0.79688  0.27327  0.61423  1.0000
  S   S498      1.0  0.83987  0.26618  0.63528  1.0000
  Fe  Fe247     1.0  0.78900  0.25198  0.59356  1.0000
  S   S499      1.0  0.76275  0.22993  0.60645  1.0000
  S   S500      1.0  0.81660  0.24706  0.58859  1.0000
  C   C1712     1.0  0.75663  0.21195  0.59196  1.0000
  C   C1713     1.0  0.83719  0.26948  0.48307  1.0000
  C   C1714     1.0  0.89739  0.25703  0.56991  1.0000
  C   C1715     1.0  0.83728  0.13372  0.92760  1.0000
  C   C1716     1.0  0.76006  0.19829  0.55944  1.0000
  C   C1717     1.0  0.76622  0.21222  0.57124  1.0000
  C   C1718     1.0  0.83263  0.11713  0.94635  1.0000
  H   H2931     1.0  0.76745  0.19858  0.54336  1.0000
  H   H2932     1.0  0.77824  0.22326  0.56420  1.0000
  H   H2933     1.0  0.81688  0.29141  0.51839  1.0000
  H   H2934     1.0  0.87396  0.25672  0.62671  1.0000
  C   C1719     1.0  0.86171  0.28046  0.66301  1.0000
  C   C1720     1.0  0.85717  0.28316  0.64208  1.0000
  H   H2935     1.0  0.87923  0.29108  0.68504  1.0000
  H   H2936     1.0  0.85420  0.26839  0.67480  1.0000
  C   C1721     1.0  0.90780  0.25289  0.80523  1.0000
  C   C1722     1.0  0.89173  0.25548  0.81595  1.0000
  C   C1723     1.0  0.88420  0.26890  0.80620  1.0000
  C   C1724     1.0  0.89285  0.28004  0.78590  1.0000
  C   C1725     1.0  0.90905  0.27757  0.77543  1.0000
  C   C1726     1.0  0.91637  0.26397  0.78494  1.0000
  H   H2937     1.0  0.88500  0.24704  0.83158  1.0000
  H   H2938     1.0  0.87167  0.27074  0.81443  1.0000
  H   H2939     1.0  0.91586  0.28600  0.75986  1.0000
  H   H2940     1.0  0.92880  0.26205  0.77654  1.0000
  C   C1727     1.0  0.82102  0.28709  0.50325  1.0000
  S   S501      1.0  0.73599  0.16752  0.55278  1.0000
  C   C1728     1.0  0.89744  0.21738  0.94851  1.0000
  C   C1729     1.0  0.90212  0.23646  0.94437  1.0000
  C   C1730     1.0  0.75428  0.07365  0.93692  1.0000
  H   H2941     1.0  0.84429  0.08557  0.91661  1.0000
  H   H2942     1.0  0.89981  0.24362  0.92937  1.0000
  C   C1731     1.0  0.81284  0.09373  0.93131  1.0000
  C   C1732     1.0  0.82984  0.10466  0.86616  1.0000
  C   C1733     1.0  0.84641  0.10048  0.86074  1.0000
  C   C1734     1.0  0.86311  0.11358  0.85974  1.0000
  C   C1735     1.0  0.86374  0.13116  0.86425  1.0000
  C   C1736     1.0  0.84718  0.13545  0.86968  1.0000
  C   C1737     1.0  0.83038  0.12231  0.87055  1.0000
  H   H2943     1.0  0.84636  0.08707  0.85723  1.0000
  H   H2944     1.0  0.87571  0.11001  0.85542  1.0000
  H   H2945     1.0  0.84730  0.14889  0.87311  1.0000
  H   H2946     1.0  0.81774  0.12583  0.87470  1.0000
  C   C1738     1.0  0.91082  0.23710  0.98028  1.0000
  C   C1739     1.0  0.88603  0.30860  0.65350  1.0000
  H   H2947     1.0  0.86684  0.11466  0.93788  1.0000
  H   H2948     1.0  0.81984  0.11747  0.95681  1.0000
  C   C1740     1.0  0.74277  0.10332  0.61744  1.0000
  H   H2949     1.0  0.74960  0.99860  0.82697  1.0000
  H   H2950     1.0  0.87371  0.23331  0.63179  1.0000
  C   C1741     1.0  0.86697  0.29877  0.62693  1.0000
  H   H2951     1.0  0.74485  0.09500  0.57602  1.0000
  H   H2952     1.0  0.79373  0.07254  0.92029  1.0000
  C   C1742     1.0  0.76322  0.08493  0.95011  1.0000
  H   H2953     1.0  0.77867  0.00180  0.80222  1.0000
  H   H2954     1.0  0.96384  0.20614  0.92384  1.0000
  C   C1743     1.0  0.87588  0.29329  0.66885  1.0000
  H   H2955     1.0  0.77319  0.09757  0.94252  1.0000
  C   C1744     1.0  0.82948  0.31308  0.66497  1.0000
  H   H2956     1.0  0.84385  0.08932  0.96520  1.0000
  N   N122      1.0  0.83062  0.09876  0.93941  1.0000
  C   C1745     1.0  0.74408  0.18434  0.56813  1.0000
  Fe  Fe248     1.0  0.74627  0.04615  0.89711  1.0000
  C   C1746     1.0  0.74108  0.19758  0.60095  1.0000
  H   H2957     1.0  0.91202  0.26103  0.95713  1.0000
  H   H2958     1.0  0.75618  0.03520  0.75850  1.0000
  H   H2959     1.0  0.82713  0.13237  0.91659  1.0000
  H   H2960     1.0  0.81665  0.30634  0.67684  1.0000
  H   H2961     1.0  0.75903  0.05138  0.77647  1.0000
  H   H2962     1.0  0.95103  0.22740  0.90848  1.0000
  H   H2963     1.0  0.80491  0.06353  0.94042  1.0000
  C   C1747     1.0  0.87834  0.24592  0.61916  1.0000
  H   H2964     1.0  0.95576  0.24821  0.94710  1.0000
  H   H2965     1.0  0.75778  0.07740  0.91929  1.0000
  C   C1748     1.0  0.88352  0.29123  0.56457  1.0000
  H   H2966     1.0  0.95930  0.30440  0.67517  1.0000
  N   N123      1.0  0.87894  0.18345  0.80040  1.0000
  C   C1749     1.0  0.86312  0.16971  0.81566  1.0000
  C   C1750     1.0  0.88047  0.20174  0.80730  1.0000
  C   C1751     1.0  0.89582  0.17756  0.80365  1.0000
  C   C1752     1.0  0.87579  0.18360  0.77710  1.0000
  C   C1753     1.0  0.85980  0.14974  0.81205  1.0000
  C   C1754     1.0  0.86296  0.20818  0.80909  1.0000
  C   C1755     1.0  0.91401  0.18990  0.79036  1.0000
  C   C1756     1.0  0.88454  0.20155  0.76053  1.0000
  H   H2967     1.0  0.86475  0.16985  0.83308  1.0000
  H   H2968     1.0  0.85013  0.17323  0.81419  1.0000
  H   H2969     1.0  0.89122  0.21272  0.79604  1.0000
  H   H2970     1.0  0.88489  0.20169  0.82346  1.0000
  H   H2971     1.0  0.89711  0.17614  0.82126  1.0000
  H   H2972     1.0  0.89502  0.16386  0.79936  1.0000
  H   H2973     1.0  0.88057  0.17262  0.77024  1.0000
  H   H2974     1.0  0.86099  0.18034  0.77646  1.0000
  H   H2975     1.0  0.85911  0.14842  0.79479  1.0000
  H   H2976     1.0  0.87024  0.14343  0.81769  1.0000
  H   H2977     1.0  0.84655  0.14152  0.82207  1.0000
  H   H2978     1.0  0.86651  0.22312  0.80897  1.0000
  H   H2979     1.0  0.85564  0.20552  0.79534  1.0000
  H   H2980     1.0  0.85370  0.20154  0.82484  1.0000
  H   H2981     1.0  0.91645  0.20432  0.79247  1.0000
  H   H2982     1.0  0.91521  0.18880  0.77281  1.0000
  H   H2983     1.0  0.92525  0.18508  0.79630  1.0000
  H   H2984     1.0  0.87778  0.21235  0.76376  1.0000
  H   H2985     1.0  0.88280  0.19904  0.74381  1.0000
  H   H2986     1.0  0.89927  0.20693  0.76015  1.0000
  C   C1757     1.0  0.74409  0.10897  0.57754  1.0000
  H   H2987     1.0  0.84307  0.11979  0.95698  1.0000
  C   C1758     1.0  0.88160  0.31124  0.63250  1.0000
  N   N124      1.0  0.96325  0.22270  0.94918  1.0000
  H   H2988     1.0  0.91637  0.24073  0.56372  1.0000
  H   H2989     1.0  0.87317  0.29080  0.55381  1.0000
  C   C1759     1.0  0.80700  0.07434  0.92594  1.0000
  H   H2990     1.0  0.75855  0.11698  0.57575  1.0000
  C   C1760     1.0  0.83103  0.08494  0.95873  1.0000
  H   H2991     1.0  0.96763  0.24862  0.90843  1.0000
  C   C1761     1.0  0.73464  0.18401  0.58892  1.0000
  C   C1762     1.0  0.95211  0.23499  0.94120  1.0000
  H   H2992     1.0  0.93750  0.22901  0.94823  1.0000
  H   H2993     1.0  0.83127  0.07162  0.95377  1.0000
  C   C1763     1.0  0.83686  0.31366  0.70966  1.0000
  H   H2994     1.0  0.83723  0.14620  0.93469  1.0000
  H   H2995     1.0  0.88489  0.30414  0.57113  1.0000
  C   C1764     1.0  0.86953  0.24256  0.59885  1.0000
  H   H2996     1.0  0.90700  0.26628  0.57785  1.0000
  C   C1765     1.0  0.75931  0.07992  0.97299  1.0000
  N   N125      1.0  0.74192  0.00398  0.79541  1.0000
  H   H2997     1.0  0.93630  0.18147  0.93933  1.0000
  H   H2998     1.0  0.89332  0.22783  0.56664  1.0000
  C   C1766     1.0  0.73362  0.26095  0.58564  1.0000
  H   H2999     1.0  0.74709  0.27032  0.57768  1.0000
  H   H3000     1.0  0.87223  0.26320  0.54563  1.0000
  C   C1767     1.0  0.86635  0.25312  0.56103  1.0000
  H   H3001     1.0  0.85108  0.13610  0.91789  1.0000
  S   S502      1.0  0.83378  0.29177  0.57663  1.0000
  C   C1768     1.0  0.86528  0.10518  0.92608  1.0000
  H   H3002     1.0  0.75792  0.00350  0.76449  1.0000
  N   N126      1.0  0.87794  0.25657  0.57836  1.0000
  H   H3003     1.0  0.88626  0.27876  0.59611  1.0000
  C   C1769     1.0  0.83169  0.27478  0.50292  1.0000
  H   H3004     1.0  0.85051  0.19865  0.97515  1.0000
  H   H3005     1.0  0.90122  0.26297  0.55212  1.0000
  C   C1770     1.0  0.93789  0.19480  0.94491  1.0000
  S   S503      1.0  0.91977  0.31272  0.71901  1.0000
  C   C1771     1.0  0.74061  0.05778  0.94658  1.0000
  H   H3006     1.0  0.74861  0.13835  0.59480  1.0000
  H   H3007     1.0  0.73549  0.10415  0.63372  1.0000
  Fe  Fe249     1.0  0.80482  0.29318  0.58269  1.0000
  H   H3008     1.0  0.93132  0.19188  0.96235  1.0000
  H   H3009     1.0  0.82545  0.31842  0.71729  1.0000
  H   H3010     1.0  0.85482  0.24179  0.60350  1.0000
  S   S504      1.0  0.96568  0.20276  0.88030  1.0000
  C   C1772     1.0  0.75093  0.03764  0.77489  1.0000
  H   H3011     1.0  0.83170  0.29981  0.70596  1.0000
  H   H3012     1.0  0.90267  0.23363  0.59026  1.0000
  C   C1773     1.0  0.74412  0.08350  0.61975  1.0000
  H   H3013     1.0  0.96485  0.19485  0.94979  1.0000
  C   C1774     1.0  0.95394  0.23971  0.91614  1.0000
  C   C1775     1.0  0.90886  0.24629  0.96019  1.0000
  H   H3014     1.0  0.89686  0.29196  0.55477  1.0000
  H   H3015     1.0  0.89338  0.24981  0.61539  1.0000
  H   H3016     1.0  0.93654  0.30351  0.67190  1.0000
  C   C1776     1.0  0.95835  0.20464  0.94149  1.0000
  C   C1777     1.0  0.90015  0.20823  0.96820  1.0000
  H   H3017     1.0  0.74001  0.13124  0.55435  1.0000
  C   C1778     1.0  0.95102  0.31059  0.66486  1.0000
  H   H3018     1.0  0.76807  0.02428  0.79052  1.0000
  Fe  Fe250     1.0  0.74917  0.05313  0.84757  1.0000
  H   H3019     1.0  0.85273  0.25505  0.56648  1.0000
  C   C1779     1.0  0.84578  0.09926  0.92123  1.0000
  H   H3020     1.0  0.85274  0.23324  0.54326  1.0000
  H   H3021     1.0  0.81310  0.10329  0.91615  1.0000
  H   H3022     1.0  0.80161  0.09519  0.94343  1.0000
  H   H3023     1.0  0.87561  0.23314  0.54368  1.0000
  H   H3024     1.0  0.85784  0.22274  0.56775  1.0000
  C   C1780     1.0  0.87743  0.27499  0.58390  1.0000
  C   C1781     1.0  0.90242  0.23867  0.57290  1.0000
  C   C1782     1.0  0.74352  0.99852  0.77319  1.0000
  H   H3025     1.0  0.74388  0.11249  0.54250  1.0000
  H   H3026     1.0  0.94393  0.24736  0.91228  1.0000
  H   H3027     1.0  0.75189  0.08106  0.63302  1.0000
  H   H3028     1.0  0.81662  0.07224  0.91233  1.0000
  Fe  Fe251     1.0  0.89909  0.31794  0.74453  1.0000
  H   H3029     1.0  0.83817  0.30351  0.66646  1.0000
  C   C1783     1.0  0.86321  0.23435  0.55394  1.0000
  S   S505      1.0  0.88286  0.29648  0.77373  1.0000
  H   H3030     1.0  0.86343  0.27459  0.59175  1.0000
  H   H3031     1.0  0.75081  0.02848  0.80914  1.0000
  H   H3032     1.0  0.84518  0.22758  0.96779  1.0000
  H   H3033     1.0  0.75683  0.11238  0.61556  1.0000
  H   H3034     1.0  0.84504  0.10793  0.90589  1.0000
  H   H3035     1.0  0.73991  0.23869  0.57182  1.0000
  H   H3036     1.0  0.84551  0.31224  0.72225  1.0000
  H   H3037     1.0  0.93049  0.20249  0.93491  1.0000
  H   H3038     1.0  0.86978  0.09309  0.93240  1.0000
  C   C1784     1.0  0.73693  0.99708  0.93771  1.0000
  H   H3039     1.0  0.95341  0.30772  0.64802  1.0000
  S   S506      1.0  0.73517  0.02875  0.87352  1.0000
  H   H3040     1.0  0.74235  0.99284  0.92245  1.0000
  H   H3041     1.0  0.75156  0.08063  0.60481  1.0000
  H   H3042     1.0  0.87472  0.11271  0.91072  1.0000
  H   H3043     1.0  0.94463  0.21288  0.98006  1.0000
  S   S507      1.0  0.76129  0.99248  0.86969  1.0000
  S   S508      1.0  0.79584  0.31891  0.58050  1.0000
  H   H3044     1.0  0.86506  0.17745  0.97649  1.0000
  H   H3045     1.0  0.86022  0.32195  0.68380  1.0000
  C   C1785     1.0  0.73691  0.11615  0.55726  1.0000
  C   C1786     1.0  0.95941  0.21909  0.97386  1.0000
  H   H3046     1.0  0.73675  0.03841  0.77563  1.0000
  N   N127      1.0  0.73352  0.10973  0.59936  1.0000
  C   C1787     1.0  0.81586  0.29401  0.48388  1.0000
  C   C1788     1.0  0.73586  0.05335  0.96943  1.0000
  H   H3047     1.0  0.73378  0.19715  0.61712  1.0000
  H   H3048     1.0  0.83701  0.31612  0.62917  1.0000
  C   C1789     1.0  0.81528  0.08132  0.97828  1.0000
  H   H3049     1.0  0.80763  0.30353  0.48429  1.0000
  C   C1790     1.0  0.74867  0.99233  0.81202  1.0000
  H   H3050     1.0  0.80188  0.07527  0.97401  1.0000
  S   S509      1.0  0.73755  0.06193  0.81786  1.0000
  H   H3051     1.0  0.97641  0.24673  0.97562  1.0000
  H   H3052     1.0  0.73570  0.13322  0.63389  1.0000
  H   H3053     1.0  0.73578  0.00554  0.76276  1.0000
  H   H3054     1.0  0.73513  0.25564  0.60248  1.0000
  H   H3055     1.0  0.96574  0.20856  0.98085  1.0000
  H   H3056     1.0  0.89668  0.19349  0.97144  1.0000
  H   H3057     1.0  0.98101  0.24346  0.86603  1.0000
  H   H3058     1.0  0.84549  0.26000  0.48269  1.0000
  C   C1791     1.0  0.98307  0.23192  0.94014  1.0000
  H   H3059     1.0  0.81641  0.32256  0.63776  1.0000
  H   H3060     1.0  0.88938  0.32311  0.62057  1.0000
  H   H3061     1.0  0.81981  0.56054  0.13053  1.0000
  Fe  Fe252     1.0  0.92005  0.35416  0.20000  1.0000
  S   S510      1.0  0.92782  0.34120  0.23029  1.0000
  S   S511      1.0  0.90861  0.37848  0.20201  1.0000
  Fe  Fe253     1.0  0.95056  0.33691  0.20696  1.0000
  H   H3062     1.0  0.77769  0.36492  0.45575  1.0000
  S   S512      1.0  0.94425  0.35200  0.17710  1.0000
  S   S513      1.0  0.76029  0.61630  0.99572  1.0000
  H   H3063     1.0  0.97574  0.44736  0.24107  1.0000
  Fe  Fe254     1.0  0.77219  0.61826  0.07024  1.0000
  S   S514      1.0  0.76482  0.59367  0.05434  1.0000
  S   S515      1.0  0.79882  0.62402  0.08423  1.0000
  Fe  Fe255     1.0  0.75191  0.61074  0.03264  1.0000
  H   H3064     1.0  0.87719  0.37468  0.30614  1.0000
  H   H3065     1.0  0.76790  0.55817  0.08269  1.0000
  S   S516      1.0  0.76027  0.63591  0.04769  1.0000
  S   S517      1.0  0.74579  0.60918  0.09456  1.0000
  Fe  Fe256     1.0  0.95118  0.51996  0.19443  1.0000
  S   S518      1.0  0.94497  0.52249  0.22997  1.0000
  S   S519      1.0  0.96251  0.54288  0.16471  1.0000
  Fe  Fe257     1.0  0.95177  0.47961  0.20625  1.0000
  S   S520      1.0  0.94560  0.47903  0.24234  1.0000
  S   S521      1.0  0.96178  0.45765  0.19200  1.0000
  Fe  Fe258     1.0  0.92536  0.49441  0.23416  1.0000
  S   S522      1.0  0.89593  0.48539  0.25188  1.0000
  Fe  Fe259     1.0  0.96550  0.50674  0.23537  1.0000
  H   H3066     1.0  0.96965  0.51995  0.12954  1.0000
  S   S523      1.0  0.93019  0.49301  0.19801  1.0000
  S   S524      1.0  0.97307  0.50618  0.20000  1.0000
  S   S525      1.0  0.91552  0.60855  0.04920  1.0000
  H   H3067     1.0  0.82629  0.49723  0.28476  1.0000
  H   H3068     1.0  0.78621  0.44620  0.44809  1.0000
  Fe  Fe260     1.0  0.92961  0.61108  0.07842  1.0000
  S   S526      1.0  0.91987  0.58753  0.10761  1.0000
  H   H3069     1.0  0.85691  0.53930  0.30655  1.0000
  Fe  Fe261     1.0  0.80929  0.44540  0.38580  1.0000
  S   S527      1.0  0.83521  0.44806  0.39918  1.0000
  S   S528      1.0  0.79264  0.46562  0.38671  1.0000
  Fe  Fe262     1.0  0.80719  0.40724  0.37702  1.0000
  S   S529      1.0  0.83284  0.40624  0.38970  1.0000
  S   S530      1.0  0.78588  0.38626  0.36619  1.0000
  Fe  Fe263     1.0  0.82236  0.41934  0.41703  1.0000
  S   S531      1.0  0.81915  0.40742  0.45309  1.0000
  Fe  Fe264     1.0  0.84384  0.43509  0.37067  1.0000
  S   S532      1.0  0.87277  0.44536  0.35152  1.0000
  S   S533      1.0  0.79583  0.41786  0.40571  1.0000
  S   S534      1.0  0.81887  0.43488  0.35596  1.0000
  C   C1792     1.0  0.74226  0.45940  0.37143  1.0000
  H   H3070     1.0  0.88970  0.42713  0.29952  1.0000
  H   H3071     1.0  0.85635  0.33689  0.31960  1.0000
  H   H3072     1.0  0.76897  0.33305  0.39601  1.0000
  H   H3073     1.0  0.78908  0.59749  0.12553  1.0000
  C   C1793     1.0  0.86022  0.63527  0.05538  1.0000
  H   H3074     1.0  0.75990  0.43899  0.33219  1.0000
  C   C1794     1.0  0.83881  0.43805  0.46671  1.0000
  H   H3075     1.0  0.76128  0.44636  0.47651  1.0000
  C   C1795     1.0  0.82686  0.48729  0.34036  1.0000
  H   H3076     1.0  0.75698  0.47160  0.39498  1.0000
  H   H3077     1.0  0.84561  0.44281  0.44986  1.0000
  C   C1796     1.0  0.79021  0.36678  0.35738  1.0000
  C   C1797     1.0  0.80665  0.36227  0.35837  1.0000
  C   C1798     1.0  0.80872  0.34564  0.35275  1.0000
  C   C1799     1.0  0.79441  0.33377  0.34599  1.0000
  C   C1800     1.0  0.77840  0.33876  0.34415  1.0000
  C   C1801     1.0  0.77624  0.35509  0.35003  1.0000
  H   H3078     1.0  0.81758  0.37140  0.36375  1.0000
  H   H3079     1.0  0.82127  0.34195  0.35380  1.0000
  H   H3080     1.0  0.74582  0.40350  0.32594  1.0000
  H   H3081     1.0  0.76360  0.35856  0.34901  1.0000
  C   C1802     1.0  0.88964  0.47470  0.27975  1.0000
  C   C1803     1.0  0.90246  0.47515  0.29356  1.0000
  C   C1804     1.0  0.89699  0.46641  0.31560  1.0000
  C   C1805     1.0  0.87872  0.45703  0.32404  1.0000
  C   C1806     1.0  0.86589  0.45657  0.31022  1.0000
  C   C1807     1.0  0.87133  0.46547  0.28821  1.0000
  H   H3082     1.0  0.91657  0.48233  0.28729  1.0000
  H   H3083     1.0  0.90701  0.46690  0.32619  1.0000
  H   H3084     1.0  0.85186  0.44918  0.31643  1.0000
  H   H3085     1.0  0.86137  0.46498  0.27757  1.0000
  C   C1808     1.0  0.95040  0.55519  0.14913  1.0000
  C   C1809     1.0  0.93153  0.55191  0.15428  1.0000
  C   C1810     1.0  0.92248  0.56195  0.14135  1.0000
  C   C1811     1.0  0.93214  0.57542  0.12323  1.0000
  C   C1812     1.0  0.95103  0.57870  0.11808  1.0000
  C   C1813     1.0  0.96008  0.56858  0.13094  1.0000
  H   H3086     1.0  0.92391  0.54170  0.16825  1.0000
  H   H3087     1.0  0.90787  0.55934  0.14548  1.0000
  H   H3088     1.0  0.95861  0.58898  0.10416  1.0000
  H   H3089     1.0  0.79430  0.34490  0.46179  1.0000
  C   C1814     1.0  0.82223  0.62763  0.07233  1.0000
  H   H3090     1.0  0.81967  0.63674  0.03919  1.0000
  H   H3091     1.0  0.95963  0.46782  0.14472  1.0000
  H   H3092     1.0  0.84160  0.35852  0.41583  1.0000
  C   C1815     1.0  0.85344  0.62809  0.07759  1.0000
  C   C1816     1.0  0.83467  0.62461  0.08602  1.0000
  H   H3093     1.0  0.84729  0.35223  0.26012  1.0000
  H   H3094     1.0  0.86271  0.62563  0.08838  1.0000
  H   H3095     1.0  0.82978  0.61964  0.10335  1.0000
  C   C1817     1.0  0.84506  0.32788  0.31374  1.0000
  C   C1818     1.0  0.92364  0.40042  0.19870  1.0000
  C   C1819     1.0  0.91650  0.41553  0.19934  1.0000
  C   C1820     1.0  0.92810  0.43315  0.19731  1.0000
  C   C1821     1.0  0.94690  0.43574  0.19465  1.0000
  C   C1822     1.0  0.95407  0.42069  0.19371  1.0000
  C   C1823     1.0  0.94247  0.40304  0.19585  1.0000
  H   H3096     1.0  0.90195  0.41356  0.20139  1.0000
  H   H3097     1.0  0.92250  0.44474  0.19763  1.0000
  H   H3098     1.0  0.96862  0.42264  0.19155  1.0000
  H   H3099     1.0  0.94808  0.39147  0.19534  1.0000
  C   C1824     1.0  0.77411  0.44996  0.35673  1.0000
  C   C1825     1.0  0.77346  0.45939  0.37426  1.0000
  C   C1826     1.0  0.75758  0.46429  0.38143  1.0000
  H   H3100     1.0  0.78627  0.44618  0.35101  1.0000
  H   H3101     1.0  0.96550  0.35126  0.29413  1.0000
  H   H3102     1.0  0.81404  0.32466  0.28905  1.0000
  H   H3103     1.0  0.97805  0.59194  0.18713  1.0000
  H   H3104     1.0  0.96674  0.37057  0.22579  1.0000
  H   H3105     1.0  0.80652  0.46566  0.30056  1.0000
  H   H3106     1.0  0.82767  0.46530  0.28537  1.0000
  H   H3107     1.0  0.81789  0.47311  0.34490  1.0000
  H   H3108     1.0  0.93009  0.44680  0.14810  1.0000
  H   H3109     1.0  0.88138  0.64425  0.10997  1.0000
  C   C1827     1.0  0.80692  0.56419  0.13530  1.0000
  H   H3110     1.0  0.96631  0.51418  0.08339  1.0000
  H   H3111     1.0  0.82896  0.34117  0.43823  1.0000
  H   H3112     1.0  0.92055  0.46379  0.13596  1.0000
  H   H3113     1.0  0.82440  0.46085  0.31449  1.0000
  C   C1828     1.0  0.78088  0.37074  0.43804  1.0000
  C   C1829     1.0  0.82463  0.32670  0.27420  1.0000
  H   H3114     1.0  0.94484  0.51342  0.11120  1.0000
  C   C1830     1.0  0.78807  0.44368  0.46543  1.0000
  H   H3115     1.0  0.87199  0.33373  0.24906  1.0000
  H   H3116     1.0  0.76063  0.32688  0.45503  1.0000
  H   H3117     1.0  0.90154  0.40898  0.32815  1.0000
  H   H3118     1.0  0.78494  0.42868  0.47051  1.0000
  Fe  Fe265     1.0  0.94259  0.62480  0.02934  1.0000
  S   S535      1.0  0.97929  0.34005  0.21285  1.0000
  C   C1831     1.0  0.77710  0.58604  0.13333  1.0000
  H   H3119     1.0  0.92207  0.49019  0.15431  1.0000
  H   H3120     1.0  0.95661  0.36079  0.27212  1.0000
  H   H3121     1.0  0.73592  0.64035  0.00835  1.0000
  H   H3122     1.0  0.80262  0.45002  0.46549  1.0000
  S   S536      1.0  0.95557  0.62010  0.99666  1.0000
  H   H3123     1.0  0.76599  0.59233  0.13826  1.0000
  C   C1832     1.0  0.82509  0.42162  0.47238  1.0000
  H   H3124     1.0  0.74936  0.53658  0.11833  1.0000
  C   C1833     1.0  0.74311  0.45033  0.35359  1.0000
  H   H3125     1.0  0.77890  0.49913  0.33964  1.0000
  C   C1834     1.0  0.85215  0.52454  0.30588  1.0000
  H   H3126     1.0  0.86066  0.33777  0.28145  1.0000
  C   C1835     1.0  0.86040  0.32688  0.24182  1.0000
  H   H3127     1.0  0.82292  0.49361  0.35455  1.0000
  H   H3128     1.0  0.83028  0.35443  0.28174  1.0000
  H   H3129     1.0  0.74037  0.41152  0.40084  1.0000
  H   H3130     1.0  0.82796  0.33785  0.41035  1.0000
  C   C1836     1.0  0.83274  0.34762  0.26752  1.0000
  C   C1837     1.0  0.90125  0.39599  0.28930  1.0000
  H   H3131     1.0  0.81493  0.36557  0.40492  1.0000
  S   S537      1.0  0.93676  0.65176  0.03107  1.0000
  H   H3132     1.0  0.80330  0.56021  0.15341  1.0000
  C   C1838     1.0  0.93335  0.45966  0.13597  1.0000
  H   H3133     1.0  0.85425  0.52340  0.28829  1.0000
  H   H3134     1.0  0.95094  0.41625  0.25066  1.0000
  S   S538      1.0  0.92315  0.63756  0.08316  1.0000
  H   H3135     1.0  0.80974  0.57918  0.13157  1.0000
  N   N128      1.0  0.79375  0.34445  0.42713  1.0000
  C   C1839     1.0  0.81278  0.35710  0.42148  1.0000
  H   H3136     1.0  0.84446  0.49219  0.29614  1.0000
  S   S539      1.0  0.88407  0.64220  0.04416  1.0000
  H   H3137     1.0  0.79391  0.38153  0.43416  1.0000
  C   C1840     1.0  0.82848  0.34787  0.42157  1.0000
  H   H3138     1.0  0.78372  0.36301  0.40627  1.0000
  C   C1841     1.0  0.97596  0.50742  0.09034  1.0000
  C   C1842     1.0  0.82950  0.48979  0.29963  1.0000
  H   H3139     1.0  0.76660  0.52434  0.11680  1.0000
  H   H3140     1.0  0.82471  0.52507  0.30591  1.0000
  H   H3141     1.0  0.79568  0.47938  0.32621  1.0000
  Fe  Fe266     1.0  0.95021  0.65129  0.06076  1.0000
  H   H3142     1.0  0.98300  0.39855  0.23818  1.0000
  C   C1843     1.0  0.92596  0.50191  0.14065  1.0000
  H   H3143     1.0  0.85276  0.64383  0.02451  1.0000
  H   H3144     1.0  0.85170  0.36505  0.47476  1.0000
  H   H3145     1.0  0.97466  0.57118  0.12675  1.0000
  C   C1844     1.0  0.85205  0.32450  0.29083  1.0000
  H   H3146     1.0  0.97635  0.48254  0.11087  1.0000
  C   C1845     1.0  0.96627  0.50579  0.13895  1.0000
  H   H3147     1.0  0.76744  0.32975  0.33864  1.0000
  H   H3148     1.0  0.92425  0.42383  0.31821  1.0000
  C   C1846     1.0  0.83187  0.51743  0.31654  1.0000
  C   C1847     1.0  0.90439  0.42755  0.29673  1.0000
  N   N129      1.0  0.90858  0.41607  0.28003  1.0000
  C   C1848     1.0  0.89974  0.42040  0.26068  1.0000
  H   H3149     1.0  0.79820  0.51854  0.33415  1.0000
  C   C1849     1.0  0.92896  0.42042  0.27341  1.0000
  C   C1850     1.0  0.77533  0.45222  0.47936  1.0000
  C   C1851     1.0  0.90737  0.43987  0.24729  1.0000
  H   H3150     1.0  0.90641  0.43253  0.32976  1.0000
  C   C1852     1.0  0.93588  0.41121  0.25484  1.0000
  H   H3151     1.0  0.84635  0.47367  0.35196  1.0000
  H   H3152     1.0  0.79926  0.49891  0.30571  1.0000
  H   H3153     1.0  0.88497  0.41877  0.26608  1.0000
  C   C1853     1.0  0.75917  0.44591  0.34605  1.0000
  H   H3154     1.0  0.90871  0.39181  0.30225  1.0000
  H   H3155     1.0  0.93513  0.43542  0.26850  1.0000
  H   H3156     1.0  0.93524  0.41626  0.28752  1.0000
  H   H3157     1.0  0.91168  0.44217  0.29059  1.0000
  H   H3158     1.0  0.82535  0.35292  0.25521  1.0000
  H   H3159     1.0  0.92172  0.44249  0.23934  1.0000
  H   H3160     1.0  0.89943  0.44162  0.23402  1.0000
  H   H3161     1.0  0.90607  0.45038  0.25736  1.0000
  H   H3162     1.0  0.79334  0.58527  0.07889  1.0000
  H   H3163     1.0  0.85449  0.48604  0.32534  1.0000
  H   H3164     1.0  0.80126  0.33676  0.39581  1.0000
  C   C1854     1.0  0.93953  0.49957  0.12146  1.0000
  C   C1855     1.0  0.80290  0.49414  0.32170  1.0000
  H   H3165     1.0  0.77964  0.57872  0.14860  1.0000
  Fe  Fe267     1.0  0.91022  0.63555  0.05302  1.0000
  S   S540      1.0  0.95738  0.62492  0.05807  1.0000
  C   C1856     1.0  0.96603  0.48981  0.10696  1.0000
  N   N130      1.0  0.78447  0.56396  0.10759  1.0000
  C   C1857     1.0  0.77472  0.55098  0.09427  1.0000
  C   C1858     1.0  0.79925  0.57841  0.09179  1.0000
  C   C1859     1.0  0.77077  0.57286  0.11779  1.0000
  C   C1860     1.0  0.79162  0.55332  0.12477  1.0000
  C   C1861     1.0  0.76034  0.53365  0.10730  1.0000
  C   C1862     1.0  0.81477  0.57193  0.07994  1.0000
  C   C1863     1.0  0.73701  0.39864  0.39418  1.0000
  H   H3166     1.0  0.93068  0.41459  0.23969  1.0000
  H   H3167     1.0  0.78443  0.54575  0.08388  1.0000
  H   H3168     1.0  0.80578  0.58962  0.09976  1.0000
  C   C1864     1.0  0.82138  0.46921  0.30038  1.0000
  H   H3169     1.0  0.76568  0.58057  0.10476  1.0000
  H   H3170     1.0  0.75859  0.56255  0.12759  1.0000
  H   H3171     1.0  0.78025  0.54554  0.13829  1.0000
  H   H3172     1.0  0.79709  0.54279  0.11768  1.0000
  H   H3173     1.0  0.87659  0.39665  0.31185  1.0000
  H   H3174     1.0  0.86099  0.51772  0.31434  1.0000
  C   C1865     1.0  0.82893  0.63419  0.04999  1.0000
  H   H3175     1.0  0.82049  0.56339  0.09120  1.0000
  H   H3176     1.0  0.81043  0.56458  0.06672  1.0000
  H   H3177     1.0  0.82603  0.58412  0.07183  1.0000
  C   C1866     1.0  0.90956  0.42272  0.31933  1.0000
  H   H3178     1.0  0.85090  0.38860  0.47385  1.0000
  H   H3179     1.0  0.83039  0.52224  0.33251  1.0000
  C   C1867     1.0  0.88069  0.38938  0.29874  1.0000
  H   H3180     1.0  0.85399  0.49814  0.34804  1.0000
  H   H3181     1.0  0.87240  0.39055  0.28576  1.0000
  C   C1868     1.0  0.79388  0.50346  0.33876  1.0000
  H   H3182     1.0  0.85374  0.33677  0.23427  1.0000
  S   S541      1.0  0.90192  0.32806  0.19418  1.0000
  Fe  Fe268     1.0  0.73778  0.58562  0.07728  1.0000
  C   C1869     1.0  0.84657  0.48651  0.34118  1.0000
  C   C1870     1.0  0.95422  0.34848  0.28492  1.0000
  H   H3183     1.0  0.94307  0.47569  0.15971  1.0000
  H   H3184     1.0  0.79634  0.49935  0.35547  1.0000
  N   N131      1.0  0.95500  0.49232  0.12756  1.0000
  H   H3185     1.0  0.92018  0.62641  0.99472  1.0000
  H   H3186     1.0  0.93147  0.51463  0.14689  1.0000
  H   H3187     1.0  0.98049  0.54601  0.24701  1.0000
  H   H3188     1.0  0.77906  0.46692  0.47180  1.0000
  H   H3189     1.0  0.85508  0.46059  0.47860  1.0000
  H   H3190     1.0  0.93789  0.45641  0.11980  1.0000
  H   H3191     1.0  0.94124  0.34767  0.29569  1.0000
  H   H3192     1.0  0.81499  0.36688  0.43302  1.0000
  H   H3193     1.0  0.96496  0.32577  0.31374  1.0000
  C   C1871     1.0  0.79228  0.33072  0.41184  1.0000
  H   H3194     1.0  0.93184  0.49139  0.11073  1.0000
  C   C1872     1.0  0.79080  0.33504  0.45057  1.0000
  H   H3195     1.0  0.76649  0.34766  0.42626  1.0000
  C   C1873     1.0  0.78078  0.35599  0.42364  1.0000
  C   C1874     1.0  0.84777  0.63823  0.04170  1.0000
  H   H3196     1.0  0.77025  0.37765  0.43450  1.0000
  H   H3197     1.0  0.91304  0.50248  0.13501  1.0000
  H   H3198     1.0  0.95830  0.50636  0.15493  1.0000
  C   C1875     1.0  0.98099  0.37292  0.22683  1.0000
  H   H3199     1.0  0.90040  0.41063  0.24919  1.0000
  H   H3200     1.0  0.93256  0.39618  0.25976  1.0000
  H   H3201     1.0  0.90353  0.38771  0.27646  1.0000
  H   H3202     1.0  0.95821  0.33649  0.25604  1.0000
  Fe  Fe269     1.0  0.92683  0.32448  0.17384  1.0000
  H   H3203     1.0  0.74340  0.37455  0.36688  1.0000
  C   C1876     1.0  0.75134  0.39659  0.33908  1.0000
  H   H3204     1.0  0.83534  0.37340  0.46189  1.0000
  H   H3205     1.0  0.75361  0.52599  0.09552  1.0000
  N   N132      1.0  0.82324  0.49714  0.31960  1.0000
  H   H3206     1.0  0.95722  0.48085  0.09794  1.0000
  H   H3207     1.0  0.75802  0.40672  0.34847  1.0000
  C   C1877     1.0  0.94825  0.47412  0.14282  1.0000
  H   H3208     1.0  0.83385  0.33453  0.31374  1.0000
  H   H3209     1.0  0.76220  0.39126  0.33100  1.0000
  H   H3210     1.0  0.75017  0.39641  0.38737  1.0000
  C   C1878     1.0  0.95235  0.33153  0.27370  1.0000
  H   H3211     1.0  0.98156  0.48876  0.15534  1.0000
  H   H3212     1.0  0.97575  0.65527  0.01276  1.0000
  H   H3213     1.0  0.80047  0.32661  0.45254  1.0000
  C   C1879     1.0  0.73675  0.38061  0.35420  1.0000
  C   C1880     1.0  0.84268  0.37422  0.47593  1.0000
  H   H3214     1.0  0.98095  0.38635  0.15166  1.0000
  H   H3215     1.0  0.93752  0.32584  0.27439  1.0000
  Fe  Fe270     1.0  0.90483  0.35747  0.72207  1.0000
  S   S542      1.0  0.92634  0.35508  0.69569  1.0000
  S   S543      1.0  0.89693  0.38384  0.71446  1.0000
  H   H3216     1.0  0.95730  0.46785  0.77369  1.0000
  H   H3217     1.0  0.80426  0.61705  0.81187  1.0000
  Fe  Fe271     1.0  0.93655  0.34031  0.72241  1.0000
  C   C1881     1.0  0.81639  0.41570  0.49428  1.0000
  H   H3218     1.0  0.80511  0.62851  0.76230  1.0000
  H   H3219     1.0  0.76478  0.40835  0.54118  1.0000
  S   S544      1.0  0.91660  0.34485  0.74927  1.0000
  S   S545      1.0  0.88535  0.33105  0.71965  1.0000
  C   C1882     1.0  0.85198  0.39192  0.54076  1.0000
  S   S546      1.0  0.75723  0.62566  0.87495  1.0000
  H   H3220     1.0  0.85933  0.38251  0.54794  1.0000
  H   H3221     1.0  0.97583  0.54584  0.76415  1.0000
  S   S547      1.0  0.75879  0.61645  0.82514  1.0000
  H   H3222     1.0  0.85648  0.59795  0.95914  1.0000
  Fe  Fe272     1.0  0.77062  0.60875  0.85497  1.0000
  S   S548      1.0  0.79828  0.60279  0.85750  1.0000
  H   H3223     1.0  0.80166  0.37322  0.55635  1.0000
  H   H3224     1.0  0.97213  0.47649  0.73346  1.0000
  C   C1883     1.0  0.74809  0.60827  0.97556  1.0000
  N   N133      1.0  0.80470  0.59590  0.79240  1.0000
  Fe  Fe273     1.0  0.92274  0.47952  0.74268  1.0000
  S   S549      1.0  0.94218  0.48458  0.71118  1.0000
  S   S550      1.0  0.91496  0.45125  0.76325  1.0000
  Fe  Fe274     1.0  0.92142  0.51936  0.73788  1.0000
  S   S551      1.0  0.94051  0.52688  0.70542  1.0000
  S   S552      1.0  0.91160  0.54286  0.74914  1.0000
  Fe  Fe275     1.0  0.92411  0.50058  0.69773  1.0000
  S   S553      1.0  0.91843  0.49705  0.66361  1.0000
  Fe  Fe276     1.0  0.95643  0.51011  0.72193  1.0000
  H   H3225     1.0  0.79881  0.47424  0.49645  1.0000
  S   S554      1.0  0.90366  0.49420  0.72883  1.0000
  S   S555      1.0  0.93839  0.50393  0.75476  1.0000
  H   H3226     1.0  0.84148  0.44497  0.69168  1.0000
  S   S556      1.0  0.92939  0.57403  0.83557  1.0000
  Fe  Fe277     1.0  0.83437  0.44277  0.56172  1.0000
  S   S557      1.0  0.81718  0.41401  0.57253  1.0000
  Fe  Fe278     1.0  0.83531  0.44925  0.60915  1.0000
  S   S558      1.0  0.81772  0.42082  0.62293  1.0000
  S   S559      1.0  0.84192  0.46626  0.63567  1.0000
  Fe  Fe279     1.0  0.83530  0.41217  0.59732  1.0000
  S   S560      1.0  0.84687  0.38819  0.60468  1.0000
  Fe  Fe280     1.0  0.80118  0.42555  0.59693  1.0000
  S   S561      1.0  0.77058  0.41434  0.60366  1.0000
  S   S562      1.0  0.85405  0.44022  0.58486  1.0000
  S   S563      1.0  0.81725  0.45466  0.58480  1.0000
  H   H3227     1.0  0.84069  0.60803  0.80518  1.0000
  H   H3228     1.0  0.86089  0.40604  0.53860  1.0000
  C   C1884     1.0  0.82867  0.63270  0.84083  1.0000
  C   C1885     1.0  0.83242  0.36829  0.59967  1.0000
  C   C1886     1.0  0.83934  0.35368  0.59527  1.0000
  C   C1887     1.0  0.82795  0.33797  0.59045  1.0000
  C   C1888     1.0  0.80963  0.33690  0.58998  1.0000
  C   C1889     1.0  0.80264  0.35131  0.59504  1.0000
  C   C1890     1.0  0.81401  0.36699  0.59984  1.0000
  H   H3229     1.0  0.85361  0.35469  0.59505  1.0000
  C   C1891     1.0  0.85651  0.63488  0.89888  1.0000
  H   H3230     1.0  0.78848  0.35055  0.59469  1.0000
  H   H3231     1.0  0.80850  0.37810  0.60359  1.0000
  C   C1892     1.0  0.89699  0.48734  0.65689  1.0000
  C   C1893     1.0  0.89633  0.48135  0.63672  1.0000
  C   C1894     1.0  0.87958  0.47436  0.63024  1.0000
  C   C1895     1.0  0.86331  0.47385  0.64359  1.0000
  C   C1896     1.0  0.86396  0.47987  0.66375  1.0000
  C   C1897     1.0  0.88068  0.48625  0.67059  1.0000
  H   H3232     1.0  0.90887  0.48217  0.62600  1.0000
  H   H3233     1.0  0.87927  0.46984  0.61465  1.0000
  H   H3234     1.0  0.85143  0.47953  0.67417  1.0000
  H   H3235     1.0  0.88093  0.49068  0.68621  1.0000
  H   H3236     1.0  0.88481  0.46010  0.70665  1.0000
  H   H3237     1.0  0.82447  0.43253  0.67904  1.0000
  C   C1898     1.0  0.80878  0.61576  0.79466  1.0000
  C   C1899     1.0  0.91691  0.55153  0.77307  1.0000
  C   C1900     1.0  0.92453  0.54229  0.78850  1.0000
  C   C1901     1.0  0.92801  0.54925  0.80762  1.0000
  C   C1902     1.0  0.92414  0.56564  0.81148  1.0000
  C   C1903     1.0  0.91678  0.57505  0.79589  1.0000
  C   C1904     1.0  0.91309  0.56796  0.77687  1.0000
  H   H3238     1.0  0.92744  0.52959  0.78592  1.0000
  H   H3239     1.0  0.93363  0.54181  0.81959  1.0000
  H   H3240     1.0  0.91380  0.58770  0.79857  1.0000
  H   H3241     1.0  0.90719  0.57522  0.76506  1.0000
  H   H3242     1.0  0.86125  0.44809  0.71305  1.0000
  H   H3243     1.0  0.96028  0.60913  0.95460  1.0000
  C   C1905     1.0  0.82202  0.61424  0.85047  1.0000
  C   C1906     1.0  0.79771  0.46170  0.52988  1.0000
  C   C1907     1.0  0.83462  0.60416  0.85433  1.0000
  H   H3244     1.0  0.96289  0.38561  0.65173  1.0000
  H   H3245     1.0  0.82972  0.58984  0.86157  1.0000
  H   H3246     1.0  0.82853  0.42177  0.70424  1.0000
  H   H3247     1.0  0.83349  0.32702  0.58634  1.0000
  H   H3248     1.0  0.83115  0.35246  0.68635  1.0000
  H   H3249     1.0  0.96584  0.45100  0.70552  1.0000
  C   C1908     1.0  0.97769  0.57525  0.81183  1.0000
  H   H3250     1.0  0.81290  0.34803  0.53690  1.0000
  C   C1909     1.0  0.80014  0.62777  0.77993  1.0000
  N   N134      1.0  0.83877  0.33120  0.67057  1.0000
  C   C1910     1.0  0.75689  0.61336  0.95364  1.0000
  H   H3251     1.0  0.91838  0.57091  0.68271  1.0000
  H   H3252     1.0  0.89819  0.57187  0.64379  1.0000
  H   H3253     1.0  0.85107  0.63302  0.88353  1.0000
  H   H3254     1.0  0.81309  0.57177  0.80355  1.0000
  H   H3255     1.0  0.94977  0.33240  0.68248  1.0000
  H   H3256     1.0  0.77092  0.62143  0.94970  1.0000
  C   C1911     1.0  0.92499  0.62246  0.97954  1.0000
  H   H3257     1.0  0.82599  0.36075  0.55290  1.0000
  H   H3258     1.0  0.81924  0.64069  0.83772  1.0000
  C   C1912     1.0  0.90459  0.40213  0.72805  1.0000
  C   C1913     1.0  0.90321  0.39948  0.75081  1.0000
  C   C1914     1.0  0.90661  0.41465  0.76147  1.0000
  C   C1915     1.0  0.91146  0.43248  0.74944  1.0000
  C   C1916     1.0  0.91347  0.43506  0.72662  1.0000
  C   C1917     1.0  0.91006  0.41993  0.71601  1.0000
  H   H3259     1.0  0.89881  0.38579  0.76028  1.0000
  H   H3260     1.0  0.90509  0.41255  0.77914  1.0000
  H   H3261     1.0  0.91723  0.44868  0.71715  1.0000
  H   H3262     1.0  0.91149  0.42202  0.69839  1.0000
  H   H3263     1.0  0.94819  0.65037  0.94136  1.0000
  C   C1918     1.0  0.76262  0.44549  0.58450  1.0000
  C   C1919     1.0  0.75606  0.42709  0.59438  1.0000
  N   N135      1.0  0.97308  0.34321  0.65635  1.0000
  H   H3264     1.0  0.96294  0.56812  0.81637  1.0000
  H   H3265     1.0  0.77690  0.45232  0.58282  1.0000
  H   H3266     1.0  0.82349  0.62264  0.79139  1.0000
  H   H3267     1.0  0.78510  0.62326  0.78333  1.0000
  C   C1920     1.0  0.87739  0.64214  0.89228  1.0000
  H   H3268     1.0  0.86169  0.36224  0.50753  1.0000
  H   H3269     1.0  0.97832  0.32860  0.63012  1.0000
  H   H3270     1.0  0.81936  0.35504  0.49734  1.0000
  H   H3271     1.0  0.82358  0.35338  0.64419  1.0000
  N   N136      1.0  0.84946  0.61757  0.91578  1.0000
  C   C1921     1.0  0.79450  0.46022  0.50638  1.0000
  C   C1922     1.0  0.82916  0.61127  0.91683  1.0000
  C   C1923     1.0  0.85840  0.60348  0.90827  1.0000
  C   C1924     1.0  0.85450  0.62200  0.93721  1.0000
  H   H3272     1.0  0.95084  0.44854  0.74175  1.0000
  H   H3273     1.0  0.98006  0.47458  0.78024  1.0000
  C   C1925     1.0  0.84839  0.58320  0.91693  1.0000
  C   C1926     1.0  0.84716  0.60684  0.95758  1.0000
  H   H3274     1.0  0.96617  0.34448  0.62377  1.0000
  C   C1927     1.0  0.78476  0.58747  0.80195  1.0000
  H   H3275     1.0  0.82290  0.59805  0.92802  1.0000
  H   H3276     1.0  0.82611  0.60857  0.90050  1.0000
  H   H3277     1.0  0.86038  0.60488  0.89015  1.0000
  H   H3278     1.0  0.87229  0.60570  0.91230  1.0000
  H   H3279     1.0  0.94403  0.33548  0.65596  1.0000
  H   H3280     1.0  0.85174  0.64628  0.90458  1.0000
  C   C1928     1.0  0.85308  0.34248  0.65153  1.0000
  S   S564      1.0  0.90470  0.32440  0.65966  1.0000
  H   H3281     1.0  0.79681  0.59621  0.76052  1.0000
  H   H3282     1.0  0.95331  0.43853  0.76793  1.0000
  C   C1929     1.0  0.77215  0.42970  0.51225  1.0000
  H   H3283     1.0  0.85751  0.57474  0.91192  1.0000
  H   H3284     1.0  0.83608  0.57896  0.90952  1.0000
  H   H3285     1.0  0.84470  0.57990  0.93495  1.0000
  H   H3286     1.0  0.84047  0.39832  0.51222  1.0000
  S   S565      1.0  0.88405  0.64194  0.83244  1.0000
  Fe  Fe281     1.0  0.73458  0.59212  0.83872  1.0000
  N   N137      1.0  0.86502  0.42089  0.68554  1.0000
  C   C1930     1.0  0.87543  0.41141  0.67096  1.0000
  C   C1931     1.0  0.85889  0.40887  0.70783  1.0000
  C   C1932     1.0  0.87784  0.43894  0.68706  1.0000
  C   C1933     1.0  0.84920  0.42386  0.67512  1.0000
  C   C1934     1.0  0.88383  0.42211  0.64756  1.0000
  C   C1935     1.0  0.84688  0.38942  0.70869  1.0000
  C   C1936     1.0  0.87503  0.44645  0.70857  1.0000
  C   C1937     1.0  0.83530  0.43116  0.68866  1.0000
  H   H3287     1.0  0.88662  0.40787  0.67866  1.0000
  H   H3288     1.0  0.86656  0.39828  0.66872  1.0000
  H   H3289     1.0  0.85119  0.41515  0.71944  1.0000
  H   H3290     1.0  0.87093  0.40738  0.71516  1.0000
  H   H3291     1.0  0.89219  0.43820  0.68493  1.0000
  H   H3292     1.0  0.87774  0.44968  0.67338  1.0000
  H   H3293     1.0  0.85406  0.43376  0.65943  1.0000
  H   H3294     1.0  0.84158  0.41101  0.67059  1.0000
  H   H3295     1.0  0.87322  0.42345  0.63761  1.0000
  H   H3296     1.0  0.89286  0.43581  0.64742  1.0000
  H   H3297     1.0  0.89223  0.41438  0.63910  1.0000
  H   H3298     1.0  0.83485  0.38938  0.70085  1.0000
  H   H3299     1.0  0.85484  0.38076  0.70144  1.0000
  H   H3300     1.0  0.84179  0.38287  0.72613  1.0000
  H   H3301     1.0  0.87808  0.43776  0.72246  1.0000
  H   H3302     1.0  0.80697  0.57870  0.76816  1.0000
  H   H3303     1.0  0.79538  0.36792  0.53080  1.0000
  H   H3304     1.0  0.82029  0.62766  0.94040  1.0000
  H   H3305     1.0  0.85340  0.37016  0.65739  1.0000
  C   C1938     1.0  0.73746  0.41842  0.59676  1.0000
  H   H3306     1.0  0.86298  0.60426  0.85134  1.0000
  C   C1939     1.0  0.84423  0.44806  0.48305  1.0000
  C   C1940     1.0  0.82863  0.36866  0.49736  1.0000
  Fe  Fe282     1.0  0.92581  0.60047  0.84599  1.0000
  C   C1941     1.0  0.94757  0.61281  0.95685  1.0000
  C   C1942     1.0  0.85355  0.61233  0.84863  1.0000
  S   S566      1.0  0.90048  0.60401  0.86552  1.0000
  H   H3307     1.0  0.94194  0.60844  0.92479  1.0000
  H   H3308     1.0  0.97679  0.55093  0.70912  1.0000
  H   H3309     1.0  0.77414  0.43022  0.54723  1.0000
  H   H3310     1.0  0.97374  0.59648  0.83102  1.0000
  H   H3311     1.0  0.75148  0.50819  0.58926  1.0000
  H   H3312     1.0  0.93755  0.56082  0.65623  1.0000
  H   H3313     1.0  0.78592  0.46319  0.54087  1.0000
  H   H3314     1.0  0.74748  0.44946  0.51127  1.0000
  C   C1943     1.0  0.86300  0.36174  0.65461  1.0000
  C   C1944     1.0  0.93724  0.61246  0.93995  1.0000
  H   H3315     1.0  0.84186  0.58552  0.81343  1.0000
  C   C1945     1.0  0.75064  0.45503  0.57679  1.0000
  H   H3316     1.0  0.81989  0.37819  0.49622  1.0000
  H   H3317     1.0  0.80492  0.45384  0.49943  1.0000
  H   H3318     1.0  0.96313  0.61908  0.76531  1.0000
  C   C1946     1.0  0.97592  0.57211  0.77331  1.0000
  C   C1947     1.0  0.80789  0.59328  0.76892  1.0000
  H   H3319     1.0  0.81481  0.42107  0.52730  1.0000
  H   H3320     1.0  0.86052  0.39163  0.50680  1.0000
  H   H3321     1.0  0.94361  0.54952  0.63447  1.0000
  C   C1948     1.0  0.92083  0.61729  0.94278  1.0000
  C   C1949     1.0  0.82506  0.34111  0.67807  1.0000
  H   H3322     1.0  0.93447  0.53644  0.66102  1.0000
  C   C1950     1.0  0.84096  0.33663  0.51665  1.0000
  H   H3323     1.0  0.83968  0.39126  0.55263  1.0000
  H   H3324     1.0  0.73381  0.50128  0.62450  1.0000
  S   S567      1.0  0.94350  0.61226  0.86922  1.0000
  Fe  Fe283     1.0  0.91888  0.61871  0.88609  1.0000
  S   S568      1.0  0.90787  0.61815  0.92172  1.0000
  C   C1951     1.0  0.91463  0.62202  0.96273  1.0000
  H   H3325     1.0  0.75113  0.42393  0.54201  1.0000
  C   C1952     1.0  0.86023  0.63084  0.83926  1.0000
  C   C1953     1.0  0.93346  0.54825  0.64940  1.0000
  H   H3326     1.0  0.77595  0.48620  0.51007  1.0000
  H   H3327     1.0  0.97690  0.41580  0.77188  1.0000
  H   H3328     1.0  0.78331  0.55893  0.81565  1.0000
  H   H3329     1.0  0.97560  0.63074  0.89008  1.0000
  C   C1954     1.0  0.77757  0.56665  0.80344  1.0000
  H   H3330     1.0  0.90187  0.62560  0.96513  1.0000
  N   N138      1.0  0.97874  0.45148  0.74558  1.0000
  H   H3331     1.0  0.80353  0.61783  0.92533  1.0000
  H   H3332     1.0  0.78454  0.42506  0.50810  1.0000
  C   C1955     1.0  0.97318  0.36218  0.66037  1.0000
  C   C1956     1.0  0.84763  0.64090  0.83526  1.0000
  C   C1957     1.0  0.91436  0.54478  0.64329  1.0000
  H   H3333     1.0  0.80241  0.33862  0.65977  1.0000
  H   H3334     1.0  0.91168  0.53102  0.63848  1.0000
  C   C1958     1.0  0.76095  0.45709  0.51430  1.0000
  H   H3335     1.0  0.91342  0.54211  0.68760  1.0000
  H   H3336     1.0  0.88467  0.54944  0.70405  1.0000
  C   C1959     1.0  0.84885  0.35650  0.51966  1.0000
  C   C1960     1.0  0.82091  0.36213  0.53723  1.0000
  H   H3337     1.0  0.85319  0.35560  0.53592  1.0000
  Fe  Fe284     1.0  0.90730  0.63127  0.84367  1.0000
  H   H3338     1.0  0.90056  0.52167  0.68191  1.0000
  H   H3339     1.0  0.91550  0.55465  0.62805  1.0000
  C   C1961     1.0  0.97792  0.64027  0.90187  1.0000
  S   S569      1.0  0.84334  0.45447  0.52531  1.0000
  C   C1962     1.0  0.81826  0.62447  0.92405  1.0000
  C   C1963     1.0  0.95454  0.42168  0.74306  1.0000
  H   H3340     1.0  0.81061  0.58552  0.82369  1.0000
  H   H3341     1.0  0.88856  0.53803  0.61863  1.0000
  H   H3342     1.0  0.83323  0.59842  0.95803  1.0000
  C   C1964     1.0  0.90040  0.53602  0.68259  1.0000
  H   H3343     1.0  0.83721  0.33580  0.50029  1.0000
  H   H3344     1.0  0.84273  0.59312  0.78527  1.0000
  N   N139      1.0  0.89889  0.54554  0.66049  1.0000
  N   N140      1.0  0.83641  0.36885  0.51812  1.0000
  H   H3345     1.0  0.76167  0.42163  0.50420  1.0000
  C   C1965     1.0  0.80695  0.37348  0.53890  1.0000
  C   C1966     1.0  0.97340  0.38115  0.71198  1.0000
  H   H3346     1.0  0.97999  0.41007  0.69989  1.0000
  H   H3347     1.0  0.92479  0.58482  0.65565  1.0000
  H   H3348     1.0  0.88045  0.52030  0.65680  1.0000
  H   H3349     1.0  0.87796  0.55511  0.62755  1.0000
  C   C1967     1.0  0.91326  0.57769  0.66916  1.0000
  H   H3350     1.0  0.88851  0.52900  0.71714  1.0000
  H   H3351     1.0  0.95661  0.59263  0.79475  1.0000
  C   C1968     1.0  0.76522  0.42301  0.53706  1.0000
  H   H3352     1.0  0.94424  0.41176  0.75614  1.0000
  H   H3353     1.0  0.95920  0.37885  0.71071  1.0000
  C   C1969     1.0  0.88137  0.53511  0.65465  1.0000
  C   C1970     1.0  0.88534  0.53555  0.70176  1.0000
  C   C1971     1.0  0.89800  0.56492  0.66063  1.0000
  H   H3354     1.0  0.90779  0.58816  0.67626  1.0000
  C   C1972     1.0  0.87831  0.54069  0.63111  1.0000
  H   H3355     1.0  0.87186  0.52717  0.70003  1.0000
  H   H3356     1.0  0.94798  0.42224  0.72836  1.0000
  S   S570      1.0  0.96626  0.34395  0.72425  1.0000
  C   C1973     1.0  0.83626  0.59400  0.80180  1.0000
  H   H3357     1.0  0.81408  0.33195  0.69107  1.0000
  H   H3358     1.0  0.83461  0.59538  0.74970  1.0000
  H   H3359     1.0  0.86933  0.53633  0.66574  1.0000
  H   H3360     1.0  0.86489  0.53216  0.62922  1.0000
  H   H3361     1.0  0.88474  0.56538  0.66986  1.0000
  H   H3362     1.0  0.85087  0.63451  0.94108  1.0000
  C   C1974     1.0  0.97111  0.60893  0.76389  1.0000
  C   C1975     1.0  0.74771  0.60819  0.93672  1.0000
  H   H3363     1.0  0.96810  0.36175  0.67797  1.0000
  C   C1976     1.0  0.82177  0.42570  0.51057  1.0000
  H   H3364     1.0  0.88070  0.65479  0.87980  1.0000
  H   H3365     1.0  0.81287  0.38804  0.53183  1.0000
  S   S571      1.0  0.74730  0.58343  0.86725  1.0000
  C   C1977     1.0  0.81542  0.58619  0.80594  1.0000
  H   H3366     1.0  0.95058  0.64324  0.90466  1.0000
  C   C1978     1.0  0.95904  0.44061  0.75017  1.0000
  H   H3367     1.0  0.81177  0.36119  0.66507  1.0000
  C   C1979     1.0  0.83598  0.44175  0.50512  1.0000
  H   H3368     1.0  0.75956  0.45477  0.53234  1.0000
  H   H3369     1.0  0.83448  0.61513  0.76178  1.0000
  S   S572      1.0  0.93194  0.62705  0.82272  1.0000
  H   H3370     1.0  0.75182  0.48135  0.51723  1.0000
  H   H3371     1.0  0.82142  0.63721  0.91183  1.0000
  H   H3372     1.0  0.74355  0.64624  0.97079  1.0000
  H   H3373     1.0  0.75479  0.61211  0.92000  1.0000
  H   H3374     1.0  0.87271  0.36876  0.63928  1.0000
  H   H3375     1.0  0.97150  0.49056  0.76469  1.0000
  C   C1980     1.0  0.97158  0.47598  0.76752  1.0000
  C   C1981     1.0  0.96470  0.65242  0.90025  1.0000
  C   C1982     1.0  0.82616  0.60455  0.75434  1.0000
  H   H3376     1.0  0.80871  0.47427  0.52940  1.0000
  H   H3377     1.0  0.78159  0.59020  0.81888  1.0000
  C   C1983     1.0  0.84734  0.38804  0.51838  1.0000
  H   H3378     1.0  0.96600  0.41564  0.73996  1.0000
  H   H3379     1.0  0.85259  0.65520  0.82795  1.0000
  S   S573      1.0  0.92489  0.64634  0.86506  1.0000
  C   C1984     1.0  0.94159  0.61805  0.97658  1.0000
  Fe  Fe285     1.0  0.90751  0.32797  0.69455  1.0000
  Fe  Fe286     1.0  0.94878  0.63923  0.84677  1.0000
  H   H3380     1.0  0.82357  0.61168  0.73892  1.0000
  C   C1985     1.0  0.97110  0.59910  0.78712  1.0000
  H   H3381     1.0  0.96441  0.59938  0.75385  1.0000
  H   H3382     1.0  0.75578  0.46922  0.56907  1.0000
  H   H3383     1.0  0.76261  0.56263  0.80924  1.0000
  H   H3384     1.0  0.94735  0.36474  0.65001  1.0000
  H   H3385     1.0  0.77986  0.56236  0.78736  1.0000
  H   H3386     1.0  0.77597  0.59361  0.79234  1.0000
  C   C1986     1.0  0.97746  0.34249  0.63237  1.0000
  H   H3387     1.0  0.88350  0.63241  0.88454  1.0000
  C   C1987     1.0  0.96198  0.37207  0.64689  1.0000
  C   C1988     1.0  0.95405  0.33118  0.66516  1.0000
  Fe  Fe287     1.0  0.74347  0.63135  0.84629  1.0000
  H   H3388     1.0  0.80214  0.44988  0.53723  1.0000
  C   C1989     1.0  0.76295  0.47762  0.50719  1.0000
  H   H3389     1.0  0.80403  0.64192  0.78328  1.0000
  N   N141      1.0  0.77584  0.44988  0.50361  1.0000
  H   H3390     1.0  0.86954  0.62572  0.93601  1.0000
  H   H3391     1.0  0.84748  0.34447  0.63635  1.0000
  H   H3392     1.0  0.80538  0.40331  0.49865  1.0000
  C   C1990     1.0  0.81521  0.34876  0.66068  1.0000
  C   C1991     1.0  0.84851  0.32735  0.68931  1.0000
  H   H3393     1.0  0.85153  0.32917  0.51792  1.0000
  C   C1992     1.0  0.97959  0.55320  0.77763  1.0000
  H   H3394     1.0  0.87112  0.36142  0.66788  1.0000
  H   H3395     1.0  0.97090  0.54468  0.79294  1.0000
  H   H3396     1.0  0.97078  0.33111  0.78437  1.0000
  H   H3397     1.0  0.96093  0.56920  0.77394  1.0000
  C   C1993     1.0  0.73661  0.50367  0.58954  1.0000
  H   H3398     1.0  0.82919  0.32912  0.52964  1.0000
  H   H3399     1.0  0.85446  0.34008  0.69534  1.0000
  H   H3400     1.0  0.96741  0.37461  0.62909  1.0000
  H   H3401     1.0  0.97932  0.33063  0.68653  1.0000
  H   H3402     1.0  0.88405  0.64573  0.90626  1.0000
  H   H3403     1.0  0.97556  0.63164  0.91821  1.0000
  H   H3404     1.0  0.86358  0.33520  0.64749  1.0000
  H   H3405     1.0  0.98002  0.57807  0.84540  1.0000
  H   H3406     1.0  0.97108  0.64956  0.94100  1.0000
  H   H3407     1.0  0.97599  0.61004  0.79653  1.0000
  H   H3408     1.0  0.84617  0.61322  0.97243  1.0000
  N   N142      1.0  0.98200  0.58522  0.78845  1.0000
  H   H3409     1.0  0.73360  0.51255  0.57579  1.0000
  H   H3410     1.0  0.98220  0.57831  0.75600  1.0000
  C   C1994     1.0  0.98065  0.45726  0.70362  1.0000
  C   C1995     1.0  0.98256  0.58713  0.82922  1.0000
  H   H3411     1.0  0.98204  0.44660  0.77951  1.0000
  C   C1996     1.0  0.97962  0.47135  0.74574  1.0000
  C   C1997     1.0  0.98016  0.36647  0.71899  1.0000
  H   H3412     1.0  0.76150  0.48101  0.48987  1.0000
  H   H3413     1.0  0.73598  0.65288  0.94605  1.0000
  S   S574      1.0  0.97958  0.65353  0.83738  1.0000
  Fe  Fe288     1.0  0.73344  0.60097  0.88534  1.0000
  H   H3414     1.0  0.92316  0.68308  0.10234  1.0000
  H   H3415     1.0  0.87465  0.70471  0.07892  1.0000
  H   H3416     1.0  0.87203  0.70717  0.10700  1.0000
  H   H3417     1.0  0.88110  0.66460  0.12042  1.0000
  H   H3418     1.0  0.95092  0.70689  0.07509  1.0000
  H   H3419     1.0  0.75658  0.98407  0.05006  1.0000
  H   H3420     1.0  0.93439  0.71772  0.06761  1.0000
  C   C1998     1.0  0.93699  0.70801  0.08070  1.0000
  H   H3421     1.0  0.91296  0.67536  0.04140  1.0000
  N   N143      1.0  0.90445  0.68829  0.08101  1.0000
  C   C1999     1.0  0.87642  0.69875  0.09536  1.0000
  H   H3422     1.0  0.92949  0.67979  0.07574  1.0000
  H   H3423     1.0  0.74727  0.67756  0.98998  1.0000
  H   H3424     1.0  0.93126  0.69556  0.04035  1.0000
  H   H3425     1.0  0.90870  0.71158  0.05483  1.0000
  C   C2000     1.0  0.91658  0.69037  0.03992  1.0000
  H   H3426     1.0  0.89055  0.69282  0.05375  1.0000
  H   H3427     1.0  0.74336  0.97263  0.99803  1.0000
  H   H3428     1.0  0.91442  0.69599  0.02350  1.0000
  H   H3429     1.0  0.86712  0.68481  0.10046  1.0000
  H   H3430     1.0  0.93690  0.71400  0.09587  1.0000
  H   H3431     1.0  0.87999  0.66728  0.07978  1.0000
  C   C2001     1.0  0.89643  0.69910  0.09605  1.0000
  C   C2002     1.0  0.74511  0.66950  0.00654  1.0000
  C   C2003     1.0  0.90454  0.69640  0.05762  1.0000
  C   C2004     1.0  0.92340  0.68886  0.08501  1.0000
  H   H3432     1.0  0.90433  0.71373  0.09210  1.0000
  S   S575      1.0  0.96925  0.67750  0.06726  1.0000
  C   C2005     1.0  0.89331  0.66865  0.08532  1.0000
  H   H3433     1.0  0.89756  0.69452  0.11332  1.0000
  C   C2006     1.0  0.74303  0.98458  0.05666  1.0000
  H   H3434     1.0  0.90019  0.66060  0.07542  1.0000
  H   H3435     1.0  0.74297  0.67823  0.01884  1.0000
  H   H3436     1.0  0.75819  0.66609  0.00770  1.0000
  C   C2007     1.0  0.88938  0.65854  0.10926  1.0000
  H   H3437     1.0  0.90196  0.65766  0.11549  1.0000
  H   H3438     1.0  0.97918  0.67933  0.95301  1.0000
  C   C2008     1.0  0.73617  0.98240  0.95759  1.0000
  H   H3439     1.0  0.98091  0.69209  0.83689  1.0000
  H   H3440     1.0  0.95370  0.67929  0.87289  1.0000
  C   C2009     1.0  0.95626  0.68848  0.88495  1.0000
  H   H3441     1.0  0.95586  0.68089  0.95356  1.0000
  H   H3442     1.0  0.97004  0.69796  0.87977  1.0000
  H   H3443     1.0  0.94644  0.69688  0.88404  1.0000
  H   H3444     1.0  0.75886  0.95533  0.86542  1.0000
  H   H3445     1.0  0.95202  0.68766  0.91966  1.0000
  N   N144      1.0  0.96701  0.66766  0.91343  1.0000
  H   H3446     1.0  0.96652  0.65790  0.88254  1.0000
  C   C2010     1.0  0.74571  0.95751  0.86391  1.0000
  H   H3447     1.0  0.73539  0.93108  0.85528  1.0000
  C   C2011     1.0  0.95315  0.67783  0.90855  1.0000
  H   H3448     1.0  0.96077  0.66304  0.97088  1.0000
  H   H3449     1.0  0.75050  0.98254  0.95882  1.0000
  H   H3450     1.0  0.97905  0.70187  0.92325  1.0000
  C   C2012     1.0  0.96481  0.67162  0.95425  1.0000
  H   H3451     1.0  0.93927  0.66816  0.91177  1.0000
  H   H3452     1.0  0.73899  0.97870  0.81801  1.0000
  H   H3453     1.0  0.77006  0.97953  0.81807  1.0000
  C   C2013     1.0  0.74267  0.97449  0.86628  1.0000
  C   C2014     1.0  0.73714  0.97787  0.77229  1.0000
  H   H3454     1.0  0.76805  0.98283  0.78990  1.0000
  S   S576      1.0  0.74261  0.66072  0.83784  1.0000
  C   C2015     1.0  0.76743  0.98916  0.80472  1.0000
  C   C2016     1.0  0.96253  0.65889  0.93729  1.0000
  H   H3455     1.0  0.74814  0.97369  0.76267  1.0000
  H   H3456     1.0  0.73553  0.69563  0.83484  1.0000
