data_image0
_chemical_formula_structural       CFeS2FeS2FeSFeS3FeS2FeSHFeSFeS3H3CH4C2HC3H3C2SH2C6H4C6H5C3H5CHCH4CHC2H2NH2NC5H2CH4CH2CH5CHSH2C2NC8H20CH2CHCH5CHC2H3CHCH3CH5C2H3CHSH4CHCHC3H2NH7CHCH2CH2FeSHFeS2Fe2SHSHFeS2FeSHFe2HCSH2C3H2C7H3C3H2FeS2H2FeSFeHS2FeS2FeS2Fe2SHSH2C2H3C6SHC3H6NH2CH2CHC2H2CH3CHCH5CH3SH3CH6SH4SH3CHFeH3C3H4NC6H4SHCH2SCH4CH2CH4FeSHFeS2FeSFeS5HFeS2FeH2FeHFeCS2CH4CHC2H4C2H2C2H4C6H4C6H4C2H6SC6H3CH2CS2HC3H3C2H2CH5CNH2C2H2C2NSC4H2CHCHCH9CHCH5CHCH2CHCHCHSH2NHCH4CH5CNC4H3C2H3NFeS2FeS2FeSFeS3FeS2FeS2FeCFeCS2C4HCH2C3H3C2H6CH2NC7H4C3HC3H4C5HCH3CHCH2NHNCH5CH9CHC2HCH3C2H2CHSHSH3C2HCH2C2H5CHCH2CHCH3CH2CNCHC2H2C2H2C2HCH5SHC2H2CH5CHCHFeS2HSFeSFeS3FeS2FeSCHFeS3CSHC2H4C2HCSHC6HCH2C3HC2H3NC3HC3H2CFeC4H3CH4CNC8H24CFeHCHC4H5CH2CH3CH2CSC2HC2H3C3H10CNC2SH3C2HCH2CHSCHSC2H6CHSNHC4H2CH3CH4CH3CH4CH2C2H2CH2CH3NC2H6CH2CH2C2H2CH7CH2C2HSCHC2HNH2NH2CH6C2H7CHC2H4CHC2H5CH4C3HC2HCH2SCH4CH2CH4CH5C2H5CHSCFeSFeHSFeS2FeS2FeHFeS2CH2SHC6H4C6SH3C3HCH2C4HC2H4C4SC2NFeH4C3H2CNH3C3HCH4FeCHNH7CH11NH3CHCH2C2H6C2H3CH8C2H2NC2SH2CH2CSH2CHCHSH5CH2FeSH2SCFeSFeS2FeS2FeS2FeHFeHS2FeHCH2C3H2C6H4C6H4C5H2CHC6H2SH2CHCH3CH2C2H3CSCH2CHCHCH3CHCHCH2CHCHCHCH2CH4CHSNHCH4C2H2CH4CH2CH6CHC2H8CH5CN2HSH5NH2CH2SH3NHCHCH4CH4SH2CHCHC2H4SFeS2FeS2FeSFeS3HFeS2FeS2FeHFeHS2H2CH8C9H4C2HC6H4C2H4SNC8H21CNCSH3C3H6CH11NH3C2H2CH4CH12CHC2HCH3CHCHCHCH4NCNH2C5HC2H2CH2C3HCH4CH2S2HCHCH4FeS2FeSFeNS2FeS2FeHFeH2SHFeCH2C8HSC3H4FeS2HCFeHFeS3FeS2FeSHFeNHSCHC3NHC7SH5C3H3CHC2H2C2H4FeH2CH2SH2CH5NHC2HCHCH6CHCH3NC2H6CH4CH4CHC2FeHCH3C2HCHSHCSHCSHFeH6C2SCH5CH2CHC2H3C2H2CH3CH2SH3NCH4CHCH3FeS2FeS2FeSFeCS3FeS2FeHFeS2HS2H2C2H4CHSCHC6H4C6H4C2H4CNC7H19CH7C3HCH3CH3CH4NCH2C3NCH4CH4CHCH3CH5FeCHNH2CNHCH3C2H2C2H4CH5CH3C2HCH5
_chemical_formula_sum              "C672 Fe96 S192 H1152 N48"
_cell_length_a       50.5875
_cell_length_b       50.8642
_cell_length_c       48.7953
_cell_angle_alpha    89.8858
_cell_angle_beta     90.071
_cell_angle_gamma    119.903

_space_group_name_H-M_alt    "P 1"
_space_group_IT_number       1

loop_
  _space_group_symop_operation_xyz
  'x, y, z'

loop_
  _atom_site_type_symbol
  _atom_site_label
  _atom_site_symmetry_multiplicity
  _atom_site_fract_x
  _atom_site_fract_y
  _atom_site_fract_z
  _atom_site_occupancy
  C   C1        1.0  0.44780  0.99702  0.19231  1.0000
  Fe  Fe1       1.0  0.35992  0.37045  0.09798  1.0000
  S   S1        1.0  0.37033  0.41883  0.09689  1.0000
  S   S2        1.0  0.34406  0.34207  0.05858  1.0000
  Fe  Fe2       1.0  0.36889  0.37242  0.16141  1.0000
  S   S3        1.0  0.37976  0.42094  0.16394  1.0000
  S   S4        1.0  0.36532  0.34248  0.19816  1.0000
  Fe  Fe3       1.0  0.34038  0.40706  0.13434  1.0000
  S   S5        1.0  0.30676  0.42462  0.13953  1.0000
  Fe  Fe4       1.0  0.40824  0.42798  0.12622  1.0000
  S   S6        1.0  0.45766  0.46314  0.11815  1.0000
  S   S7        1.0  0.32771  0.35810  0.13406  1.0000
  S   S8        1.0  0.39956  0.38000  0.12522  1.0000
  Fe  Fe5       1.0  0.12901  0.38257  0.12323  1.0000
  S   S9        1.0  0.07907  0.34765  0.12956  1.0000
  S   S10       1.0  0.16211  0.36382  0.12344  1.0000
  Fe  Fe6       1.0  0.11411  0.43292  0.11380  1.0000
  S   S11       1.0  0.06418  0.40189  0.11943  1.0000
  H   H1        1.0  0.09787  0.44199  0.23258  1.0000
  Fe  Fe7       1.0  0.07674  0.38288  0.15575  1.0000
  S   S12       1.0  0.04344  0.37414  0.19133  1.0000
  Fe  Fe8       1.0  0.06978  0.36897  0.09295  1.0000
  S   S13       1.0  0.02947  0.34322  0.06361  1.0000
  S   S14       1.0  0.12713  0.41664  0.15186  1.0000
  S   S15       1.0  0.11937  0.40132  0.08481  1.0000
  H   H2        1.0  0.25391  0.35081  0.02110  1.0000
  H   H3        1.0  0.28932  0.05893  0.31452  1.0000
  H   H4        1.0  0.45409  0.00547  0.02727  1.0000
  C   C2        1.0  0.39027  0.01743  0.26536  1.0000
  H   H5        1.0  0.05456  0.43563  0.25580  1.0000
  H   H6        1.0  0.40492  0.03848  0.27586  1.0000
  H   H7        1.0  0.02457  0.31637  0.16672  1.0000
  H   H8        1.0  0.31162  0.03208  0.29362  1.0000
  C   C3        1.0  0.03682  0.35886  0.22516  1.0000
  C   C4        1.0  0.02630  0.33925  0.28081  1.0000
  H   H9        1.0  0.44762  0.01394  0.20647  1.0000
  C   C5        1.0  0.03396  0.41454  0.30746  1.0000
  C   C6        1.0  0.05189  0.34248  0.26641  1.0000
  C   C7        1.0  0.05718  0.35224  0.23878  1.0000
  H   H10       1.0  0.45658  0.00541  0.25075  1.0000
  H   H11       1.0  0.06807  0.33794  0.27687  1.0000
  H   H12       1.0  0.07735  0.35530  0.22827  1.0000
  C   C8        1.0  0.02828  0.33610  0.02779  1.0000
  C   C9        1.0  0.06516  0.47688  0.32703  1.0000
  S   S16       1.0  0.13225  0.48179  0.10065  1.0000
  H   H13       1.0  0.29366  0.09358  0.30141  1.0000
  H   H14       1.0  0.07618  0.35207  0.02276  1.0000
  C   C10       1.0  0.20240  0.38137  0.12795  1.0000
  C   C11       1.0  0.21633  0.36334  0.12639  1.0000
  C   C12       1.0  0.24812  0.37609  0.12989  1.0000
  C   C13       1.0  0.26649  0.40714  0.13503  1.0000
  C   C14       1.0  0.25260  0.42516  0.13657  1.0000
  C   C15       1.0  0.22081  0.41243  0.13299  1.0000
  H   H15       1.0  0.20234  0.33930  0.12247  1.0000
  H   H16       1.0  0.25836  0.36191  0.12845  1.0000
  H   H17       1.0  0.26652  0.44921  0.14051  1.0000
  H   H18       1.0  0.21054  0.42664  0.13425  1.0000
  C   C16       1.0  0.40753  0.36555  0.28520  1.0000
  C   C17       1.0  0.39081  0.33549  0.27621  1.0000
  C   C18       1.0  0.37865  0.32896  0.24937  1.0000
  C   C19       1.0  0.38330  0.35230  0.23101  1.0000
  C   C20       1.0  0.40051  0.38241  0.23984  1.0000
  C   C21       1.0  0.41230  0.38892  0.26680  1.0000
  H   H19       1.0  0.38681  0.31723  0.29005  1.0000
  H   H20       1.0  0.36535  0.30558  0.24286  1.0000
  H   H21       1.0  0.40434  0.40064  0.22605  1.0000
  H   H22       1.0  0.42515  0.41225  0.27347  1.0000
  H   H23       1.0  0.05913  0.44871  0.03677  1.0000
  C   C22       1.0  0.36759  0.34695  0.02965  1.0000
  C   C23       1.0  0.39912  0.36670  0.03016  1.0000
  C   C24       1.0  0.38424  0.09304  0.29474  1.0000
  H   H24       1.0  0.40975  0.37970  0.04847  1.0000
  H   H25       1.0  0.42912  0.01308  0.06494  1.0000
  H   H26       1.0  0.02755  0.39021  0.30722  1.0000
  H   H27       1.0  0.22692  0.41219  0.05162  1.0000
  H   H28       1.0  0.35185  0.00930  0.01112  1.0000
  C   C25       1.0  0.05430  0.34263  0.01259  1.0000
  H   H29       1.0  0.49046  0.99714  0.22321  1.0000
  C   C26       1.0  0.38750  0.26623  0.03751  1.0000
  H   H30       1.0  0.00531  0.40474  0.27072  1.0000
  H   H31       1.0  0.32541  0.43812  0.08302  1.0000
  H   H32       1.0  0.26978  0.32864  0.05497  1.0000
  H   H33       1.0  0.23449  0.36531  0.05757  1.0000
  C   C27       1.0  0.33604  0.04613  0.28811  1.0000
  H   H34       1.0  0.37295  0.21472  0.00888  1.0000
  C   C28       1.0  0.39074  0.01609  0.23645  1.0000
  C   C29       1.0  0.35427  0.33029  0.00556  1.0000
  H   H35       1.0  0.44145  0.38478  0.00778  1.0000
  H   H36       1.0  0.11024  0.43712  0.30634  1.0000
  N   N1        1.0  0.06660  0.43429  0.29840  1.0000
  H   H37       1.0  0.29374  0.36459  0.01806  1.0000
  H   H38       1.0  0.42680  0.13582  0.29928  1.0000
  N   N2        1.0  0.28210  0.39060  0.04581  1.0000
  C   C30       1.0  0.29259  0.37687  0.06778  1.0000
  C   C31       1.0  0.44219  0.03324  0.05155  1.0000
  C   C32       1.0  0.09152  0.48920  0.13278  1.0000
  C   C33       1.0  0.23998  0.40514  0.03810  1.0000
  C   C34       1.0  0.27166  0.34255  0.07312  1.0000
  H   H39       1.0  0.32892  0.42273  0.03533  1.0000
  H   H40       1.0  0.03070  0.41874  0.32909  1.0000
  C   C35       1.0  0.03535  0.48786  0.07963  1.0000
  H   H41       1.0  0.36020  0.05564  0.24873  1.0000
  H   H42       1.0  0.29529  0.38830  0.08781  1.0000
  H   H43       1.0  0.38451  0.28154  0.05182  1.0000
  H   H44       1.0  0.46382  0.04839  0.06215  1.0000
  C   C36       1.0  0.06826  0.42842  0.26830  1.0000
  H   H45       1.0  0.36662  0.05382  0.33552  1.0000
  H   H46       1.0  0.02456  0.46813  0.09381  1.0000
  C   C37       1.0  0.27645  0.37204  0.02005  1.0000
  H   H47       1.0  0.24870  0.33699  0.08035  1.0000
  H   H48       1.0  0.34194  0.10825  0.32192  1.0000
  H   H49       1.0  0.28191  0.33541  0.08958  1.0000
  H   H50       1.0  0.41120  0.27087  0.04008  1.0000
  H   H51       1.0  0.05829  0.40378  0.26464  1.0000
  C   C38       1.0  0.01071  0.35468  0.23927  1.0000
  H   H52       1.0  0.07818  0.39995  0.30928  1.0000
  S   S17       1.0  0.02197  0.32919  0.31627  1.0000
  H   H53       1.0  0.42812  0.04436  0.04977  1.0000
  H   H54       1.0  0.34585  0.03127  0.29249  1.0000
  C   C39       1.0  0.08622  0.42438  0.31351  1.0000
  C   C40       1.0  0.40527  0.12222  0.31090  1.0000
  N   N3        1.0  0.29667  0.36779  0.22408  1.0000
  C   C41       1.0  0.28976  0.33998  0.20756  1.0000
  C   C42       1.0  0.32481  0.37594  0.24085  1.0000
  C   C43       1.0  0.30284  0.39306  0.20417  1.0000
  C   C44       1.0  0.26921  0.36013  0.24156  1.0000
  C   C45       1.0  0.26336  0.32919  0.18675  1.0000
  C   C46       1.0  0.32174  0.35221  0.26227  1.0000
  C   C47       1.0  0.32250  0.42594  0.21445  1.0000
  C   C48       1.0  0.27232  0.38399  0.26270  1.0000
  H   H55       1.0  0.31026  0.34392  0.19578  1.0000
  H   H56       1.0  0.28392  0.32018  0.22105  1.0000
  H   H57       1.0  0.33301  0.39744  0.25223  1.0000
  H   H58       1.0  0.34412  0.38039  0.22702  1.0000
  H   H59       1.0  0.31496  0.39159  0.18569  1.0000
  H   H60       1.0  0.28112  0.39085  0.19633  1.0000
  H   H61       1.0  0.24955  0.35615  0.22842  1.0000
  H   H62       1.0  0.26074  0.33805  0.25235  1.0000
  H   H63       1.0  0.24104  0.32107  0.19693  1.0000
  H   H64       1.0  0.26735  0.34695  0.17154  1.0000
  H   H65       1.0  0.26175  0.30970  0.17507  1.0000
  H   H66       1.0  0.31935  0.33145  0.25251  1.0000
  H   H67       1.0  0.34301  0.36186  0.27464  1.0000
  H   H68       1.0  0.30276  0.34626  0.27679  1.0000
  H   H69       1.0  0.31416  0.43035  0.23382  1.0000
  H   H70       1.0  0.32205  0.44167  0.19884  1.0000
  H   H71       1.0  0.34674  0.43203  0.21670  1.0000
  H   H72       1.0  0.26666  0.40049  0.25330  1.0000
  H   H73       1.0  0.29497  0.39629  0.27252  1.0000
  H   H74       1.0  0.25623  0.37234  0.27988  1.0000
  C   C49       1.0  0.00547  0.34497  0.26686  1.0000
  H   H75       1.0  0.43480  0.99668  0.17382  1.0000
  H   H76       1.0  0.29521  0.06723  0.27843  1.0000
  C   C50       1.0  0.99643  0.27328  0.12846  1.0000
  H   H77       1.0  0.48670  0.41867  0.31139  1.0000
  C   C51       1.0  0.30761  0.42271  0.04128  1.0000
  H   H78       1.0  0.29548  0.44594  0.07314  1.0000
  H   H79       1.0  0.42329  0.00930  0.01483  1.0000
  H   H80       1.0  0.44358  0.30769  0.00637  1.0000
  H   H81       1.0  0.39432  0.29748  0.00477  1.0000
  H   H82       1.0  0.11349  0.46873  0.26007  1.0000
  C   C52       1.0  0.33767  0.05082  0.25676  1.0000
  H   H83       1.0  0.04100  0.47053  0.32373  1.0000
  C   C53       1.0  0.33676  0.09385  0.30327  1.0000
  C   C54       1.0  0.99984  0.30051  0.17035  1.0000
  H   H84       1.0  0.46319  0.45208  0.32979  1.0000
  H   H85       1.0  0.33303  0.46762  0.05943  1.0000
  H   H86       1.0  0.33342  0.06936  0.25056  1.0000
  C   C55       1.0  0.07808  0.46775  0.30242  1.0000
  H   H87       1.0  0.38469  0.10059  0.27324  1.0000
  C   C56       1.0  0.00983  0.41736  0.29029  1.0000
  H   H88       1.0  0.08489  0.43478  0.04167  1.0000
  H   H89       1.0  0.01659  0.44128  0.28589  1.0000
  H   H90       1.0  0.39496  0.13676  0.31413  1.0000
  C   C57       1.0  0.25319  0.38923  0.05571  1.0000
  H   H91       1.0  0.00692  0.41273  0.02034  1.0000
  H   H92       1.0  0.37119  0.24269  0.04403  1.0000
  H   H93       1.0  0.11342  0.43292  0.26130  1.0000
  H   H94       1.0  0.25569  0.39795  0.07698  1.0000
  H   H95       1.0  0.31553  0.38021  0.06265  1.0000
  C   C58       1.0  0.31541  0.44442  0.06582  1.0000
  C   C59       1.0  0.35351  0.06607  0.33440  1.0000
  H   H96       1.0  0.40584  0.03626  0.22491  1.0000
  H   H97       1.0  0.41191  0.11698  0.33094  1.0000
  H   H98       1.0  0.07322  0.47773  0.28406  1.0000
  C   C60       1.0  0.99763  0.27531  0.18948  1.0000
  H   H99       1.0  0.32032  0.02954  0.24673  1.0000
  S   S18       1.0  0.42181  0.37531  0.31936  1.0000
  H   H100      1.0  0.22419  0.38953  0.02227  1.0000
  H   H101      1.0  0.04504  0.40895  0.04396  1.0000
  H   H102      1.0  0.08249  0.46584  0.13895  1.0000
  H   H103      1.0  0.34625  0.11029  0.28593  1.0000
  C   C61       1.0  0.10033  0.44419  0.25526  1.0000
  H   H104      1.0  0.47131  0.00445  0.18523  1.0000
  C   C62       1.0  0.06247  0.42923  0.03269  1.0000
  H   H105      1.0  0.30290  0.43382  0.02392  1.0000
  C   C63       1.0  0.41706  0.36954  0.00699  1.0000
  C   C64       1.0  0.30180  0.07704  0.29927  1.0000
  C   C65       1.0  0.44665  0.02238  0.02335  1.0000
  H   H106      1.0  0.10339  0.48041  0.30440  1.0000
  H   H107      1.0  0.46525  0.08247  0.02466  1.0000
  N   N4        1.0  0.35187  0.07468  0.30508  1.0000
  H   H108      1.0  0.00587  0.28504  0.21022  1.0000
  H   H109      1.0  0.39546  0.07893  0.29432  1.0000
  H   H110      1.0  0.25743  0.42637  0.02840  1.0000
  H   H111      1.0  0.02928  0.47902  0.05850  1.0000
  H   H112      1.0  0.01270  0.26665  0.18235  1.0000
  H   H113      1.0  0.01477  0.33174  0.12276  1.0000
  H   H114      1.0  0.32989  0.31508  0.00484  1.0000
  C   C66       1.0  0.38087  0.27257  0.00812  1.0000
  H   H115      1.0  0.02340  0.45963  0.01219  1.0000
  C   C67       1.0  0.00002  0.32355  0.01422  1.0000
  H   H116      1.0  0.02173  0.28755  0.12691  1.0000
  H   H117      1.0  0.00369  0.37898  0.00780  1.0000
  C   C68       1.0  0.46305  0.07335  0.00368  1.0000
  H   H118      1.0  0.35676  0.26735  0.00807  1.0000
  H   H119      1.0  0.06371  0.48450  0.00542  1.0000
  Fe  Fe9       1.0  0.47593  0.35993  0.39863  1.0000
  S   S19       1.0  0.43897  0.37191  0.39603  1.0000
  H   H120      1.0  0.45961  0.02158  0.65459  1.0000
  Fe  Fe10      1.0  0.43474  0.29534  0.37673  1.0000
  S   S20       1.0  0.39422  0.30279  0.37327  1.0000
  S   S21       1.0  0.44086  0.25658  0.35914  1.0000
  Fe  Fe11      1.0  0.42722  0.34833  0.35483  1.0000
  Fe  Fe12      1.0  0.40918  0.32615  0.41481  1.0000
  S   S22       1.0  0.37671  0.32021  0.45028  1.0000
  H   H121      1.0  0.28569  0.43255  0.63770  1.0000
  S   S23       1.0  0.44682  0.31500  0.41935  1.0000
  H   H122      1.0  0.13966  0.35624  0.47843  1.0000
  Fe  Fe13      1.0  0.42324  0.08550  0.38119  1.0000
  S   S24       1.0  0.38437  0.03757  0.38829  1.0000
  S   S25       1.0  0.41137  0.12238  0.39277  1.0000
  Fe  Fe14      1.0  0.46603  0.06216  0.36366  1.0000
  S   S26       1.0  0.43006  0.01370  0.36987  1.0000
  H   H123      1.0  0.42481  0.43643  0.36459  1.0000
  Fe  Fe15      1.0  0.39898  0.02634  0.34820  1.0000
  Fe  Fe16      1.0  0.41896  0.02898  0.40932  1.0000
  H   H124      1.0  0.43985  0.31927  0.53929  1.0000
  C   C69       1.0  0.35762  0.30758  0.58934  1.0000
  S   S27       1.0  0.45732  0.07725  0.40439  1.0000
  H   H125      1.0  0.43533  0.35754  0.63026  1.0000
  H   H126      1.0  0.34024  0.29225  0.54726  1.0000
  C   C70       1.0  0.08821  0.42847  0.34482  1.0000
  C   C71       1.0  0.44880  0.45073  0.37154  1.0000
  C   C72       1.0  0.40264  0.31349  0.61309  1.0000
  H   H127      1.0  0.03469  0.47439  0.51402  1.0000
  H   H128      1.0  0.46288  0.42337  0.35090  1.0000
  C   C73       1.0  0.43295  0.21962  0.36953  1.0000
  C   C74       1.0  0.44679  0.20564  0.35516  1.0000
  C   C75       1.0  0.44116  0.17633  0.36231  1.0000
  C   C76       1.0  0.42103  0.16024  0.38367  1.0000
  C   C77       1.0  0.40744  0.17437  0.39820  1.0000
  C   C78       1.0  0.41348  0.20389  0.39135  1.0000
  C   C79       1.0  0.48887  0.01450  0.41312  1.0000
  H   H129      1.0  0.01599  0.35625  0.55155  1.0000
  H   H130      1.0  0.39189  0.16226  0.41480  1.0000
  H   H131      1.0  0.40257  0.21419  0.40260  1.0000
  C   C80       1.0  0.38481  0.34239  0.48080  1.0000
  C   C81       1.0  0.36067  0.33741  0.49842  1.0000
  C   C82       1.0  0.41453  0.36420  0.48826  1.0000
  H   H132      1.0  0.33758  0.32070  0.49287  1.0000
  H   H133      1.0  0.43338  0.36831  0.47505  1.0000
  Fe  Fe17      1.0  0.37743  0.39665  0.60005  1.0000
  S   S28       1.0  0.35635  0.42639  0.60619  1.0000
  S   S29       1.0  0.40451  0.39552  0.56244  1.0000
  H   H134      1.0  0.44727  0.33705  0.57193  1.0000
  H   H135      1.0  0.47279  0.02700  0.47771  1.0000
  Fe  Fe18      1.0  0.32201  0.38890  0.63344  1.0000
  S   S30       1.0  0.26993  0.36885  0.63077  1.0000
  Fe  Fe19      1.0  0.38454  0.44243  0.64470  1.0000
  H   H136      1.0  0.14011  0.38916  0.56848  1.0000
  S   S31       1.0  0.34154  0.35796  0.62502  1.0000
  S   S32       1.0  0.40830  0.41623  0.63673  1.0000
  Fe  Fe20      1.0  0.13704  0.41409  0.63224  1.0000
  S   S33       1.0  0.10386  0.36445  0.62895  1.0000
  S   S34       1.0  0.18885  0.43364  0.63500  1.0000
  Fe  Fe21      1.0  0.08515  0.42935  0.63052  1.0000
  S   S35       1.0  0.04886  0.38002  0.62697  1.0000
  S   S36       1.0  0.43533  0.07436  0.33983  1.0000
  Fe  Fe22      1.0  0.07557  0.37258  0.66021  1.0000
  Fe  Fe23      1.0  0.08052  0.37715  0.59612  1.0000
  S   S37       1.0  0.07401  0.35594  0.55330  1.0000
  H   H137      1.0  0.15401  0.43308  0.54440  1.0000
  S   S38       1.0  0.11530  0.42683  0.59814  1.0000
  H   H138      1.0  0.45221  0.16614  0.35116  1.0000
  H   H139      1.0  0.40480  0.26058  0.60927  1.0000
  C   C83       1.0  0.04864  0.35243  0.52619  1.0000
  C   C84       1.0  0.41616  0.34811  0.61538  1.0000
  H   H140      1.0  0.42478  0.35991  0.59552  1.0000
  H   H141      1.0  0.39914  0.32922  0.55386  1.0000
  H   H142      1.0  0.06689  0.46712  0.34675  1.0000
  C   C85       1.0  0.21084  0.41501  0.63418  1.0000
  C   C86       1.0  0.24276  0.43242  0.63671  1.0000
  C   C87       1.0  0.26117  0.41876  0.63583  1.0000
  C   C88       1.0  0.24787  0.38738  0.63245  1.0000
  C   C89       1.0  0.21588  0.36992  0.63004  1.0000
  C   C90       1.0  0.19749  0.38361  0.63081  1.0000
  S   S39       1.0  0.00965  0.36921  0.37908  1.0000
  H   H143      1.0  0.48621  0.45706  0.54619  1.0000
  C   C91       1.0  0.36606  0.35399  0.52303  1.0000
  C   C92       1.0  0.39580  0.37556  0.53061  1.0000
  C   C93       1.0  0.41994  0.38054  0.51301  1.0000
  H   H144      1.0  0.34720  0.35003  0.53614  1.0000
  H   H145      1.0  0.44307  0.39705  0.51861  1.0000
  H   H146      1.0  0.49041  0.46707  0.66004  1.0000
  H   H147      1.0  0.34688  0.30340  0.61003  1.0000
  H   H148      1.0  0.17535  0.40166  0.58405  1.0000
  H   H149      1.0  0.39014  0.30350  0.63263  1.0000
  N   N5        1.0  0.38199  0.29867  0.58880  1.0000
  H   H150      1.0  0.47568  0.22929  0.43066  1.0000
  H   H151      1.0  0.18029  0.44799  0.57295  1.0000
  C   C94       1.0  0.05516  0.34745  0.49923  1.0000
  H   H152      1.0  0.16012  0.40041  0.50818  1.0000
  H   H153      1.0  0.36771  0.33232  0.58538  1.0000
  C   C95       1.0  0.36623  0.26468  0.59223  1.0000
  H   H154      1.0  0.22446  0.39240  0.57446  1.0000
  C   C96       1.0  0.33160  0.29172  0.56825  1.0000
  C   C97       1.0  0.03486  0.34275  0.47737  1.0000
  H   H155      1.0  0.42211  0.30925  0.61336  1.0000
  H   H156      1.0  0.21011  0.38210  0.52457  1.0000
  C   C98       1.0  0.43203  0.31567  0.56096  1.0000
  H   H157      1.0  0.47982  0.03025  0.41494  1.0000
  H   H158      1.0  0.31534  0.26799  0.57435  1.0000
  H   H159      1.0  0.39661  0.25081  0.57305  1.0000
  C   C99       1.0  0.00733  0.34219  0.48231  1.0000
  H   H160      1.0  0.49423  0.47920  0.40808  1.0000
  C   C100      1.0  0.17363  0.43303  0.55465  1.0000
  H   H161      1.0  0.04006  0.33858  0.45689  1.0000
  H   H162      1.0  0.21076  0.41680  0.52120  1.0000
  H   H163      1.0  0.25114  0.42061  0.55183  1.0000
  H   H164      1.0  0.17557  0.35568  0.57631  1.0000
  H   H165      1.0  0.19347  0.44371  0.54075  1.0000
  C   C101      1.0  0.00086  0.34720  0.50926  1.0000
  H   H166      1.0  0.20533  0.34564  0.62736  1.0000
  H   H167      1.0  0.07588  0.34690  0.49523  1.0000
  H   H168      1.0  0.31133  0.05931  0.35362  1.0000
  S   S40       1.0  0.41777  0.00202  0.44767  1.0000
  H   H169      1.0  0.38594  0.29102  0.54557  1.0000
  H   H170      1.0  0.17304  0.36989  0.62860  1.0000
  H   H171      1.0  0.12838  0.36938  0.52341  1.0000
  C   C102      1.0  0.39853  0.30839  0.56164  1.0000
  H   H172      1.0  0.45010  0.44146  0.39176  1.0000
  H   H173      1.0  0.36595  0.08650  0.34755  1.0000
  H   H174      1.0  0.37244  0.22599  0.59897  1.0000
  H   H175      1.0  0.22622  0.42874  0.57116  1.0000
  H   H176      1.0  0.11450  0.32476  0.54455  1.0000
  H   H177      1.0  0.35201  0.25770  0.61120  1.0000
  S   S41       1.0  0.46707  0.34021  0.35638  1.0000
  H   H178      1.0  0.12613  0.30941  0.57180  1.0000
  H   H179      1.0  0.12066  0.34069  0.57864  1.0000
  H   H180      1.0  0.35025  0.25297  0.57497  1.0000
  H   H181      1.0  0.42219  0.00994  0.66665  1.0000
  S   S42       1.0  0.06537  0.46080  0.63159  1.0000
  H   H182      1.0  0.43157  0.48704  0.60599  1.0000
  H   H183      1.0  0.49214  0.30644  0.45712  1.0000
  H   H184      1.0  0.45283  0.47413  0.37339  1.0000
  C   C103      1.0  0.38676  0.25035  0.59346  1.0000
  H   H185      1.0  0.43534  0.29733  0.56931  1.0000
  Fe  Fe24      1.0  0.37149  0.37934  0.66218  1.0000
  H   H186      1.0  0.25342  0.45673  0.63927  1.0000
  H   H187      1.0  0.31832  0.30375  0.56752  1.0000
  H   H188      1.0  0.14484  0.33365  0.50345  1.0000
  C   C104      1.0  0.15410  0.35724  0.49603  1.0000
  C   C105      1.0  0.02150  0.35269  0.53097  1.0000
  C   C106      1.0  0.47830  0.25205  0.43427  1.0000
  H   H189      1.0  0.32773  0.03946  0.36941  1.0000
  H   H190      1.0  0.17086  0.33918  0.54361  1.0000
  H   H191      1.0  0.17756  0.36606  0.48810  1.0000
  H   H192      1.0  0.46200  0.21758  0.33831  1.0000
  N   N6        1.0  0.17141  0.38220  0.54357  1.0000
  C   C107      1.0  0.16322  0.35214  0.55657  1.0000
  C   C108      1.0  0.20475  0.39787  0.53586  1.0000
  C   C109      1.0  0.15277  0.37811  0.51819  1.0000
  C   C110      1.0  0.16489  0.40056  0.56378  1.0000
  C   C111      1.0  0.12914  0.33091  0.56304  1.0000
  C   C112      1.0  0.22754  0.41047  0.55994  1.0000
  H   H193      1.0  0.39893  0.35349  0.62349  1.0000
  H   H194      1.0  0.49373  0.05499  0.45359  1.0000
  H   H195      1.0  0.48019  0.28331  0.40339  1.0000
  H   H196      1.0  0.10014  0.41697  0.35349  1.0000
  S   S43       1.0  0.41135  0.49032  0.66087  1.0000
  H   H197      1.0  0.45463  0.24804  0.43569  1.0000
  C   C113      1.0  0.46974  0.44777  0.35044  1.0000
  H   H198      1.0  0.36202  0.00247  0.46506  1.0000
  H   H199      1.0  0.48886  0.26054  0.45448  1.0000
  S   S44       1.0  0.11019  0.42190  0.66509  1.0000
  C   C114      1.0  0.49439  0.27325  0.40957  1.0000
  H   H200      1.0  0.06564  0.41806  0.35484  1.0000
  H   H201      1.0  0.10203  0.45276  0.35044  1.0000
  H   H202      1.0  0.00451  0.48977  0.36571  1.0000
  H   H203      1.0  0.13243  0.33710  0.66106  1.0000
  C   C115      1.0  0.32299  0.04625  0.34915  1.0000
  H   H204      1.0  0.49257  0.25810  0.39232  1.0000
  H   H205      1.0  0.46552  0.48172  0.66191  1.0000
  C   C116      1.0  0.49201  0.00219  0.44121  1.0000
  H   H206      1.0  0.47743  0.99864  0.51136  1.0000
  H   H207      1.0  0.49095  0.49235  0.55765  1.0000
  H   H208      1.0  0.49478  0.06961  0.50469  1.0000
  H   H209      1.0  0.30781  0.02495  0.33812  1.0000
  Fe  Fe25      1.0  0.47181  0.33954  0.87068  1.0000
  S   S45       1.0  0.44360  0.36175  0.87597  1.0000
  H   H210      1.0  0.03324  0.38213  0.71034  1.0000
  Fe  Fe26      1.0  0.41913  0.27646  0.88489  1.0000
  S   S46       1.0  0.38661  0.29468  0.89047  1.0000
  S   S47       1.0  0.40742  0.22916  0.90069  1.0000
  Fe  Fe27      1.0  0.40825  0.32219  0.85182  1.0000
  S   S48       1.0  0.38366  0.33602  0.82025  1.0000
  Fe  Fe28      1.0  0.42459  0.33318  0.91386  1.0000
  S   S49       1.0  0.42808  0.35695  0.95481  1.0000
  S   S50       1.0  0.43765  0.30099  0.84467  1.0000
  S   S51       1.0  0.45590  0.31384  0.91004  1.0000
  S   S52       1.0  0.38982  0.35514  0.68970  1.0000
  S   S53       1.0  0.05884  0.34258  0.69884  1.0000
  H   H211      1.0  0.44123  0.30980  0.96958  1.0000
  Fe  Fe29      1.0  0.43169  0.08287  0.87496  1.0000
  S   S54       1.0  0.38550  0.04014  0.87408  1.0000
  S   S55       1.0  0.44095  0.12953  0.85909  1.0000
  Fe  Fe30      1.0  0.46356  0.04801  0.89475  1.0000
  H   H212      1.0  0.35930  0.20583  0.94680  1.0000
  H   H213      1.0  0.17141  0.43306  0.69200  1.0000
  Fe  Fe31      1.0  0.40998  0.01809  0.85392  1.0000
  H   H214      1.0  0.47047  0.26425  0.91648  1.0000
  Fe  Fe32      1.0  0.39935  0.02918  0.91500  1.0000
  C   C117      1.0  0.12999  0.32980  0.70590  1.0000
  S   S56       1.0  0.45551  0.06107  0.85283  1.0000
  S   S57       1.0  0.44392  0.07320  0.91678  1.0000
  C   C118      1.0  0.27758  0.38745  0.99247  1.0000
  H   H215      1.0  0.39258  0.29091  0.95693  1.0000
  H   H216      1.0  0.11318  0.37260  0.74212  1.0000
  H   H217      1.0  0.08051  0.40886  0.95534  1.0000
  H   H218      1.0  0.47080  0.02492  0.74957  1.0000
  C   C119      1.0  0.48541  0.10071  0.98603  1.0000
  H   H219      1.0  0.17045  0.38712  0.75152  1.0000
  C   C120      1.0  0.45812  0.03245  0.97464  1.0000
  C   C121      1.0  0.04011  0.34722  0.72796  1.0000
  H   H220      1.0  0.33106  0.24779  0.97037  1.0000
  H   H221      1.0  0.05719  0.39406  0.92583  1.0000
  H   H222      1.0  0.02461  0.37586  0.96599  1.0000
  H   H223      1.0  0.01580  0.39878  0.94530  1.0000
  C   C122      1.0  0.02972  0.36807  0.72818  1.0000
  C   C123      1.0  0.36714  0.20176  0.96674  1.0000
  H   H224      1.0  0.18773  0.34651  0.71777  1.0000
  H   H225      1.0  0.45370  0.43294  0.81962  1.0000
  C   C124      1.0  0.99780  0.31827  0.98573  1.0000
  C   C125      1.0  0.02378  0.32480  0.97046  1.0000
  H   H226      1.0  0.48768  0.24442  0.93257  1.0000
  H   H227      1.0  0.07223  0.34185  0.97255  1.0000
  H   H228      1.0  0.26275  0.39763  0.99197  1.0000
  H   H229      1.0  0.10696  0.32705  0.70913  1.0000
  C   C126      1.0  0.41576  0.20102  0.88831  1.0000
  C   C127      1.0  0.42562  0.20127  0.86149  1.0000
  C   C128      1.0  0.43284  0.17906  0.85289  1.0000
  C   C129      1.0  0.42976  0.15587  0.87075  1.0000
  C   C130      1.0  0.41927  0.15525  0.89742  1.0000
  C   C131      1.0  0.41239  0.17768  0.90611  1.0000
  H   H230      1.0  0.42726  0.21833  0.84726  1.0000
  H   H231      1.0  0.44059  0.17964  0.83213  1.0000
  H   H232      1.0  0.41668  0.13759  0.91142  1.0000
  H   H233      1.0  0.40441  0.17690  0.92679  1.0000
  C   C132      1.0  0.38644  0.34165  0.78397  1.0000
  C   C133      1.0  0.40355  0.33332  0.76727  1.0000
  C   C134      1.0  0.40447  0.33780  0.73858  1.0000
  C   C135      1.0  0.38857  0.35090  0.72615  1.0000
  C   C136      1.0  0.37203  0.35982  0.74293  1.0000
  C   C137      1.0  0.37085  0.35505  0.77156  1.0000
  H   H234      1.0  0.41554  0.32285  0.77639  1.0000
  H   H235      1.0  0.41728  0.33071  0.72588  1.0000
  H   H236      1.0  0.35962  0.36986  0.73380  1.0000
  H   H237      1.0  0.35753  0.36160  0.78419  1.0000
  C   C138      1.0  0.40383  0.35285  0.98294  1.0000
  C   C139      1.0  0.37221  0.33338  0.98227  1.0000
  H   H238      1.0  0.48280  0.22584  0.88761  1.0000
  H   H239      1.0  0.36158  0.32094  0.96378  1.0000
  H   H240      1.0  0.08433  0.44047  0.99313  1.0000
  H   H241      1.0  0.48447  0.09514  0.96404  1.0000
  H   H242      1.0  0.45332  0.02957  0.68962  1.0000
  H   H243      1.0  0.30133  0.40488  0.98717  1.0000
  S   S58       1.0  0.41951  0.00375  0.89493  1.0000
  C   C140      1.0  0.37626  0.99991  0.74344  1.0000
  C   C141      1.0  0.00918  0.35227  0.77474  1.0000
  C   C142      1.0  0.46229  0.00192  0.74081  1.0000
  C   C143      1.0  0.06249  0.40996  0.94327  1.0000
  C   C144      1.0  0.36645  0.22215  0.98982  1.0000
  C   C145      1.0  0.01419  0.37037  0.75129  1.0000
  H   H244      1.0  0.48564  0.46893  0.81304  1.0000
  H   H245      1.0  0.10808  0.29887  0.67179  1.0000
  H   H246      1.0  0.02437  0.45793  0.78570  1.0000
  C   C146      1.0  0.48265  0.47895  0.67407  1.0000
  H   H247      1.0  0.38821  0.02266  0.78283  1.0000
  H   H248      1.0  0.34229  0.21609  0.99302  1.0000
  C   C147      1.0  0.44460  0.01270  0.67281  1.0000
  S   S59       1.0  0.02217  0.31971  0.93426  1.0000
  S   S60       1.0  0.37145  0.01553  0.95496  1.0000
  H   H249      1.0  0.23414  0.39304  0.70715  1.0000
  C   C148      1.0  0.03507  0.32903  0.75141  1.0000
  C   C149      1.0  0.01988  0.33164  0.77471  1.0000
  C   C150      1.0  0.12169  0.35997  0.75435  1.0000
  H   H250      1.0  0.48849  0.39718  0.83460  1.0000
  H   H251      1.0  0.47975  0.42780  0.86240  1.0000
  H   H252      1.0  0.43934  0.06677  0.99725  1.0000
  C   C151      1.0  0.38430  0.00278  0.77148  1.0000
  C   C152      1.0  0.47936  0.39856  0.81424  1.0000
  H   H253      1.0  0.48207  0.00640  0.96957  1.0000
  H   H254      1.0  0.33711  0.23584  0.93711  1.0000
  C   C153      1.0  0.34614  0.25464  0.95223  1.0000
  H   H255      1.0  0.47313  0.04847  0.95869  1.0000
  H   H256      1.0  0.12419  0.36799  0.77586  1.0000
  H   H257      1.0  0.10405  0.33557  0.75444  1.0000
  H   H258      1.0  0.38900  0.25796  0.94135  1.0000
  H   H259      1.0  0.04284  0.31271  0.75150  1.0000
  C   C154      1.0  0.48474  0.37756  0.79515  1.0000
  N   N7        1.0  0.15468  0.36152  0.71338  1.0000
  H   H260      1.0  0.14836  0.31406  0.67274  1.0000
  H   H261      1.0  0.21588  0.40214  0.73367  1.0000
  C   C155      1.0  0.18500  0.36414  0.70656  1.0000
  C   C156      1.0  0.14981  0.38406  0.69711  1.0000
  H   H262      1.0  0.21476  0.41275  0.69805  1.0000
  H   H263      1.0  0.39011  0.20438  0.96417  1.0000
  C   C157      1.0  0.21370  0.39497  0.71199  1.0000
  C   C158      1.0  0.16336  0.41645  0.70912  1.0000
  N   N8        1.0  0.03566  0.41850  0.98488  1.0000
  S   S61       1.0  0.00530  0.36661  0.88321  1.0000
  C   C159      1.0  0.48263  0.00398  0.71638  1.0000
  C   C160      1.0  0.45376  0.41796  0.76636  1.0000
  C   C161      1.0  0.47903  0.44612  0.82144  1.0000
  C   C162      1.0  0.46529  0.45645  0.69748  1.0000
  H   H264      1.0  0.47598  0.24921  0.82687  1.0000
  H   H265      1.0  0.15882  0.38623  0.67596  1.0000
  C   C163      1.0  0.48625  0.44975  0.85239  1.0000
  H   H266      1.0  0.01879  0.47416  0.83739  1.0000
  C   C164      1.0  0.05198  0.33674  0.98413  1.0000
  H   H267      1.0  0.15716  0.34823  0.75505  1.0000
  C   C165      1.0  0.49467  0.27222  0.83229  1.0000
  H   H268      1.0  0.47532  0.35497  0.80507  1.0000
  H   H269      1.0  0.47234  0.26269  0.87122  1.0000
  H   H270      1.0  0.45073  0.40645  0.74631  1.0000
  H   H271      1.0  0.43475  0.02795  0.96952  1.0000
  H   H272      1.0  0.49424  0.27988  0.94579  1.0000
  H   H273      1.0  0.18308  0.42377  0.72291  1.0000
  H   H274      1.0  0.14536  0.41922  0.71949  1.0000
  H   H275      1.0  0.44599  0.43481  0.76431  1.0000
  H   H276      1.0  0.12497  0.37558  0.69462  1.0000
  C   C166      1.0  0.00650  0.40115  0.00102  1.0000
  H   H277      1.0  0.13102  0.31266  0.71947  1.0000
  C   C167      1.0  0.15262  0.36475  0.74392  1.0000
  H   H278      1.0  0.00034  0.43138  0.74248  1.0000
  H   H279      1.0  0.47286  0.45892  0.86245  1.0000
  H   H280      1.0  0.02162  0.42802  0.83073  1.0000
  H   H281      1.0  0.06304  0.46120  0.96401  1.0000
  H   H282      1.0  0.43809  0.40025  0.78074  1.0000
  C   C168      1.0  0.38014  0.26575  0.95849  1.0000
  H   H283      1.0  0.49009  0.28900  0.82187  1.0000
  C   C169      1.0  0.04077  0.47082  0.99607  1.0000
  H   H284      1.0  0.00590  0.38624  0.75091  1.0000
  H   H285      1.0  0.34421  0.27314  0.94200  1.0000
  C   C170      1.0  0.03303  0.39969  0.96001  1.0000
  H   H286      1.0  0.07135  0.43290  0.93440  1.0000
  C   C171      1.0  0.45851  0.00263  0.96969  1.0000
  H   H287      1.0  0.44860  0.43417  0.68850  1.0000
  C   C172      1.0  0.04068  0.44862  0.97464  1.0000
  H   H288      1.0  0.47914  0.11872  0.98754  1.0000
  S   S62       1.0  0.34925  0.40691  0.67249  1.0000
  H   H289      1.0  0.37409  0.01778  0.73350  1.0000
  H   H290      1.0  0.18641  0.35992  0.68445  1.0000
  N   N9        1.0  0.38667  0.25582  0.98558  1.0000
  H   H291      1.0  0.45430  0.38782  0.81746  1.0000
  C   C173      1.0  0.13011  0.31978  0.67608  1.0000
  H   H292      1.0  0.49428  0.02786  0.70888  1.0000
  H   H293      1.0  0.48067  0.45245  0.71080  1.0000
  H   H294      1.0  0.45173  0.46383  0.70980  1.0000
  H   H295      1.0  0.00891  0.42938  0.86437  1.0000
  C   C174      1.0  0.06242  0.42233  0.00186  1.0000
  H   H296      1.0  0.42453  0.25383  0.96695  1.0000
  H   H297      1.0  0.26962  0.37014  0.97595  1.0000
  H   H298      1.0  0.47258  0.37385  0.77535  1.0000
  H   H299      1.0  0.06390  0.40119  0.00129  1.0000
  H   H300      1.0  0.02407  0.44580  0.95826  1.0000
  C   C175      1.0  0.49126  0.26703  0.92657  1.0000
  N   N10       1.0  0.49329  0.43121  0.80519  1.0000
  C   C176      1.0  0.48764  0.43356  0.77521  1.0000
  C   C177      1.0  0.99922  0.44227  0.78535  1.0000
  C   C178      1.0  0.99644  0.45300  0.83448  1.0000
  C   C179      1.0  0.44379  0.29696  0.98667  1.0000
  H   H301      1.0  0.03445  0.48642  0.98576  1.0000
  H   H302      1.0  0.46676  0.29937  0.98464  1.0000
  H   H303      1.0  0.35142  0.17763  0.97213  1.0000
  C   C180      1.0  0.00230  0.42698  0.84241  1.0000
  C   C181      1.0  0.41945  0.26301  0.98568  1.0000
  H   H304      1.0  0.01620  0.31747  0.79247  1.0000
  H   H305      1.0  0.99644  0.41973  0.79028  1.0000
  H   H306      1.0  0.42396  0.25167  0.00314  1.0000
  N   N11       1.0  0.46744  0.04609  0.00292  1.0000
  Fe  Fe33      1.0  0.05621  0.63817  0.10868  1.0000
  S   S63       1.0  0.09612  0.63131  0.10057  1.0000
  S   S64       1.0  0.01768  0.62691  0.07774  1.0000
  Fe  Fe34      1.0  0.07143  0.65014  0.17076  1.0000
  S   S65       1.0  0.11207  0.64378  0.16600  1.0000
  S   S66       1.0  0.06660  0.66278  0.21483  1.0000
  Fe  Fe35      1.0  0.12275  0.67241  0.12793  1.0000
  S   S67       1.0  0.17313  0.70699  0.11953  1.0000
  Fe  Fe36      1.0  0.08239  0.60392  0.13949  1.0000
  S   S68       1.0  0.07181  0.55578  0.14817  1.0000
  S   S69       1.0  0.08355  0.68107  0.13374  1.0000
  S   S70       1.0  0.04101  0.60853  0.14642  1.0000
  Fe  Fe37      1.0  0.30910  0.88291  0.13855  1.0000
  S   S71       1.0  0.32431  0.93043  0.12304  1.0000
  S   S72       1.0  0.25733  0.84999  0.13947  1.0000
  Fe  Fe38      1.0  0.37533  0.89888  0.14910  1.0000
  S   S73       1.0  0.39436  0.94619  0.13337  1.0000
  S   S74       1.0  0.40835  0.88715  0.16954  1.0000
  Fe  Fe39      1.0  0.35738  0.94661  0.15876  1.0000
  C   C182      1.0  0.27815  0.83247  0.06012  1.0000
  Fe  Fe40      1.0  0.35994  0.92578  0.09926  1.0000
  C   C183      1.0  0.21128  0.80626  0.05527  1.0000
  S   S75       1.0  0.33956  0.89988  0.17582  1.0000
  S   S76       1.0  0.34341  0.87767  0.11345  1.0000
  C   C184      1.0  0.44054  0.89259  0.15079  1.0000
  C   C185      1.0  0.46560  0.89417  0.16476  1.0000
  C   C186      1.0  0.27402  0.90653  0.05788  1.0000
  C   C187      1.0  0.44118  0.89441  0.12217  1.0000
  H   H307      1.0  0.46523  0.89273  0.18689  1.0000
  C   C188      1.0  0.15726  0.71726  0.19856  1.0000
  H   H308      1.0  0.13354  0.76349  0.18112  1.0000
  H   H309      1.0  0.21571  0.79067  0.06791  1.0000
  C   C189      1.0  0.35258  0.96295  0.23757  1.0000
  C   C190      1.0  0.04421  0.63323  0.02641  1.0000
  C   C191      1.0  0.29415  0.87691  0.00483  1.0000
  H   H310      1.0  0.33783  0.94189  0.22709  1.0000
  H   H311      1.0  0.26326  0.80873  0.05318  1.0000
  H   H312      1.0  0.43301  0.91564  0.22439  1.0000
  C   C192      1.0  0.47637  0.80074  0.09310  1.0000
  C   C193      1.0  0.03573  0.64241  0.23806  1.0000
  H   H313      1.0  0.31714  0.82558  0.06012  1.0000
  H   H314      1.0  0.06331  0.66397  0.27371  1.0000
  H   H315      1.0  0.38342  0.89092  0.25161  1.0000
  H   H316      1.0  0.13768  0.69520  0.20546  1.0000
  H   H317      1.0  0.45898  0.79870  0.10816  1.0000
  H   H318      1.0  0.07308  0.59717  0.04828  1.0000
  C   C194      1.0  0.01742  0.62019  0.04192  1.0000
  H   H319      1.0  0.06595  0.64716  0.03639  1.0000
  H   H320      1.0  0.24684  0.85938  0.01354  1.0000
  N   N12       1.0  0.44423  0.96190  0.23252  1.0000
  C   C195      1.0  0.07997  0.58010  0.04385  1.0000
  C   C196      1.0  0.19598  0.74681  0.12511  1.0000
  C   C197      1.0  0.18335  0.76543  0.12954  1.0000
  C   C198      1.0  0.20251  0.79692  0.13365  1.0000
  C   C199      1.0  0.23450  0.81020  0.13368  1.0000
  C   C200      1.0  0.24713  0.79161  0.12907  1.0000
  C   C201      1.0  0.22798  0.76020  0.12465  1.0000
  H   H321      1.0  0.15882  0.75561  0.12963  1.0000
  H   H322      1.0  0.19245  0.81108  0.13702  1.0000
  H   H323      1.0  0.27165  0.80136  0.12906  1.0000
  H   H324      1.0  0.23803  0.74605  0.12113  1.0000
  C   C202      1.0  0.09018  0.53648  0.13549  1.0000
  C   C203      1.0  0.28490  0.88358  0.06349  1.0000
  C   C204      1.0  0.35141  0.96454  0.26640  1.0000
  H   H325      1.0  0.47789  0.76779  0.11940  1.0000
  C   C205      1.0  0.12771  0.53311  0.10694  1.0000
  C   C206      1.0  0.11492  0.55007  0.11747  1.0000
  C   C207      1.0  0.18447  0.71219  0.19370  1.0000
  H   H326      1.0  0.13464  0.76069  0.23405  1.0000
  H   H327      1.0  0.14686  0.54368  0.09300  1.0000
  H   H328      1.0  0.12424  0.57360  0.11169  1.0000
  H   H329      1.0  0.38500  0.92688  0.25332  1.0000
  C   C208      1.0  0.45648  0.51469  0.13428  1.0000
  C   C209      1.0  0.06642  0.55328  0.06411  1.0000
  C   C210      1.0  0.01648  0.63366  0.28540  1.0000
  C   C211      1.0  0.36966  0.95438  0.02616  1.0000
  C   C212      1.0  0.47234  0.50257  0.12076  1.0000
  H   H330      1.0  0.07531  0.53842  0.05706  1.0000
  C   C213      1.0  0.47007  0.54629  0.13768  1.0000
  H   H331      1.0  0.18266  0.77437  0.18531  1.0000
  H   H332      1.0  0.43431  0.94967  0.18954  1.0000
  H   H333      1.0  0.09795  0.74759  0.19903  1.0000
  C   C214      1.0  0.37190  0.98886  0.22235  1.0000
  H   H334      1.0  0.23278  0.79327  0.19339  1.0000
  C   C215      1.0  0.42772  0.92861  0.23974  1.0000
  H   H335      1.0  0.19094  0.73381  0.24621  1.0000
  H   H336      1.0  0.18233  0.79093  0.21693  1.0000
  N   N13       1.0  0.03215  0.53586  0.06690  1.0000
  H   H337      1.0  0.42195  0.89313  0.11124  1.0000
  N   N14       1.0  0.16210  0.74209  0.21828  1.0000
  C   C216      1.0  0.13210  0.74167  0.22097  1.0000
  H   H338      1.0  0.03236  0.51882  0.10770  1.0000
  H   H339      1.0  0.38246  0.90894  0.22067  1.0000
  H   H340      1.0  0.40765  0.95745  0.20595  1.0000
  H   H341      1.0  0.15111  0.72159  0.17780  1.0000
  H   H342      1.0  0.29235  0.92955  0.06392  1.0000
  C   C217      1.0  0.17308  0.75719  0.26924  1.0000
  H   H343      1.0  0.30902  0.89455  0.05717  1.0000
  H   H344      1.0  0.46336  0.78909  0.07434  1.0000
  H   H345      1.0  0.15175  0.71181  0.25285  1.0000
  H   H346      1.0  0.43543  0.92408  0.25948  1.0000
  H   H347      1.0  0.18855  0.78116  0.26341  1.0000
  H   H348      1.0  0.22454  0.76446  0.21795  1.0000
  H   H349      1.0  0.15059  0.75409  0.27544  1.0000
  H   H350      1.0  0.19275  0.70668  0.21265  1.0000
  H   H351      1.0  0.17702  0.69238  0.17991  1.0000
  C   C218      1.0  0.11745  0.74415  0.19404  1.0000
  H   H352      1.0  0.07814  0.50194  0.32930  1.0000
  C   C219      1.0  0.26458  0.85370  0.01990  1.0000
  C   C220      1.0  0.16969  0.73494  0.24623  1.0000
  H   H353      1.0  0.25375  0.90135  0.07052  1.0000
  C   C221      1.0  0.43895  0.98104  0.25300  1.0000
  H   H354      1.0  0.18289  0.75239  0.28769  1.0000
  H   H355      1.0  0.20325  0.73161  0.18273  1.0000
  H   H356      1.0  0.49412  0.77026  0.08660  1.0000
  C   C222      1.0  0.02197  0.55631  0.07971  1.0000
  C   C223      1.0  0.04066  0.64812  0.26640  1.0000
  H   H357      1.0  0.45800  0.55555  0.14865  1.0000
  H   H358      1.0  0.43403  0.49970  0.14256  1.0000
  C   C224      1.0  0.07860  0.50604  0.14311  1.0000
  H   H359      1.0  0.11482  0.72058  0.23152  1.0000
  S   S77       1.0  0.37295  0.93300  0.05358  1.0000
  H   H360      1.0  0.26889  0.90756  0.03598  1.0000
  S   S78       1.0  0.37269  0.98854  0.18585  1.0000
  H   H361      1.0  0.07711  0.56225  0.08446  1.0000
  H   H362      1.0  0.22976  0.80073  0.22832  1.0000
  H   H363      1.0  0.10772  0.72276  0.18217  1.0000
  C   C225      1.0  0.21973  0.78270  0.21247  1.0000
  C   C226      1.0  0.18575  0.77284  0.20765  1.0000
  H   H364      1.0  0.41683  0.97985  0.24861  1.0000
  C   C227      1.0  0.47779  0.97282  0.22922  1.0000
  H   H365      1.0  0.22326  0.85294  0.05465  1.0000
  H   H366      1.0  0.46626  0.89749  0.08547  1.0000
  C   C228      1.0  0.49325  0.78428  0.10370  1.0000
  C   C229      1.0  0.35941  0.97509  0.03000  1.0000
  H   H367      1.0  0.23447  0.84179  0.08483  1.0000
  H   H368      1.0  0.02065  0.63836  0.30707  1.0000
  H   H369      1.0  0.33562  0.94457  0.27784  1.0000
  H   H370      1.0  0.10523  0.59207  0.04558  1.0000
  H   H371      1.0  0.48217  0.80481  0.15213  1.0000
  C   C230      1.0  0.37013  0.99174  0.28051  1.0000
  H   H372      1.0  0.27839  0.83156  0.08295  1.0000
  C   C231      1.0  0.23400  0.83976  0.06211  1.0000
  H   H373      1.0  0.41350  0.96029  0.29095  1.0000
  H   H374      1.0  0.35202  0.97769  0.05011  1.0000
  C   C232      1.0  0.01693  0.52279  0.03974  1.0000
  H   H375      1.0  0.18785  0.80118  0.06063  1.0000
  C   C233      1.0  0.43237  0.96485  0.20488  1.0000
  H   H376      1.0  0.44894  0.95973  0.28929  1.0000
  H   H377      1.0  0.02811  0.57655  0.06706  1.0000
  H   H378      1.0  0.21134  0.80115  0.03321  1.0000
  C   C234      1.0  0.39268  0.91337  0.24145  1.0000
  H   H379      1.0  0.32783  0.86421  0.05509  1.0000
  H   H380      1.0  0.28566  0.88140  0.08615  1.0000
  C   C235      1.0  0.46632  0.89687  0.10762  1.0000
  N   N15       1.0  0.26593  0.85269  0.05079  1.0000
  C   C236      1.0  0.11608  0.50262  0.11458  1.0000
  H   H381      1.0  0.03428  0.56575  0.09941  1.0000
  C   C237      1.0  0.31018  0.84074  0.04993  1.0000
  C   C238      1.0  0.02390  0.51005  0.08677  1.0000
  H   H382      1.0  0.03022  0.51444  0.02817  1.0000
  H   H383      1.0  0.00196  0.61761  0.20725  1.0000
  C   C239      1.0  0.00624  0.62199  0.22895  1.0000
  C   C240      1.0  0.49132  0.89834  0.12157  1.0000
  H   H384      1.0  0.31571  0.88397  0.01591  1.0000
  H   H385      1.0  0.49096  0.82485  0.08755  1.0000
  C   C241      1.0  0.49480  0.97082  0.25461  1.0000
  C   C242      1.0  0.01155  0.54382  0.02032  1.0000
  H   H386      1.0  0.02259  0.57281  0.30727  1.0000
  C   C243      1.0  0.43754  0.97265  0.28371  1.0000
  H   H387      1.0  0.31018  0.83686  0.02757  1.0000
  H   H388      1.0  0.48140  0.96013  0.21235  1.0000
  H   H389      1.0  0.01741  0.53601  0.31388  1.0000
  H   H390      1.0  0.02667  0.56834  0.02351  1.0000
  H   H391      1.0  0.48503  0.94745  0.26269  1.0000
  S   S79       1.0  0.36559  0.99301  0.31663  1.0000
  H   H392      1.0  0.07439  0.57219  0.02234  1.0000
  C   C244      1.0  0.49109  0.89741  0.15022  1.0000
  C   C245      1.0  0.00508  0.54881  0.31137  1.0000
  H   H393      1.0  0.06029  0.49823  0.08288  1.0000
  H   H394      1.0  0.25723  0.83087  0.01114  1.0000
  C   C246      1.0  0.35946  0.99308  0.00785  1.0000
  H   H395      1.0  0.44867  0.99388  0.29600  1.0000
  H   H396      1.0  0.05951  0.49540  0.15709  1.0000
  H   H397      1.0  0.99872  0.49583  0.08891  1.0000
  H   H398      1.0  0.06166  0.56268  0.50445  1.0000
  H   H399      1.0  0.46837  0.98831  0.44922  1.0000
  C   C247      1.0  0.36835  0.99176  0.48093  1.0000
  H   H400      1.0  0.45245  0.55379  0.66867  1.0000
  C   C248      1.0  0.03805  0.65069  0.48381  1.0000
  H   H401      1.0  0.05504  0.67036  0.47278  1.0000
  Fe  Fe41      1.0  0.06168  0.64053  0.59482  1.0000
  S   S80       1.0  0.11279  0.66232  0.59109  1.0000
  S   S81       1.0  0.02444  0.61668  0.56207  1.0000
  H   H402      1.0  0.42629  0.88519  0.64812  1.0000
  S   S82       1.0  0.44257  0.93655  0.61128  1.0000
  Fe  Fe42      1.0  0.11510  0.69256  0.62603  1.0000
  S   S83       1.0  0.14625  0.74451  0.62533  1.0000
  Fe  Fe43      1.0  0.10941  0.63025  0.62462  1.0000
  S   S84       1.0  0.13554  0.60463  0.62409  1.0000
  S   S85       1.0  0.06351  0.67239  0.62794  1.0000
  S   S86       1.0  0.05875  0.60674  0.62618  1.0000
  Fe  Fe44      1.0  0.32558  0.87841  0.63046  1.0000
  S   S87       1.0  0.31471  0.91617  0.63044  1.0000
  S   S88       1.0  0.29125  0.82809  0.63781  1.0000
  Fe  Fe45      1.0  0.39365  0.92241  0.62095  1.0000
  S   S89       1.0  0.38690  0.96281  0.62060  1.0000
  C   C249      1.0  0.03113  0.54690  0.56871  1.0000
  H   H403      1.0  0.25158  0.76350  0.63783  1.0000
  Fe  Fe46      1.0  0.34654  0.93448  0.59394  1.0000
  S   S90       1.0  0.00625  0.63551  0.43498  1.0000
  S   S91       1.0  0.33465  0.95238  0.55561  1.0000
  S   S92       1.0  0.35467  0.89500  0.59230  1.0000
  C   C250      1.0  0.46323  0.92001  0.62467  1.0000
  S   S93       1.0  0.36604  0.90242  0.65918  1.0000
  H   H404      1.0  0.08346  0.54361  0.56791  1.0000
  C   C251      1.0  0.45008  0.89523  0.64259  1.0000
  C   C252      1.0  0.04248  0.55686  0.51892  1.0000
  H   H405      1.0  0.47961  0.97888  0.65088  1.0000
  H   H406      1.0  0.47644  0.81055  0.63797  1.0000
  H   H407      1.0  0.00688  0.55447  0.49221  1.0000
  H   H408      1.0  0.45776  0.86430  0.66719  1.0000
  C   C253      1.0  0.01168  0.62906  0.46995  1.0000
  C   C254      1.0  0.02056  0.62226  0.52655  1.0000
  H   H409      1.0  0.18597  0.80912  0.62462  1.0000
  C   C255      1.0  0.04260  0.64725  0.51187  1.0000
  S   S94       1.0  0.11541  0.66182  0.65934  1.0000
  H   H410      1.0  0.06297  0.66411  0.52220  1.0000
  C   C256      1.0  0.18667  0.76725  0.62852  1.0000
  C   C257      1.0  0.20029  0.79910  0.62738  1.0000
  C   C258      1.0  0.23219  0.81805  0.62988  1.0000
  C   C259      1.0  0.25097  0.80539  0.63355  1.0000
  C   C260      1.0  0.23737  0.77361  0.63482  1.0000
  C   C261      1.0  0.20549  0.75464  0.63222  1.0000
  H   H411      1.0  0.48839  0.52307  0.52111  1.0000
  C   C262      1.0  0.48829  0.98679  0.50144  1.0000
  H   H412      1.0  0.24217  0.84238  0.62926  1.0000
  H   H413      1.0  0.12166  0.59831  0.55812  1.0000
  C   C263      1.0  0.11600  0.56452  0.62442  1.0000
  C   C264      1.0  0.13262  0.54913  0.62431  1.0000
  C   C265      1.0  0.48771  0.56143  0.60741  1.0000
  H   H414      1.0  0.00889  0.49584  0.53627  1.0000
  C   C266      1.0  0.48152  0.56935  0.63304  1.0000
  C   C267      1.0  0.08422  0.54774  0.62586  1.0000
  H   H415      1.0  0.15725  0.56192  0.62317  1.0000
  H   H416      1.0  0.09260  0.60366  0.54253  1.0000
  H   H417      1.0  0.07149  0.50254  0.52558  1.0000
  N   N16       1.0  0.04612  0.54173  0.54422  1.0000
  C   C268      1.0  0.47602  0.80008  0.65792  1.0000
  C   C269      1.0  0.08573  0.50060  0.62800  1.0000
  C   C270      1.0  0.38429  0.96395  0.52256  1.0000
  H   H418      1.0  0.07117  0.55917  0.62611  1.0000
  C   C271      1.0  0.43946  0.51775  0.63934  1.0000
  C   C272      1.0  0.46919  0.53192  0.59743  1.0000
  C   C273      1.0  0.49374  0.75947  0.63214  1.0000
  H   H419      1.0  0.39067  0.95327  0.53842  1.0000
  H   H420      1.0  0.03563  0.49791  0.56044  1.0000
  C   C274      1.0  0.35829  0.96668  0.52593  1.0000
  Fe  Fe47      1.0  0.06408  0.63978  0.65916  1.0000
  C   C275      1.0  0.01307  0.53844  0.50180  1.0000
  C   C276      1.0  0.07973  0.55574  0.55059  1.0000
  C   C277      1.0  0.46792  0.88347  0.65335  1.0000
  C   C278      1.0  0.11754  0.51723  0.62609  1.0000
  H   H421      1.0  0.13049  0.50554  0.62629  1.0000
  H   H422      1.0  0.19546  0.73025  0.63317  1.0000
  H   H423      1.0  0.47142  0.96795  0.48854  1.0000
  C   C279      1.0  0.06918  0.51600  0.62769  1.0000
  H   H424      1.0  0.48138  0.74265  0.64873  1.0000
  H   H425      1.0  0.01723  0.52705  0.48429  1.0000
  H   H426      1.0  0.45656  0.77650  0.65865  1.0000
  H   H427      1.0  0.48296  0.72375  0.60236  1.0000
  C   C280      1.0  0.09672  0.58984  0.55770  1.0000
  N   N17       1.0  0.26454  0.84417  0.54409  1.0000
  C   C281      1.0  0.29038  0.83835  0.53741  1.0000
  C   C282      1.0  0.25678  0.85480  0.51797  1.0000
  C   C283      1.0  0.23770  0.81450  0.55341  1.0000
  C   C284      1.0  0.27532  0.86763  0.56656  1.0000
  C   C285      1.0  0.29831  0.82167  0.55959  1.0000
  C   C286      1.0  0.28199  0.88555  0.50670  1.0000
  C   C287      1.0  0.20612  0.81216  0.55396  1.0000
  C   C288      1.0  0.25555  0.88215  0.57324  1.0000
  H   H428      1.0  0.28542  0.82468  0.51830  1.0000
  H   H429      1.0  0.31190  0.85999  0.53330  1.0000
  H   H430      1.0  0.23615  0.85692  0.52011  1.0000
  H   H431      1.0  0.25075  0.83756  0.50150  1.0000
  H   H432      1.0  0.23501  0.79560  0.53996  1.0000
  H   H433      1.0  0.24170  0.80860  0.57440  1.0000
  H   H434      1.0  0.27796  0.85796  0.58615  1.0000
  H   H435      1.0  0.29878  0.88657  0.56230  1.0000
  H   H436      1.0  0.31914  0.82114  0.55328  1.0000
  H   H437      1.0  0.30338  0.83330  0.57961  1.0000
  H   H438      1.0  0.27996  0.79774  0.56217  1.0000
  H   H439      1.0  0.27354  0.89128  0.48787  1.0000
  H   H440      1.0  0.28794  0.90424  0.52143  1.0000
  H   H441      1.0  0.30289  0.88505  0.50081  1.0000
  H   H442      1.0  0.19748  0.81192  0.53300  1.0000
  H   H443      1.0  0.20563  0.82997  0.56643  1.0000
  H   H444      1.0  0.18953  0.79015  0.56355  1.0000
  H   H445      1.0  0.24066  0.87095  0.59117  1.0000
  H   H446      1.0  0.24142  0.88239  0.55614  1.0000
  H   H447      1.0  0.27074  0.90644  0.57846  1.0000
  H   H448      1.0  0.09226  0.55345  0.53286  1.0000
  H   H449      1.0  0.09071  0.59384  0.57849  1.0000
  H   H450      1.0  0.25672  0.87624  0.66889  1.0000
  H   H451      1.0  0.04090  0.57148  0.57270  1.0000
  C   C289      1.0  0.39429  0.98892  0.47754  1.0000
  Fe  Fe48      1.0  0.35666  0.94110  0.65718  1.0000
  H   H452      1.0  0.05221  0.51148  0.49898  1.0000
  C   C290      1.0  0.03362  0.50809  0.54080  1.0000
  H   H453      1.0  0.03551  0.53722  0.58752  1.0000
  C   C291      1.0  0.35039  0.98053  0.50490  1.0000
  C   C292      1.0  0.40199  0.97483  0.49848  1.0000
  C   C293      1.0  0.45720  0.54761  0.64883  1.0000
  C   C294      1.0  0.99651  0.53434  0.56699  1.0000
  H   H454      1.0  0.47603  0.76294  0.62216  1.0000
  H   H455      1.0  0.04457  0.50326  0.62920  1.0000
  H   H456      1.0  0.04401  0.57886  0.52438  1.0000
  H   H457      1.0  0.01207  0.70633  0.45324  1.0000
  H   H458      1.0  0.33034  0.98277  0.50722  1.0000
  C   C295      1.0  0.44538  0.50996  0.61353  1.0000
  H   H459      1.0  0.47345  0.52589  0.57738  1.0000
  H   H460      1.0  0.42176  0.97220  0.49604  1.0000
  C   C296      1.0  0.04909  0.49901  0.51843  1.0000
  H   H461      1.0  0.43064  0.96591  0.66423  1.0000
  H   H462      1.0  0.99693  0.67660  0.47768  1.0000
  H   H463      1.0  0.49481  0.97625  0.51817  1.0000
  C   C297      1.0  0.49407  0.93284  0.61754  1.0000
  H   H464      1.0  0.49545  0.59220  0.64069  1.0000
  H   H465      1.0  0.47229  0.99518  0.40040  1.0000
  C   C298      1.0  0.49069  0.99162  0.66994  1.0000
  S   S95       1.0  0.03122  0.61215  0.69399  1.0000
  C   C299      1.0  0.04284  0.62923  0.99773  1.0000
  C   C300      1.0  0.38135  0.95396  0.76963  1.0000
  H   H466      1.0  0.47148  0.81314  0.67364  1.0000
  C   C301      1.0  0.37360  0.95124  0.74153  1.0000
  C   C302      1.0  0.43993  0.98165  0.68204  1.0000
  H   H467      1.0  0.10538  0.61881  0.76681  1.0000
  H   H468      1.0  0.36939  0.93128  0.73028  1.0000
  H   H469      1.0  0.38305  0.93592  0.77975  1.0000
  C   C303      1.0  0.01127  0.62580  0.78369  1.0000
  C   C304      1.0  0.02450  0.61837  0.72857  1.0000
  C   C305      1.0  0.03879  0.64716  0.74055  1.0000
  H   H470      1.0  0.38688  0.93528  0.99649  1.0000
  H   H471      1.0  0.31223  0.86635  0.74231  1.0000
  H   H472      1.0  0.17935  0.61198  0.68960  1.0000
  H   H473      1.0  0.05465  0.66665  0.72864  1.0000
  H   H474      1.0  0.26623  0.92740  0.70863  1.0000
  H   H475      1.0  0.09446  0.64288  0.75015  1.0000
  H   H476      1.0  0.40999  0.92454  0.70513  1.0000
  H   H477      1.0  0.06369  0.64009  0.98588  1.0000
  H   H478      1.0  0.48642  0.51173  0.72025  1.0000
  H   H479      1.0  0.30290  0.92661  0.73516  1.0000
  C   C306      1.0  0.99728  0.59694  0.77183  1.0000
  N   N18       1.0  0.26806  0.87017  0.71029  1.0000
  C   C307      1.0  0.31562  0.86535  0.72000  1.0000
  C   C308      1.0  0.26458  0.87807  0.73940  1.0000
  S   S96       1.0  0.00246  0.63217  0.81751  1.0000
  H   H480      1.0  0.30703  0.84147  0.71370  1.0000
  H   H481      1.0  0.01514  0.53926  0.99878  1.0000
  H   H482      1.0  0.42931  0.90987  0.72475  1.0000
  C   C309      1.0  0.01478  0.61193  0.98418  1.0000
  C   C310      1.0  0.21498  0.82113  0.70939  1.0000
  H   H483      1.0  0.10692  0.54924  0.72892  1.0000
  C   C311      1.0  0.37086  0.97419  0.72827  1.0000
  H   H484      1.0  0.30629  0.90575  0.76364  1.0000
  H   H485      1.0  0.31577  0.90484  0.70426  1.0000
  C   C312      1.0  0.15602  0.59426  0.69575  1.0000
  H   H486      1.0  0.34056  0.87760  0.71612  1.0000
  S   S97       1.0  0.01461  0.60938  0.94780  1.0000
  C   C313      1.0  0.43042  0.93128  0.71803  1.0000
  H   H487      1.0  0.09680  0.55529  0.68346  1.0000
  S   S98       1.0  0.39586  0.98145  0.82040  1.0000
  C   C314      1.0  0.10705  0.63037  0.74711  1.0000
  C   C315      1.0  0.25561  0.88378  0.69008  1.0000
  H   H488      1.0  0.24241  0.87749  0.74195  1.0000
  H   H489      1.0  0.23115  0.87582  0.69416  1.0000
  H   H490      1.0  0.15844  0.58115  0.71272  1.0000
  H   H491      1.0  0.04291  0.67327  0.77679  1.0000
  H   H492      1.0  0.38705  0.96715  0.95766  1.0000
  H   H493      1.0  0.20497  0.79613  0.71087  1.0000
  C   C316      1.0  0.46002  0.95015  0.70155  1.0000
  H   H494      1.0  0.20794  0.82866  0.72791  1.0000
  S   S99       1.0  0.36001  0.97161  0.69313  1.0000
  N   N19       1.0  0.10589  0.58905  0.71480  1.0000
  H   H495      1.0  0.29303  0.89743  0.99889  1.0000
  C   C317      1.0  0.13771  0.60982  0.70412  1.0000
  C   C318      1.0  0.09161  0.60758  0.72358  1.0000
  C   C319      1.0  0.10481  0.56842  0.73753  1.0000
  C   C320      1.0  0.29002  0.90891  0.75065  1.0000
  H   H496      1.0  0.13691  0.62263  0.68587  1.0000
  H   H497      1.0  0.27961  0.91850  0.76458  1.0000
  C   C321      1.0  0.12905  0.58278  0.76053  1.0000
  H   H498      1.0  0.14610  0.57942  0.67766  1.0000
  H   H499      1.0  0.11757  0.57895  0.78074  1.0000
  H   H500      1.0  0.08896  0.58430  0.67316  1.0000
  C   C322      1.0  0.27087  0.91858  0.68955  1.0000
  H   H501      1.0  0.13089  0.64782  0.74258  1.0000
  H   H502      1.0  0.26090  0.92534  0.67251  1.0000
  H   H503      1.0  0.08208  0.55751  0.74768  1.0000
  H   H504      1.0  0.25691  0.82462  0.72245  1.0000
  C   C323      1.0  0.38671  0.97971  0.78485  1.0000
  H   H505      1.0  0.26373  0.86058  0.75375  1.0000
  H   H506      1.0  0.30204  0.87460  0.68104  1.0000
  H   H507      1.0  0.06775  0.59269  0.73059  1.0000
  C   C324      1.0  0.24997  0.83608  0.70693  1.0000
  H   H508      1.0  0.46286  0.98710  0.75728  1.0000
  H   H509      1.0  0.09027  0.62063  0.70584  1.0000
  H   H510      1.0  0.29588  0.86681  0.98522  1.0000
  H   H511      1.0  0.15207  0.62777  0.71887  1.0000
  C   C325      1.0  0.03206  0.65082  0.76788  1.0000
  H   H512      1.0  0.14484  0.60740  0.75862  1.0000
  H   H513      1.0  0.42908  0.94279  0.73667  1.0000
  C   C326      1.0  0.30064  0.87999  0.70292  1.0000
  C   C327      1.0  0.36996  0.99085  0.98169  1.0000
  H   H514      1.0  0.04342  0.53316  0.67759  1.0000
  H   H515      1.0  0.43839  0.99428  0.73531  1.0000
  C   C328      1.0  0.05325  0.54763  0.69602  1.0000
  H   H516      1.0  0.14302  0.57149  0.76151  1.0000
  H   H517      1.0  0.25475  0.82925  0.68668  1.0000
  C   C329      1.0  0.08750  0.56971  0.69086  1.0000
  H   H518      1.0  0.04029  0.55972  0.69876  1.0000
  H   H519      1.0  0.20490  0.82520  0.69075  1.0000
  H   H520      1.0  0.04921  0.53216  0.71350  1.0000
  N   N20       1.0  0.46787  0.98183  0.69313  1.0000
  C   C330      1.0  0.37937  0.96951  0.97772  1.0000
  C   C331      1.0  0.00381  0.59332  0.74442  1.0000
  H   H521      1.0  0.47422  0.52259  0.69045  1.0000
  H   H522      1.0  0.42096  0.97254  0.69696  1.0000
  H   H523      1.0  0.45753  0.93629  0.68305  1.0000
  H   H524      1.0  0.01690  0.49902  0.79651  1.0000
  H   H525      1.0  0.47885  0.95063  0.71379  1.0000
  H   H526      1.0  0.29564  0.92991  0.68557  1.0000
  C   C332      1.0  0.37911  0.95136  0.99979  1.0000
  H   H527      1.0  0.44423  0.98452  0.98448  1.0000
  H   H528      1.0  0.00602  0.68867  0.95826  1.0000
  C   C333      1.0  0.49470  0.52408  0.70048  1.0000
  H   H529      1.0  0.44891  0.99393  0.94902  1.0000
  H   H530      1.0  0.97924  0.31067  0.10567  1.0000
  C   C334      1.0  0.66225  0.99552  0.04120  1.0000
  C   C335      1.0  0.90031  0.49063  0.31414  1.0000
  H   H531      1.0  0.77305  0.15658  0.25188  1.0000
  H   H532      1.0  0.50213  0.03348  0.00785  1.0000
  C   C336      1.0  0.64086  0.01765  0.28220  1.0000
  H   H533      1.0  0.99273  0.24701  0.09206  1.0000
  H   H534      1.0  0.63318  0.02796  0.29724  1.0000
  H   H535      1.0  0.50292  0.47638  0.18545  1.0000
  H   H536      1.0  0.60704  0.01742  0.08368  1.0000
  H   H537      1.0  0.89217  0.46787  0.30543  1.0000
  H   H538      1.0  0.98715  0.35856  0.12375  1.0000
  H   H539      1.0  0.94499  0.30042  0.17709  1.0000
  C   C337      1.0  0.94927  0.26922  0.14677  1.0000
  H   H540      1.0  0.76902  0.19107  0.32547  1.0000
  H   H541      1.0  0.73261  0.06917  0.27011  1.0000
  C   C338      1.0  0.93505  0.45166  0.30599  1.0000
  C   C339      1.0  0.98433  0.26228  0.09919  1.0000
  H   H542      1.0  0.71828  0.10058  0.30224  1.0000
  S   S100      1.0  0.69143  0.03407  0.31594  1.0000
  C   C340      1.0  0.97866  0.33852  0.13751  1.0000
  H   H543      1.0  0.95001  0.49381  0.24925  1.0000
  C   C341      1.0  0.79054  0.05636  0.00431  1.0000
  C   C342      1.0  0.77290  0.15073  0.31956  1.0000
  H   H544      1.0  0.81560  0.14691  0.29008  1.0000
  N   N21       1.0  0.76765  0.12533  0.30014  1.0000
  H   H545      1.0  0.74518  0.09961  0.24541  1.0000
  H   H546      1.0  0.76317  0.08057  0.30432  1.0000
  N   N22       1.0  0.98317  0.29009  0.14339  1.0000
  H   H547      1.0  0.99475  0.35966  0.22899  1.0000
  H   H548      1.0  0.57494  0.01851  0.06972  1.0000
  C   C343      1.0  0.79310  0.13625  0.27952  1.0000
  H   H549      1.0  0.60254  0.00498  0.25511  1.0000
  H   H550      1.0  0.68451  0.04433  0.04003  1.0000
  H   H551      1.0  0.58671  0.03267  0.01434  1.0000
  H   H552      1.0  0.79883  0.07920  0.01330  1.0000
  H   H553      1.0  0.92962  0.26162  0.18825  1.0000
  H   H554      1.0  0.99329  0.28134  0.08434  1.0000
  C   C344      1.0  0.62354  0.00463  0.25823  1.0000
  C   C345      1.0  0.66817  0.01758  0.28640  1.0000
  H   H555      1.0  0.91468  0.47674  0.26609  1.0000
  H   H556      1.0  0.55660  0.03565  0.03034  1.0000
  H   H557      1.0  0.67074  0.46176  0.29649  1.0000
  H   H558      1.0  0.69889  0.00403  0.26937  1.0000
  H   H559      1.0  0.81575  0.11132  0.31863  1.0000
  H   H560      1.0  0.97400  0.25624  0.19168  1.0000
  H   H561      1.0  0.91028  0.27111  0.16341  1.0000
  C   C346      1.0  0.98979  0.31747  0.12631  1.0000
  H   H562      1.0  0.71085  0.48377  0.29130  1.0000
  C   C347      1.0  0.79545  0.16014  0.25868  1.0000
  C   C348      1.0  0.93340  0.27655  0.17029  1.0000
  H   H563      1.0  0.79253  0.11699  0.26814  1.0000
  H   H564      1.0  0.73258  0.12930  0.27722  1.0000
  H   H565      1.0  0.55535  0.05099  0.33475  1.0000
  H   H566      1.0  0.91944  0.44149  0.28835  1.0000
  C   C349      1.0  0.50014  0.05429  0.00737  1.0000
  H   H567      1.0  0.80920  0.18340  0.26715  1.0000
  C   C350      1.0  0.67478  0.02383  0.02787  1.0000
  C   C351      1.0  0.76015  0.17153  0.31117  1.0000
  H   H568      1.0  0.93715  0.26821  0.12737  1.0000
  H   H569      1.0  0.80660  0.15838  0.23971  1.0000
  H   H570      1.0  0.95910  0.24926  0.09823  1.0000
  H   H571      1.0  0.92235  0.45142  0.32459  1.0000
  H   H572      1.0  0.70640  0.07932  0.25644  1.0000
  C   C352      1.0  0.51551  0.07154  0.03393  1.0000
  H   H573      1.0  0.76703  0.18102  0.29033  1.0000
  H   H574      1.0  0.94442  0.24562  0.15067  1.0000
  H   H575      1.0  0.95343  0.32731  0.13724  1.0000
  H   H576      1.0  0.98553  0.34235  0.27748  1.0000
  C   C353      1.0  0.76777  0.10046  0.31706  1.0000
  C   C354      1.0  0.67780  0.00424  0.26640  1.0000
  C   C355      1.0  0.56168  0.02231  0.01539  1.0000
  H   H577      1.0  0.73490  0.15944  0.31304  1.0000
  C   C356      1.0  0.73668  0.11183  0.28664  1.0000
  C   C357      1.0  0.73036  0.08876  0.26346  1.0000
  H   H578      1.0  0.74902  0.09163  0.33249  1.0000
  C   C358      1.0  0.79759  0.10920  0.33272  1.0000
  H   H579      1.0  0.94459  0.43662  0.31065  1.0000
  H   H580      1.0  0.97615  0.48170  0.28396  1.0000
  S   S101      1.0  0.95293  0.34227  0.33407  1.0000
  C   C359      1.0  0.50864  0.42898  0.32273  1.0000
  H   H581      1.0  0.54836  0.48365  0.00539  1.0000
  H   H582      1.0  0.54042  0.08599  0.03034  1.0000
  H   H583      1.0  0.97969  0.31822  0.02575  1.0000
  H   H584      1.0  0.76727  0.04070  0.01179  1.0000
  C   C360      1.0  0.96158  0.48376  0.29996  1.0000
  H   H585      1.0  0.97543  0.49061  0.31897  1.0000
  H   H586      1.0  0.99206  0.25260  0.13998  1.0000
  C   C361      1.0  0.51924  0.46226  0.33028  1.0000
  H   H587      1.0  0.79770  0.16580  0.32364  1.0000
  H   H588      1.0  0.98775  0.34753  0.15813  1.0000
  H   H589      1.0  0.80543  0.04820  0.01316  1.0000
  H   H590      1.0  0.60870  0.01123  0.03505  1.0000
  C   C362      1.0  0.69160  0.48291  0.30284  1.0000
  H   H591      1.0  0.98792  0.40693  0.30171  1.0000
  H   H592      1.0  0.51616  0.47302  0.31153  1.0000
  H   H593      1.0  0.52566  0.42821  0.30888  1.0000
  H   H594      1.0  0.99228  0.31391  0.18246  1.0000
  H   H595      1.0  0.51189  0.05547  0.05089  1.0000
  C   C363      1.0  0.58480  0.00363  0.07310  1.0000
  C   C364      1.0  0.69525  0.48206  0.33409  1.0000
  H   H596      1.0  0.54436  0.47341  0.33355  1.0000
  H   H597      1.0  0.89212  0.48692  0.33567  1.0000
  H   H598      1.0  0.58157  0.43857  0.33658  1.0000
  H   H599      1.0  0.50785  0.08743  0.04052  1.0000
  H   H600      1.0  0.69401  0.99573  0.35989  1.0000
  C   C365      1.0  0.54574  0.28781  0.42964  1.0000
  H   H601      1.0  0.84902  0.17537  0.39332  1.0000
  S   S102      1.0  0.94012  0.34666  0.39899  1.0000
  C   C366      1.0  0.93305  0.47236  0.38548  1.0000
  Fe  Fe49      1.0  0.92415  0.30946  0.36752  1.0000
  S   S103      1.0  0.87244  0.27781  0.36305  1.0000
  Fe  Fe50      1.0  0.97185  0.37788  0.36699  1.0000
  H   H602      1.0  0.52076  0.34455  0.46293  1.0000
  S   S104      1.0  0.95937  0.29665  0.37894  1.0000
  Fe  Fe51      1.0  0.73219  0.10636  0.39389  1.0000
  S   S105      1.0  0.72000  0.05788  0.38704  1.0000
  S   S106      1.0  0.78390  0.13899  0.39684  1.0000
  Fe  Fe52      1.0  0.66471  0.08736  0.39469  1.0000
  S   S107      1.0  0.64826  0.03794  0.38696  1.0000
  S   S108      1.0  0.63337  0.10572  0.40538  1.0000
  Fe  Fe53      1.0  0.68324  0.04409  0.41883  1.0000
  H   H603      1.0  0.56319  0.26789  0.39952  1.0000
  Fe  Fe54      1.0  0.68618  0.05527  0.35565  1.0000
  S   S109      1.0  0.69789  0.09266  0.42821  1.0000
  S   S110      1.0  0.70011  0.10461  0.36097  1.0000
  C   C367      1.0  0.85170  0.23903  0.47281  1.0000
  H   H604      1.0  0.80606  0.13036  0.34470  1.0000
  H   H605      1.0  0.63951  0.02982  0.53410  1.0000
  S   S111      1.0  0.50811  0.06534  0.34400  1.0000
  H   H606      1.0  0.65761  0.03949  0.48580  1.0000
  C   C368      1.0  0.59833  0.09365  0.38841  1.0000
  C   C369      1.0  0.58956  0.07415  0.36588  1.0000
  C   C370      1.0  0.56172  0.06552  0.35256  1.0000
  C   C371      1.0  0.54216  0.07570  0.36206  1.0000
  C   C372      1.0  0.55067  0.09473  0.38491  1.0000
  C   C373      1.0  0.57888  0.10401  0.39778  1.0000
  H   H607      1.0  0.55279  0.34493  0.42616  1.0000
  H   H608      1.0  0.50355  0.30764  0.36353  1.0000
  H   H609      1.0  0.53592  0.10297  0.39215  1.0000
  H   H610      1.0  0.58569  0.11931  0.41507  1.0000
  C   C374      1.0  0.84833  0.23895  0.37197  1.0000
  C   C375      1.0  0.85988  0.22017  0.37988  1.0000
  C   C376      1.0  0.83980  0.18965  0.38720  1.0000
  C   C377      1.0  0.80796  0.17747  0.38677  1.0000
  C   C378      1.0  0.79640  0.19621  0.37879  1.0000
  C   C379      1.0  0.81647  0.22668  0.37131  1.0000
  S   S112      1.0  0.97895  0.33266  0.45644  1.0000
  H   H611      1.0  0.88120  0.22278  0.43585  1.0000
  H   H612      1.0  0.77202  0.18734  0.37864  1.0000
  H   H613      1.0  0.80725  0.24100  0.36530  1.0000
  C   C380      1.0  0.96699  0.44426  0.37101  1.0000
  C   C381      1.0  0.93641  0.42658  0.37859  1.0000
  C   C382      1.0  0.91950  0.44063  0.38578  1.0000
  H   H614      1.0  0.77156  0.11440  0.63169  1.0000
  C   C383      1.0  0.98077  0.47601  0.37135  1.0000
  H   H615      1.0  0.92562  0.40210  0.37836  1.0000
  H   H616      1.0  0.89570  0.42684  0.39123  1.0000
  C   C384      1.0  0.89413  0.23492  0.45452  1.0000
  C   C385      1.0  0.87043  0.29506  0.44117  1.0000
  C   C386      1.0  0.55087  0.42133  0.40063  1.0000
  C   C387      1.0  0.57140  0.44850  0.41382  1.0000
  H   H617      1.0  0.88467  0.31870  0.43370  1.0000
  C   C388      1.0  0.57867  0.44145  0.35813  1.0000
  C   C389      1.0  0.55461  0.41782  0.37276  1.0000
  H   H618      1.0  0.52788  0.99578  0.47756  1.0000
  H   H619      1.0  0.56786  0.07656  0.48318  1.0000
  H   H620      1.0  0.53907  0.39687  0.36251  1.0000
  H   H621      1.0  0.53456  0.34506  0.37253  1.0000
  C   C390      1.0  0.50982  0.46994  0.40801  1.0000
  C   C391      1.0  0.89891  0.29840  0.50147  1.0000
  C   C392      1.0  0.88989  0.27926  0.44109  1.0000
  C   C393      1.0  0.52858  0.32190  0.36584  1.0000
  S   S113      1.0  0.52055  0.39253  0.41944  1.0000
  C   C394      1.0  0.59867  0.46893  0.37111  1.0000
  C   C395      1.0  0.54773  0.26083  0.41751  1.0000
  N   N23       1.0  0.88466  0.25727  0.46411  1.0000
  Fe  Fe55      1.0  0.98932  0.33206  0.34732  1.0000
  H   H622      1.0  0.72968  0.07412  0.65535  1.0000
  H   H623      1.0  0.53419  0.99702  0.65679  1.0000
  H   H624      1.0  0.86156  0.29681  0.46131  1.0000
  H   H625      1.0  0.51060  0.02566  0.40151  1.0000
  C   C396      1.0  0.76232  0.09163  0.62223  1.0000
  C   C397      1.0  0.71175  0.99988  0.58843  1.0000
  C   C398      1.0  0.82916  0.21910  0.45032  1.0000
  H   H626      1.0  0.75041  0.04244  0.59805  1.0000
  H   H627      1.0  0.88429  0.22915  0.38031  1.0000
  C   C399      1.0  0.72951  0.07076  0.63277  1.0000
  N   N24       1.0  0.71447  0.03732  0.62588  1.0000
  H   H628      1.0  0.51524  0.33338  0.41455  1.0000
  H   H629      1.0  0.88861  0.21701  0.47029  1.0000
  H   H630      1.0  0.64098  0.02252  0.64377  1.0000
  C   C400      1.0  0.51237  0.06666  0.49369  1.0000
  C   C401      1.0  0.75243  0.02644  0.65231  1.0000
  C   C402      1.0  0.71958  0.01996  0.64838  1.0000
  H   H631      1.0  0.72044  0.04540  0.58218  1.0000
  C   C403      1.0  0.72534  0.03289  0.59836  1.0000
  H   H632      1.0  0.60447  0.06621  0.35841  1.0000
  H   H633      1.0  0.52947  0.31550  0.47059  1.0000
  H   H634      1.0  0.71622  0.08092  0.62405  1.0000
  H   H635      1.0  0.77817  0.08331  0.62728  1.0000
  Fe  Fe56      1.0  0.97679  0.33539  0.40943  1.0000
  C   C404      1.0  0.57087  0.06372  0.46647  1.0000
  H   H636      1.0  0.76274  0.14159  0.34004  1.0000
  N   N25       1.0  0.51240  0.02563  0.46196  1.0000
  H   H637      1.0  0.90631  0.31787  0.48722  1.0000
  H   H638      1.0  0.52320  0.05991  0.50976  1.0000
  H   H639      1.0  0.67524  0.03512  0.60555  1.0000
  H   H640      1.0  0.90068  0.25701  0.50527  1.0000
  H   H641      1.0  0.91366  0.30750  0.51990  1.0000
  H   H642      1.0  0.83089  0.19853  0.44634  1.0000
  H   H643      1.0  0.87515  0.28983  0.50834  1.0000
  C   C405      1.0  0.92812  0.24831  0.44702  1.0000
  H   H644      1.0  0.72243  0.99986  0.56855  1.0000
  H   H645      1.0  0.53826  0.46502  0.37870  1.0000
  H   H646      1.0  0.93653  0.26833  0.43342  1.0000
  H   H647      1.0  0.53990  0.28752  0.37394  1.0000
  H   H648      1.0  0.59017  0.08042  0.45370  1.0000
  H   H649      1.0  0.56864  0.45128  0.43542  1.0000
  H   H650      1.0  0.91428  0.29733  0.44042  1.0000
  H   H651      1.0  0.88539  0.26751  0.42098  1.0000
  H   H652      1.0  0.83245  0.23161  0.43089  1.0000
  H   H653      1.0  0.61044  0.49352  0.40919  1.0000
  H   H654      1.0  0.57808  0.04802  0.47503  1.0000
  N   N26       1.0  0.50368  0.46707  0.35469  1.0000
  H   H655      1.0  0.66813  0.00027  0.62044  1.0000
  H   H656      1.0  0.92854  0.28529  0.48367  1.0000
  H   H657      1.0  0.80542  0.21103  0.45725  1.0000
  C   C406      1.0  0.52887  0.32561  0.42640  1.0000
  H   H658      1.0  0.85149  0.28418  0.42612  1.0000
  C   C407      1.0  0.54182  0.30738  0.38529  1.0000
  H   H659      1.0  0.52934  0.08883  0.48470  1.0000
  H   H660      1.0  0.94277  0.25442  0.46554  1.0000
  C   C408      1.0  0.90389  0.27354  0.48877  1.0000
  C   C409      1.0  0.68055  0.02519  0.62371  1.0000
  H   H661      1.0  0.84299  0.25347  0.48113  1.0000
  H   H662      1.0  0.84926  0.22366  0.49015  1.0000
  H   H663      1.0  0.66505  0.01697  0.66684  1.0000
  H   H664      1.0  0.79324  0.09089  0.34758  1.0000
  H   H665      1.0  0.53347  0.02458  0.50072  1.0000
  H   H666      1.0  0.53337  0.48139  0.51954  1.0000
  C   C410      1.0  0.65523  0.01978  0.49652  1.0000
  C   C411      1.0  0.59497  0.47246  0.39901  1.0000
  H   H667      1.0  0.56953  0.30697  0.43214  1.0000
  H   H668      1.0  0.72450  0.48273  0.38186  1.0000
  H   H669      1.0  0.52510  0.24171  0.41163  1.0000
  C   C412      1.0  0.50362  0.48088  0.55109  1.0000
  H   H670      1.0  0.53727  0.28137  0.45085  1.0000
  H   H671      1.0  0.67562  0.05465  0.65464  1.0000
  H   H672      1.0  0.50086  0.45125  0.42335  1.0000
  H   H673      1.0  0.54860  0.03401  0.43318  1.0000
  H   H674      1.0  0.69414  0.46018  0.33930  1.0000
  H   H675      1.0  0.49971  0.01591  0.66464  1.0000
  H   H676      1.0  0.53860  0.32430  0.34511  1.0000
  H   H677      1.0  0.54037  0.06401  0.43584  1.0000
  C   C413      1.0  0.64498  0.01424  0.52398  1.0000
  C   C414      1.0  0.54242  0.04667  0.44810  1.0000
  H   H678      1.0  0.93111  0.23096  0.43585  1.0000
  H   H679      1.0  0.55751  0.25214  0.43310  1.0000
  N   N27       1.0  0.52712  0.29796  0.41325  1.0000
  C   C415      1.0  0.51717  0.00890  0.48530  1.0000
  C   C416      1.0  0.96388  0.49005  0.37861  1.0000
  S   S114      1.0  0.91044  0.48887  0.39294  1.0000
  H   H680      1.0  0.56672  0.32380  0.38723  1.0000
  H   H681      1.0  0.97961  0.34668  0.51343  1.0000
  C   C417      1.0  0.51361  0.45756  0.38021  1.0000
  H   H682      1.0  0.76241  0.09486  0.59969  1.0000
  H   H683      1.0  0.76170  0.02169  0.63360  1.0000
  C   C418      1.0  0.66521  0.03045  0.64887  1.0000
  S   S115      1.0  0.67511  0.00549  0.44832  1.0000
  H   H684      1.0  0.74923  0.48553  0.33947  1.0000
  H   H685      1.0  0.53242  0.48748  0.41595  1.0000
  C   C419      1.0  0.66232  0.99982  0.48305  1.0000
  H   H686      1.0  0.67343  0.47534  0.38824  1.0000
  C   C420      1.0  0.51708  0.32215  0.45599  1.0000
  H   H687      1.0  0.50174  0.43238  0.38186  1.0000
  S   S116      1.0  0.98810  0.42762  0.35909  1.0000
  H   H688      1.0  0.50613  0.41479  0.34084  1.0000
  H   H689      1.0  0.67416  0.48052  0.34262  1.0000
  H   H690      1.0  0.50777  0.49312  0.50818  1.0000
  H   H691      1.0  0.51734  0.48003  0.56844  1.0000
  H   H692      1.0  0.76762  0.04991  0.65946  1.0000
  C   C421      1.0  0.49666  0.04266  0.47111  1.0000
  H   H693      1.0  0.71247  0.02450  0.66857  1.0000
  H   H694      1.0  0.75243  0.01115  0.66863  1.0000
  Fe  Fe57      1.0  0.97720  0.33900  0.84745  1.0000
  S   S117      1.0  0.93622  0.34160  0.86169  1.0000
  H   H695      1.0  0.58148  0.41371  0.84381  1.0000
  H   H696      1.0  0.49973  0.30069  0.86681  1.0000
  S   S118      1.0  0.94663  0.32395  0.92359  1.0000
  C   C422      1.0  0.54826  0.49173  0.68578  1.0000
  Fe  Fe58      1.0  0.92256  0.29833  0.88510  1.0000
  S   S119      1.0  0.87140  0.26382  0.88129  1.0000
  Fe  Fe59      1.0  0.96352  0.36643  0.89845  1.0000
  S   S120      1.0  0.97406  0.41166  0.91657  1.0000
  S   S121      1.0  0.96236  0.29440  0.86922  1.0000
  Fe  Fe60      1.0  0.72998  0.09085  0.88140  1.0000
  S   S122      1.0  0.70844  0.03962  0.87807  1.0000
  S   S123      1.0  0.78241  0.11943  0.88132  1.0000
  Fe  Fe61      1.0  0.66799  0.08609  0.88727  1.0000
  S   S124      1.0  0.64292  0.03551  0.88515  1.0000
  S   S125      1.0  0.64288  0.11252  0.88755  1.0000
  Fe  Fe62      1.0  0.67894  0.03778  0.91360  1.0000
  H   H697      1.0  0.50642  0.02992  0.85028  1.0000
  Fe  Fe63      1.0  0.67391  0.04114  0.84970  1.0000
  H   H698      1.0  0.59291  0.00930  0.84185  1.0000
  S   S126      1.0  0.70216  0.08853  0.91844  1.0000
  S   S127      1.0  0.69743  0.09221  0.85056  1.0000
  Fe  Fe64      1.0  0.98727  0.32284  0.90662  1.0000
  H   H699      1.0  0.58716  0.47874  0.96800  1.0000
  C   C423      1.0  0.76374  0.09864  0.97183  1.0000
  H   H700      1.0  0.95583  0.48895  0.82035  1.0000
  H   H701      1.0  0.97181  0.37842  0.96876  1.0000
  C   C424      1.0  0.54557  0.48096  0.80444  1.0000
  C   C425      1.0  0.79453  0.05851  0.97277  1.0000
  C   C426      1.0  0.93615  0.39819  0.80951  1.0000
  H   H702      1.0  0.74962  0.10441  0.98524  1.0000
  H   H703      1.0  0.50931  0.38604  0.79156  1.0000
  C   C427      1.0  0.60351  0.09279  0.89476  1.0000
  C   C428      1.0  0.58510  0.10460  0.88580  1.0000
  C   C429      1.0  0.55345  0.08877  0.89076  1.0000
  C   C430      1.0  0.54029  0.06133  0.90511  1.0000
  C   C431      1.0  0.55882  0.04991  0.91456  1.0000
  C   C432      1.0  0.59027  0.06543  0.90923  1.0000
  H   H704      1.0  0.59532  0.12590  0.87477  1.0000
  H   H705      1.0  0.53934  0.09783  0.88359  1.0000
  H   H706      1.0  0.54875  0.02876  0.92582  1.0000
  H   H707      1.0  0.60433  0.05639  0.91652  1.0000
  C   C433      1.0  0.84729  0.22357  0.88249  1.0000
  C   C434      1.0  0.85865  0.20359  0.88510  1.0000
  C   C435      1.0  0.83848  0.17188  0.88480  1.0000
  C   C436      1.0  0.80672  0.15967  0.88209  1.0000
  C   C437      1.0  0.79541  0.17968  0.87960  1.0000
  C   C438      1.0  0.81557  0.21134  0.87970  1.0000
  H   H708      1.0  0.88293  0.21253  0.88727  1.0000
  H   H709      1.0  0.84755  0.15669  0.88671  1.0000
  H   H710      1.0  0.77112  0.17077  0.87746  1.0000
  H   H711      1.0  0.80645  0.22650  0.87764  1.0000
  C   C439      1.0  0.95723  0.43205  0.90323  1.0000
  C   C440      1.0  0.93154  0.41821  0.88632  1.0000
  C   C441      1.0  0.91898  0.43531  0.87569  1.0000
  C   C442      1.0  0.94965  0.43264  0.80572  1.0000
  C   C443      1.0  0.97021  0.46298  0.90951  1.0000
  H   H712      1.0  0.92114  0.39429  0.88176  1.0000
  H   H713      1.0  0.89892  0.42446  0.86279  1.0000
  C   C444      1.0  0.51263  0.22286  0.85820  1.0000
  H   H714      1.0  0.85289  0.24594  0.82581  1.0000
  C   C445      1.0  0.67481  0.02590  0.99899  1.0000
  C   C446      1.0  0.54181  0.40352  0.86798  1.0000
  C   C447      1.0  0.52865  0.41538  0.88561  1.0000
  C   C448      1.0  0.54424  0.44639  0.89200  1.0000
  C   C449      1.0  0.58682  0.45391  0.86390  1.0000
  C   C450      1.0  0.57110  0.42277  0.85738  1.0000
  H   H715      1.0  0.70190  0.02217  0.78580  1.0000
  H   H716      1.0  0.50100  0.19808  0.86249  1.0000
  S   S128      1.0  0.91666  0.48731  0.86683  1.0000
  H   H717      1.0  0.77798  0.03349  0.90038  1.0000
  H   H718      1.0  0.88916  0.30438  0.77403  1.0000
  C   C451      1.0  0.73331  0.99790  0.97604  1.0000
  H   H719      1.0  0.55775  0.05630  0.84567  1.0000
  C   C452      1.0  0.52722  0.44652  0.81005  1.0000
  H   H720      1.0  0.93934  0.43959  0.82226  1.0000
  H   H721      1.0  0.91392  0.38604  0.79865  1.0000
  H   H722      1.0  0.84569  0.19490  0.82723  1.0000
  C   C453      1.0  0.97700  0.39448  0.98598  1.0000
  H   H723      1.0  0.53768  0.00253  0.87467  1.0000
  H   H724      1.0  0.79359  0.09205  0.93081  1.0000
  C   C454      1.0  0.93866  0.24992  0.80723  1.0000
  C   C455      1.0  0.88382  0.22047  0.75488  1.0000
  H   H725      1.0  0.53711  0.23028  0.85527  1.0000
  H   H726      1.0  0.58999  0.03799  0.86010  1.0000
  H   H727      1.0  0.93212  0.39200  0.83154  1.0000
  C   C456      1.0  0.51338  0.02008  0.83332  1.0000
  S   S129      1.0  0.50093  0.04028  0.91199  1.0000
  C   C457      1.0  0.77754  0.06730  0.92831  1.0000
  H   H728      1.0  0.81268  0.05430  0.92056  1.0000
  H   H729      1.0  0.53935  0.28583  0.92027  1.0000
  C   C458      1.0  0.59464  0.04841  0.80547  1.0000
  H   H730      1.0  0.80345  0.04331  0.96660  1.0000
  C   C459      1.0  0.66309  0.99964  0.98300  1.0000
  H   H731      1.0  0.52429  0.30848  0.90759  1.0000
  C   C460      1.0  0.61751  0.07722  0.82113  1.0000
  H   H732      1.0  0.60756  0.03733  0.79807  1.0000
  H   H733      1.0  0.98198  0.40434  0.84007  1.0000
  H   H734      1.0  0.58672  0.33276  0.85469  1.0000
  C   C461      1.0  0.53975  0.00354  0.77502  1.0000
  H   H735      1.0  0.58840  0.05660  0.78675  1.0000
  C   C462      1.0  0.56340  0.32311  0.86337  1.0000
  H   H736      1.0  0.80477  0.07184  0.89234  1.0000
  C   C463      1.0  0.98836  0.44010  0.75545  1.0000
  H   H737      1.0  0.49957  0.01958  0.81540  1.0000
  H   H738      1.0  0.68424  0.04783  0.98916  1.0000
  C   C464      1.0  0.54788  0.04107  0.82767  1.0000
  H   H739      1.0  0.63485  0.09349  0.80658  1.0000
  C   C465      1.0  0.57697  0.01775  0.84694  1.0000
  H   H740      1.0  0.78660  0.10818  0.98130  1.0000
  C   C466      1.0  0.95783  0.48014  0.89864  1.0000
  H   H741      1.0  0.89328  0.21319  0.81180  1.0000
  C   C467      1.0  0.85595  0.23721  0.80584  1.0000
  H   H742      1.0  0.88068  0.26063  0.75691  1.0000
  H   H743      1.0  0.95003  0.38913  0.80059  1.0000
  C   C468      1.0  0.93218  0.46633  0.88166  1.0000
  H   H744      1.0  0.94757  0.23846  0.82070  1.0000
  H   H745      1.0  0.63027  0.07206  0.83671  1.0000
  H   H746      1.0  0.84334  0.24310  0.79058  1.0000
  H   H747      1.0  0.88661  0.20459  0.76841  1.0000
  C   C469      1.0  0.57320  0.46581  0.88101  1.0000
  H   H748      1.0  0.53364  0.45542  0.90537  1.0000
  S   S130      1.0  0.52137  0.36512  0.85797  1.0000
  N   N28       1.0  0.88942  0.25221  0.79849  1.0000
  H   H749      1.0  0.60647  0.08893  0.83093  1.0000
  C   C470      1.0  0.55014  0.28883  0.86838  1.0000
  H   H750      1.0  0.75997  0.00901  0.94003  1.0000
  H   H751      1.0  0.76574  0.10998  0.95183  1.0000
  H   H752      1.0  0.55188  0.27922  0.84858  1.0000
  H   H753      1.0  0.56561  0.33577  0.88249  1.0000
  C   C471      1.0  0.79418  0.05570  0.90969  1.0000
  C   C472      1.0  0.50760  0.23884  0.88282  1.0000
  H   H754      1.0  0.83951  0.19037  0.79058  1.0000
  H   H755      1.0  0.85979  0.20962  0.74774  1.0000
  C   C473      1.0  0.83821  0.20236  0.80888  1.0000
  H   H756      1.0  0.81333  0.08206  0.96861  1.0000
  H   H757      1.0  0.54230  0.47861  0.96982  1.0000
  H   H758      1.0  0.73904  0.05398  0.98897  1.0000
  H   H759      1.0  0.81371  0.19478  0.81229  1.0000
  C   C474      1.0  0.89370  0.25160  0.76798  1.0000
  H   H760      1.0  0.50639  0.40072  0.89432  1.0000
  H   H761      1.0  0.90283  0.32687  0.80418  1.0000
  C   C475      1.0  0.88926  0.30317  0.79669  1.0000
  H   H762      1.0  0.89861  0.22370  0.73689  1.0000
  H   H763      1.0  0.86584  0.29416  0.80485  1.0000
  H   H764      1.0  0.51606  0.27562  0.82312  1.0000
  H   H765      1.0  0.51922  0.23486  0.90046  1.0000
  H   H766      1.0  0.94145  0.24457  0.78578  1.0000
  H   H767      1.0  0.61205  0.00980  0.99113  1.0000
  C   C476      1.0  0.90483  0.23810  0.81441  1.0000
  H   H768      1.0  0.90330  0.24130  0.83686  1.0000
  C   C477      1.0  0.74780  0.06387  0.96852  1.0000
  C   C478      1.0  0.90426  0.28503  0.80722  1.0000
  H   H769      1.0  0.90477  0.28668  0.82997  1.0000
  H   H770      1.0  0.54971  0.32751  0.84822  1.0000
  H   H771      1.0  0.56619  0.28601  0.88211  1.0000
  H   H772      1.0  0.91779  0.26748  0.76188  1.0000
  H   H773      1.0  0.53769  0.43606  0.79725  1.0000
  H   H774      1.0  0.95328  0.27459  0.81077  1.0000
  H   H775      1.0  0.92846  0.29799  0.80049  1.0000
  H   H776      1.0  0.60918  0.46875  0.85536  1.0000
  C   C479      1.0  0.51991  0.28474  0.90850  1.0000
  H   H777      1.0  0.54928  0.05616  0.81048  1.0000
  H   H778      1.0  0.75798  0.06556  0.91636  1.0000
  H   H779      1.0  0.50155  0.00161  0.72531  1.0000
  H   H780      1.0  0.57720  0.99986  0.97249  1.0000
  H   H781      1.0  0.53218  0.44298  0.83149  1.0000
  C   C480      1.0  0.68276  0.00862  0.77248  1.0000
  N   N29       1.0  0.51828  0.27227  0.88002  1.0000
  N   N30       1.0  0.98390  0.45220  0.80615  1.0000
  H   H782      1.0  0.98114  0.45375  0.85040  1.0000
  S   S131      1.0  0.64553  0.01250  0.81296  1.0000
  H   H783      1.0  0.93966  0.43640  0.78678  1.0000
  H   H784      1.0  0.72689  0.05693  0.95601  1.0000
  H   H785      1.0  0.71032  0.00439  0.74087  1.0000
  H   H786      1.0  0.55717  0.48289  0.70204  1.0000
  H   H787      1.0  0.95750  0.38332  0.00042  1.0000
  N   N31       1.0  0.76689  0.05190  0.95582  1.0000
  H   H788      1.0  0.97594  0.30899  0.97558  1.0000
  H   H789      1.0  0.55391  0.02571  0.99504  1.0000
  C   C481      1.0  0.74704  0.01833  0.95069  1.0000
  H   H790      1.0  0.55949  0.01479  0.76085  1.0000
  H   H791      1.0  0.52807  0.01703  0.77630  1.0000
  S   S132      1.0  0.66460  0.00066  0.94649  1.0000
  H   H792      1.0  0.54596  0.48628  0.78235  1.0000
  H   H793      1.0  0.72780  0.01409  0.93676  1.0000
  H   H794      1.0  0.50267  0.22548  0.83898  1.0000
  N   N32       1.0  0.56647  0.02608  0.82110  1.0000
  H   H795      1.0  0.99005  0.47379  0.92263  1.0000
  C   C482      1.0  0.68746  0.99850  0.74693  1.0000
  H   H796      1.0  0.97779  0.41546  0.97853  1.0000
  C   C483      1.0  0.49595  0.27740  0.86357  1.0000
  H   H797      1.0  0.51064  0.46603  0.85651  1.0000
  H   H798      1.0  0.96359  0.42391  0.75331  1.0000
  H   H799      1.0  0.49980  0.42509  0.76209  1.0000
  H   H800      1.0  0.56966  0.48952  0.81069  1.0000
  C   C484      1.0  0.65328  0.00091  0.78082  1.0000
  H   H801      1.0  0.53739  0.49386  0.81661  1.0000
  H   H802      1.0  0.53210  0.00036  0.69305  1.0000
  H   H803      1.0  0.50923  0.11064  0.99342  1.0000
  H   H804      1.0  0.51477  0.06726  0.98963  1.0000
  S   S133      1.0  0.98859  0.35595  0.80285  1.0000
  H   H805      1.0  0.50638  0.99666  0.83960  1.0000
  H   H806      1.0  0.98162  0.48487  0.77880  1.0000
  C   C485      1.0  0.99175  0.48420  0.79885  1.0000
  H   H807      1.0  0.49763  0.45773  0.76903  1.0000
  C   C486      1.0  0.51445  0.49364  0.98966  1.0000
  H   H808      1.0  0.99406  0.46250  0.74686  1.0000
  C   C487      1.0  0.54976  0.99824  0.80340  1.0000
  C   C488      1.0  0.54525  0.49450  0.98677  1.0000
  H   H809      1.0  0.75109  0.99626  0.98800  1.0000
  H   H810      1.0  0.72038  0.00502  0.98939  1.0000
  H   H811      1.0  0.53284  0.47166  0.67347  1.0000
  H   H812      1.0  0.49591  0.46962  0.99136  1.0000
  S   S134      1.0  0.63808  0.62586  0.31362  1.0000
  Fe  Fe65      1.0  0.62078  0.64432  0.08774  1.0000
  S   S135      1.0  0.58604  0.65975  0.08526  1.0000
  S   S136      1.0  0.63307  0.61840  0.05640  1.0000
  Fe  Fe66      1.0  0.62984  0.65699  0.15045  1.0000
  S   S137      1.0  0.59633  0.67389  0.15234  1.0000
  S   S138      1.0  0.65744  0.65070  0.18450  1.0000
  Fe  Fe67      1.0  0.56735  0.63424  0.12471  1.0000
  S   S139      1.0  0.51720  0.60505  0.13454  1.0000
  Fe  Fe68      1.0  0.61756  0.69858  0.11292  1.0000
  S   S140      1.0  0.62984  0.74726  0.10127  1.0000
  S   S141      1.0  0.59935  0.61598  0.12551  1.0000
  S   S142      1.0  0.65375  0.68463  0.11284  1.0000
  H   H813      1.0  0.58459  0.53213  0.24126  1.0000
  Fe  Fe69      1.0  0.61373  0.89735  0.14085  1.0000
  S   S143      1.0  0.65026  0.94628  0.14887  1.0000
  S   S144      1.0  0.61278  0.85335  0.15422  1.0000
  Fe  Fe70      1.0  0.56751  0.91599  0.12280  1.0000
  S   S145      1.0  0.59993  0.96526  0.12964  1.0000
  S   S146      1.0  0.52170  0.89986  0.10249  1.0000
  Fe  Fe71      1.0  0.63449  0.95681  0.10861  1.0000
  H   H814      1.0  0.52399  0.84624  0.11973  1.0000
  Fe  Fe72      1.0  0.61310  0.95168  0.16915  1.0000
  H   H815      1.0  0.60445  0.58242  0.17785  1.0000
  S   S147      1.0  0.60106  0.90780  0.09950  1.0000
  S   S148      1.0  0.57760  0.90258  0.16344  1.0000
  H   H816      1.0  0.51382  0.51294  0.09962  1.0000
  H   H817      1.0  0.55532  0.56215  0.23951  1.0000
  C   C489      1.0  0.54057  0.51806  0.20218  1.0000
  H   H818      1.0  0.75373  0.51125  0.31343  1.0000
  H   H819      1.0  0.66829  0.98121  0.22719  1.0000
  H   H820      1.0  0.63998  0.94729  0.03509  1.0000
  H   H821      1.0  0.98475  0.67058  0.04781  1.0000
  H   H822      1.0  0.76197  0.57356  0.31783  1.0000
  H   H823      1.0  0.51024  0.89854  0.16117  1.0000
  H   H824      1.0  0.59783  0.95369  0.31335  1.0000
  H   H825      1.0  0.64243  0.66444  0.01473  1.0000
  C   C490      1.0  0.53169  0.78469  0.13480  1.0000
  C   C491      1.0  0.50148  0.52221  0.11014  1.0000
  C   C492      1.0  0.64889  0.64890  0.00603  1.0000
  C   C493      1.0  0.62377  0.77590  0.11611  1.0000
  C   C494      1.0  0.61215  0.77342  0.14260  1.0000
  C   C495      1.0  0.60934  0.79747  0.15391  1.0000
  C   C496      1.0  0.61733  0.82403  0.13874  1.0000
  C   C497      1.0  0.62829  0.82622  0.11204  1.0000
  C   C498      1.0  0.63173  0.80244  0.10095  1.0000
  H   H826      1.0  0.60552  0.75307  0.15440  1.0000
  H   H827      1.0  0.60068  0.79539  0.17453  1.0000
  H   H828      1.0  0.63465  0.84645  0.10009  1.0000
  H   H829      1.0  0.64079  0.80469  0.08046  1.0000
  C   C499      1.0  0.60243  0.96198  0.33486  1.0000
  C   C500      1.0  0.51489  0.55376  0.11324  1.0000
  H   H830      1.0  0.59759  0.55192  0.03891  1.0000
  C   C501      1.0  0.64383  0.63253  0.27770  1.0000
  C   C502      1.0  0.62634  0.64259  0.26331  1.0000
  C   C503      1.0  0.63000  0.64813  0.23480  1.0000
  C   C504      1.0  0.65124  0.64359  0.22031  1.0000
  C   C505      1.0  0.66888  0.63377  0.23471  1.0000
  C   C506      1.0  0.66511  0.62809  0.26318  1.0000
  H   H831      1.0  0.60986  0.64616  0.27435  1.0000
  H   H832      1.0  0.61631  0.65575  0.22410  1.0000
  H   H833      1.0  0.68559  0.63047  0.22378  1.0000
  H   H834      1.0  0.67883  0.62052  0.27393  1.0000
  C   C507      1.0  0.65563  0.60530  0.01036  1.0000
  C   C508      1.0  0.64704  0.62521  0.02210  1.0000
  H   H835      1.0  0.50613  0.54613  0.21319  1.0000
  H   H836      1.0  0.53475  0.74359  0.13812  1.0000
  H   H837      1.0  0.65471  0.58717  0.02269  1.0000
  H   H838      1.0  0.60266  0.55336  0.13900  1.0000
  S   S149      1.0  0.61043  0.97575  0.20814  1.0000
  N   N33       1.0  0.68700  0.74843  0.18742  1.0000
  C   C509      1.0  0.70766  0.73587  0.18029  1.0000
  C   C510      1.0  0.67602  0.75474  0.16075  1.0000
  C   C511      1.0  0.66019  0.72398  0.20293  1.0000
  C   C512      1.0  0.70455  0.77647  0.20480  1.0000
  C   C513      1.0  0.72056  0.72636  0.20470  1.0000
  C   C514      1.0  0.70124  0.77683  0.14105  1.0000
  C   C515      1.0  0.63490  0.73080  0.21127  1.0000
  C   C516      1.0  0.69317  0.79968  0.20481  1.0000
  H   H839      1.0  0.69568  0.71578  0.16654  1.0000
  H   H840      1.0  0.72797  0.75277  0.16864  1.0000
  H   H841      1.0  0.66048  0.76386  0.16390  1.0000
  H   H842      1.0  0.66188  0.73327  0.14934  1.0000
  H   H843      1.0  0.64917  0.70265  0.19076  1.0000
  H   H844      1.0  0.66763  0.71829  0.22241  1.0000
  H   H845      1.0  0.70539  0.77005  0.22650  1.0000
  H   H846      1.0  0.72872  0.78933  0.19778  1.0000
  H   H847      1.0  0.70272  0.70581  0.21520  1.0000
  H   H848      1.0  0.73736  0.72022  0.19680  1.0000
  H   H849      1.0  0.73261  0.74491  0.21973  1.0000
  H   H850      1.0  0.71939  0.79700  0.15165  1.0000
  H   H851      1.0  0.71142  0.76512  0.12974  1.0000
  H   H852      1.0  0.69105  0.78502  0.12538  1.0000
  H   H853      1.0  0.61600  0.71008  0.22080  1.0000
  H   H854      1.0  0.62485  0.73634  0.19356  1.0000
  H   H855      1.0  0.64301  0.74879  0.22708  1.0000
  H   H856      1.0  0.69746  0.81046  0.22535  1.0000
  H   H857      1.0  0.66863  0.79029  0.20061  1.0000
  H   H858      1.0  0.70671  0.81853  0.19028  1.0000
  H   H859      1.0  0.97791  0.55523  0.28171  1.0000
  C   C517      1.0  0.58845  0.55751  0.17992  1.0000
  N   N34       1.0  0.95323  0.50728  0.29172  1.0000
  C   C518      1.0  0.53432  0.75849  0.12164  1.0000
  S   S150      1.0  0.95501  0.59557  0.29878  1.0000
  H   H860      1.0  0.54442  0.85512  0.07916  1.0000
  H   H861      1.0  0.49960  0.92815  0.02132  1.0000
  H   H862      1.0  0.56340  0.55429  0.04317  1.0000
  C   C519      1.0  0.98264  0.53673  0.28702  1.0000
  C   C520      1.0  0.54303  0.94373  0.04399  1.0000
  C   C521      1.0  0.96365  0.65928  0.03519  1.0000
  H   H863      1.0  0.55387  0.50601  0.20304  1.0000
  H   H864      1.0  0.92087  0.53204  0.26716  1.0000
  H   H865      1.0  0.55654  0.93275  0.05009  1.0000
  H   H866      1.0  0.51417  0.81308  0.17431  1.0000
  H   H867      1.0  0.59809  0.56563  0.26175  1.0000
  H   H868      1.0  0.52267  0.50406  0.15966  1.0000
  C   C522      1.0  0.93654  0.49834  0.26469  1.0000
  H   H869      1.0  0.91184  0.51104  0.23576  1.0000
  H   H870      1.0  0.51480  0.74422  0.10805  1.0000
  H   H871      1.0  0.49696  0.50788  0.18242  1.0000
  H   H872      1.0  0.52543  0.82151  0.05775  1.0000
  H   H873      1.0  0.53736  0.56866  0.10502  1.0000
  H   H874      1.0  0.55333  0.79903  0.14613  1.0000
  H   H875      1.0  0.96853  0.59170  0.04035  1.0000
  H   H876      1.0  0.55612  0.76703  0.11030  1.0000
  H   H877      1.0  0.55124  0.84387  0.14001  1.0000
  H   H878      1.0  0.95006  0.54046  0.24187  1.0000
  H   H879      1.0  0.57185  0.82965  0.10275  1.0000
  N   N35       1.0  0.56265  0.97292  0.02849  1.0000
  H   H880      1.0  0.61204  0.91347  0.31626  1.0000
  H   H881      1.0  0.56578  0.54951  0.13929  1.0000
  H   H882      1.0  0.58914  0.87681  0.33125  1.0000
  C   C523      1.0  0.52112  0.56806  0.20290  1.0000
  C   C524      1.0  0.61041  0.89895  0.33389  1.0000
  H   H883      1.0  0.51383  0.77404  0.15090  1.0000
  H   H884      1.0  0.54916  0.79722  0.08219  1.0000
  C   C525      1.0  0.54409  0.98820  0.02322  1.0000
  H   H885      1.0  0.56035  0.51864  0.03723  1.0000
  H   H886      1.0  0.98137  0.52654  0.10427  1.0000
  H   H887      1.0  0.61782  0.56767  0.23105  1.0000
  H   H888      1.0  0.51869  0.97811  0.24865  1.0000
  C   C526      1.0  0.98685  0.61388  0.27617  1.0000
  H   H889      1.0  0.94398  0.51046  0.33463  1.0000
  H   H890      1.0  0.90929  0.61821  0.01025  1.0000
  H   H891      1.0  0.56252  0.59103  0.17940  1.0000
  H   H892      1.0  0.97317  0.52859  0.06836  1.0000
  H   H893      1.0  0.98744  0.53852  0.02126  1.0000
  H   H894      1.0  0.73800  0.54038  0.29717  1.0000
  H   H895      1.0  0.95031  0.67063  0.03974  1.0000
  H   H896      1.0  0.58738  0.59172  0.22256  1.0000
  H   H897      1.0  0.72571  0.56604  0.30699  1.0000
  H   H898      1.0  0.88872  0.50173  0.30405  1.0000
  H   H899      1.0  0.57015  0.98513  0.08744  1.0000
  H   H900      1.0  0.57156  0.51896  0.15155  1.0000
  C   C527      1.0  0.98937  0.60219  0.02850  1.0000
  H   H901      1.0  0.60199  0.54815  0.18942  1.0000
  C   C528      1.0  0.57380  0.54289  0.03163  1.0000
  C   C529      1.0  0.54874  0.81594  0.09349  1.0000
  H   H902      1.0  0.93881  0.53532  0.31283  1.0000
  C   C530      1.0  0.54574  0.56710  0.18495  1.0000
  H   H903      1.0  0.64555  0.96557  0.32552  1.0000
  H   H904      1.0  0.50017  0.90108  0.04415  1.0000
  H   H905      1.0  0.53173  0.58627  0.21852  1.0000
  C   C531      1.0  0.63324  0.99143  0.23810  1.0000
  H   H906      1.0  0.51354  0.50525  0.00857  1.0000
  C   C532      1.0  0.58109  0.54388  0.15090  1.0000
  H   H907      1.0  0.95101  0.63536  0.04225  1.0000
  C   C533      1.0  0.57412  0.56667  0.22504  1.0000
  H   H908      1.0  0.99399  0.50258  0.04320  1.0000
  C   C534      1.0  0.59472  0.55710  0.24033  1.0000
  H   H909      1.0  0.53467  0.94829  0.06348  1.0000
  H   H910      1.0  0.53476  0.55634  0.16537  1.0000
  H   H911      1.0  0.56588  0.84468  0.05751  1.0000
  H   H912      1.0  0.53003  0.98609  0.04158  1.0000
  N   N36       1.0  0.56164  0.55168  0.19769  1.0000
  C   C535      1.0  0.54547  0.83540  0.07098  1.0000
  N   N37       1.0  0.52471  0.80383  0.11562  1.0000
  H   H913      1.0  0.95911  0.59327  0.24041  1.0000
  H   H914      1.0  0.62959  0.89425  0.33315  1.0000
  C   C536      1.0  0.64957  0.96922  0.02521  1.0000
  C   C537      1.0  0.66050  0.99125  0.24241  1.0000
  C   C538      1.0  0.52751  0.83010  0.13219  1.0000
  C   C539      1.0  0.98196  0.60817  0.24785  1.0000
  C   C540      1.0  0.92948  0.52197  0.25193  1.0000
  H   H915      1.0  0.58571  0.95330  0.00650  1.0000
  C   C541      1.0  0.93532  0.51197  0.31408  1.0000
  C   C542      1.0  0.98759  0.54147  0.08598  1.0000
  H   H916      1.0  0.98213  0.55954  0.09102  1.0000
  H   H917      1.0  0.52899  0.51366  0.22245  1.0000
  C   C543      1.0  0.73835  0.55471  0.31426  1.0000
  H   H918      1.0  0.60137  0.97789  0.05170  1.0000
  H   H919      1.0  0.50637  0.84238  0.16473  1.0000
  C   C544      1.0  0.50609  0.82164  0.15716  1.0000
  C   C545      1.0  0.97275  0.66196  0.00466  1.0000
  C   C546      1.0  0.51419  0.91928  0.02920  1.0000
  H   H920      1.0  0.50654  0.57360  0.18984  1.0000
  C   C547      1.0  0.49946  0.56587  0.12748  1.0000
  H   H921      1.0  0.68791  0.50188  0.29679  1.0000
  H   H922      1.0  0.99369  0.54847  0.33082  1.0000
  H   H923      1.0  0.60340  0.98430  0.33448  1.0000
  H   H924      1.0  0.51988  0.90809  0.01259  1.0000
  C   C548      1.0  0.51464  0.50111  0.18107  1.0000
  H   H925      1.0  0.60130  0.51540  0.00761  1.0000
  H   H926      1.0  0.50433  0.50595  0.33590  1.0000
  S   S151      1.0  0.68232  0.58055  0.33579  1.0000
  S   S152      1.0  0.66378  0.99440  0.07767  1.0000
  H   H927      1.0  0.99531  0.53485  0.26914  1.0000
  C   C549      1.0  0.59045  0.99152  0.04607  1.0000
  H   H928      1.0  0.80101  0.53340  0.33637  1.0000
  C   C550      1.0  0.75125  0.50812  0.33589  1.0000
  H   H929      1.0  0.49625  0.98670  0.27087  1.0000
  H   H930      1.0  0.52725  0.97620  0.00656  1.0000
  H   H931      1.0  0.98343  0.50952  0.56369  1.0000
  H   H932      1.0  0.58133  0.82520  0.66423  1.0000
  Fe  Fe73      1.0  0.65855  0.59603  0.40744  1.0000
  S   S153      1.0  0.68155  0.56772  0.40281  1.0000
  S   S154      1.0  0.63326  0.60126  0.44443  1.0000
  Fe  Fe74      1.0  0.71232  0.60342  0.37237  1.0000
  S   S155      1.0  0.76323  0.62109  0.36450  1.0000
  Fe  Fe75      1.0  0.65052  0.54672  0.36652  1.0000
  N   N38       1.0  0.54807  0.52834  0.52859  1.0000
  S   S156      1.0  0.69137  0.63341  0.37919  1.0000
  S   S157      1.0  0.62529  0.57179  0.37305  1.0000
  Fe  Fe76      1.0  0.90082  0.58187  0.38960  1.0000
  S   S158      1.0  0.94578  0.62212  0.37676  1.0000
  S   S159      1.0  0.85613  0.57799  0.40538  1.0000
  Fe  Fe77      1.0  0.92745  0.53892  0.38690  1.0000
  H   H933      1.0  0.60178  0.96139  0.42315  1.0000
  Fe  Fe78      1.0  0.96757  0.60380  0.40618  1.0000
  H   H934      1.0  0.75037  0.76880  0.56630  1.0000
  H   H935      1.0  0.70496  0.99510  0.64515  1.0000
  S   S160      1.0  0.92272  0.56592  0.42087  1.0000
  H   H936      1.0  0.55798  0.51731  0.37430  1.0000
  Fe  Fe79      1.0  0.60306  0.62300  0.65837  1.0000
  C   C551      1.0  0.69251  0.97671  0.37216  1.0000
  H   H937      1.0  0.99089  0.54652  0.55123  1.0000
  H   H938      1.0  0.75656  0.80090  0.54670  1.0000
  C   C552      1.0  0.78868  0.60877  0.37624  1.0000
  C   C553      1.0  0.81674  0.61918  0.36266  1.0000
  C   C554      1.0  0.83753  0.60980  0.37099  1.0000
  C   C555      1.0  0.83071  0.59021  0.39337  1.0000
  C   C556      1.0  0.80277  0.58002  0.40710  1.0000
  C   C557      1.0  0.78178  0.58901  0.39851  1.0000
  C   C558      1.0  0.50639  0.80135  0.66495  1.0000
  C   C559      1.0  0.69398  0.76962  0.60749  1.0000
  H   H939      1.0  0.63513  0.94238  0.41027  1.0000
  S   S161      1.0  0.52075  0.88132  0.65971  1.0000
  C   C560      1.0  0.64372  0.61648  0.47815  1.0000
  C   C561      1.0  0.62311  0.62180  0.49321  1.0000
  C   C562      1.0  0.67078  0.62181  0.49083  1.0000
  H   H940      1.0  0.60229  0.61813  0.48353  1.0000
  H   H941      1.0  0.68690  0.61789  0.47957  1.0000
  H   H942      1.0  0.91429  0.62742  0.42545  1.0000
  H   H943      1.0  0.65591  0.73586  0.52737  1.0000
  Fe  Fe80      1.0  0.62884  0.64517  0.59970  1.0000
  S   S162      1.0  0.59685  0.66278  0.59121  1.0000
  S   S163      1.0  0.66377  0.64782  0.56850  1.0000
  H   H944      1.0  0.99283  0.52188  0.51339  1.0000
  C   C563      1.0  0.49879  0.89632  0.64608  1.0000
  Fe  Fe81      1.0  0.56167  0.61913  0.61075  1.0000
  H   H945      1.0  0.61961  0.71506  0.54345  1.0000
  Fe  Fe82      1.0  0.60688  0.68105  0.63431  1.0000
  S   S164      1.0  0.61926  0.72839  0.64994  1.0000
  S   S165      1.0  0.59313  0.60058  0.61688  1.0000
  S   S166      1.0  0.64193  0.66651  0.64183  1.0000
  Fe  Fe83      1.0  0.61513  0.88568  0.62384  1.0000
  S   S167      1.0  0.65324  0.93458  0.62289  1.0000
  S   S168      1.0  0.61500  0.84444  0.60440  1.0000
  Fe  Fe84      1.0  0.56968  0.90343  0.64523  1.0000
  S   S169      1.0  0.60364  0.95319  0.64585  1.0000
  H   H946      1.0  0.61512  0.55950  0.56819  1.0000
  Fe  Fe85      1.0  0.61908  0.94573  0.60454  1.0000
  N   N39       1.0  0.93409  0.65400  0.46222  1.0000
  H   H947      1.0  0.88299  0.65141  0.41196  1.0000
  S   S170      1.0  0.58211  0.89686  0.60275  1.0000
  C   C564      1.0  0.72383  0.53784  0.34142  1.0000
  H   H948      1.0  0.64737  0.99050  0.35148  1.0000
  C   C565      1.0  0.96337  0.67669  0.44838  1.0000
  C   C566      1.0  0.65586  0.74298  0.57209  1.0000
  C   C567      1.0  0.66403  0.94619  0.36484  1.0000
  N   N40       1.0  0.72331  0.50827  0.34654  1.0000
  H   H949      1.0  0.64636  0.94905  0.53564  1.0000
  C   C568      1.0  0.61619  0.75963  0.63723  1.0000
  C   C569      1.0  0.62749  0.78596  0.65339  1.0000
  C   C570      1.0  0.62687  0.81190  0.64393  1.0000
  C   C571      1.0  0.61498  0.81189  0.61805  1.0000
  C   C572      1.0  0.60354  0.78550  0.60189  1.0000
  C   C573      1.0  0.60387  0.75943  0.61147  1.0000
  C   C574      1.0  0.72211  0.50290  0.37712  1.0000
  S   S171      1.0  0.62828  0.49803  0.35192  1.0000
  H   H950      1.0  0.59441  0.78526  0.58177  1.0000
  H   H951      1.0  0.59489  0.73934  0.59883  1.0000
  H   H952      1.0  0.91469  0.58600  0.49635  1.0000
  H   H953      1.0  0.57628  0.51171  0.54698  1.0000
  H   H954      1.0  0.70030  0.53434  0.34249  1.0000
  C   C575      1.0  0.62890  0.63140  0.52076  1.0000
  C   C576      1.0  0.65569  0.63620  0.53361  1.0000
  C   C577      1.0  0.67675  0.63174  0.51835  1.0000
  H   H955      1.0  0.61262  0.63504  0.53206  1.0000
  H   H956      1.0  0.69765  0.63556  0.52799  1.0000
  H   H957      1.0  0.54585  0.53760  0.48558  1.0000
  C   C578      1.0  0.54024  0.78030  0.65917  1.0000
  H   H958      1.0  0.57924  0.56457  0.50145  1.0000
  C   C579      1.0  0.50361  0.74387  0.61059  1.0000
  C   C580      1.0  0.90841  0.60107  0.48501  1.0000
  H   H959      1.0  0.94227  0.69366  0.52222  1.0000
  H   H960      1.0  0.69760  0.80948  0.62732  1.0000
  C   C581      1.0  0.92479  0.66890  0.48396  1.0000
  C   C582      1.0  0.74359  0.78632  0.56434  1.0000
  H   H961      1.0  0.96957  0.58686  0.47424  1.0000
  H   H962      1.0  0.95529  0.63545  0.48923  1.0000
  H   H963      1.0  0.70517  0.75864  0.53927  1.0000
  H   H964      1.0  0.88697  0.62491  0.44961  1.0000
  Fe  Fe86      1.0  0.94905  0.59088  0.34554  1.0000
  H   H965      1.0  0.66448  0.95873  0.48731  1.0000
  H   H966      1.0  0.85890  0.61791  0.36022  1.0000
  C   C583      1.0  0.57067  0.53008  0.54978  1.0000
  H   H967      1.0  0.53553  0.93099  0.62237  1.0000
  H   H968      1.0  0.70943  0.81616  0.59235  1.0000
  S   S172      1.0  0.51870  0.58781  0.58769  1.0000
  H   H969      1.0  0.96875  0.66568  0.43119  1.0000
  H   H970      1.0  0.79731  0.56500  0.42453  1.0000
  C   C584      1.0  0.71230  0.72463  0.60700  1.0000
  H   H971      1.0  0.67754  0.75468  0.62342  1.0000
  H   H972      1.0  0.55328  0.57228  0.53839  1.0000
  H   H973      1.0  0.89257  0.58714  0.46841  1.0000
  H   H974      1.0  0.92287  0.65387  0.52662  1.0000
  H   H975      1.0  0.71684  0.77621  0.61588  1.0000
  N   N41       1.0  0.63375  0.94539  0.36599  1.0000
  H   H976      1.0  0.92982  0.69182  0.47705  1.0000
  C   C585      1.0  0.60098  0.56044  0.55119  1.0000
  C   C586      1.0  0.63079  0.95552  0.39430  1.0000
  H   H977      1.0  0.97462  0.51451  0.37875  1.0000
  C   C587      1.0  0.51272  0.50016  0.35484  1.0000
  H   H978      1.0  0.50928  0.54063  0.65178  1.0000
  C   C588      1.0  0.60038  0.95383  0.40155  1.0000
  H   H979      1.0  0.53796  0.53262  0.61591  1.0000
  H   H980      1.0  0.66398  0.92877  0.37880  1.0000
  H   H981      1.0  0.53276  0.82867  0.58309  1.0000
  H   H982      1.0  0.63958  0.73043  0.58903  1.0000
  H   H983      1.0  0.78432  0.55487  0.34863  1.0000
  H   H984      1.0  0.55109  0.80445  0.61017  1.0000
  C   C589      1.0  0.65906  0.97433  0.49746  1.0000
  H   H985      1.0  0.50130  0.56129  0.53065  1.0000
  C   C590      1.0  0.53733  0.81158  0.62259  1.0000
  H   H986      1.0  0.61464  0.56510  0.53218  1.0000
  H   H987      1.0  0.78462  0.52579  0.36975  1.0000
  H   H988      1.0  0.70378  0.72495  0.62790  1.0000
  N   N42       1.0  0.68805  0.75251  0.58084  1.0000
  C   C591      1.0  0.93896  0.67233  0.51282  1.0000
  C   C592      1.0  0.63372  0.96666  0.34439  1.0000
  H   H989      1.0  0.75072  0.80107  0.58270  1.0000
  H   H990      1.0  0.58065  0.93051  0.40053  1.0000
  H   H991      1.0  0.59647  0.96974  0.38901  1.0000
  H   H992      1.0  0.52333  0.82553  0.66936  1.0000
  H   H993      1.0  0.97695  0.58122  0.52378  1.0000
  H   H994      1.0  0.90198  0.68025  0.43717  1.0000
  C   C593      1.0  0.51180  0.92102  0.62815  1.0000
  H   H995      1.0  0.94590  0.61901  0.45665  1.0000
  H   H996      1.0  0.73577  0.74385  0.60481  1.0000
  H   H997      1.0  0.55119  0.54589  0.36027  1.0000
  H   H998      1.0  0.98867  0.53878  0.58682  1.0000
  C   C594      1.0  0.52516  0.51460  0.63137  1.0000
  H   H999      1.0  0.70477  0.79067  0.55300  1.0000
  H   H1000     1.0  0.64835  0.97964  0.39752  1.0000
  H   H1001     1.0  0.58604  0.90970  0.36341  1.0000
  H   H1002     1.0  0.58266  0.94687  0.34766  1.0000
  C   C595      1.0  0.56295  0.53980  0.50109  1.0000
  H   H1003     1.0  0.89962  0.65559  0.48709  1.0000
  C   C596      1.0  0.90955  0.64099  0.44048  1.0000
  C   C597      1.0  0.64160  0.98869  0.53835  1.0000
  Fe  Fe87      1.0  0.63557  0.93941  0.66421  1.0000
  H   H1004     1.0  0.56062  0.52614  0.57069  1.0000
  C   C598      1.0  0.69010  0.72402  0.58491  1.0000
  H   H1005     1.0  0.52740  0.54266  0.55982  1.0000
  H   H1006     1.0  0.96117  0.69543  0.43899  1.0000
  H   H1007     1.0  0.66758  0.70461  0.59104  1.0000
  C   C599      1.0  0.70929  0.77199  0.55842  1.0000
  C   C600      1.0  0.64426  0.72293  0.54613  1.0000
  H   H1008     1.0  0.68700  0.51557  0.38602  1.0000
  C   C601      1.0  0.52262  0.52969  0.65787  1.0000
  H   H1009     1.0  0.69727  0.50035  0.41445  1.0000
  S   S173      1.0  0.90253  0.55196  0.35676  1.0000
  H   H1010     1.0  0.61023  0.89819  0.37814  1.0000
  C   C602      1.0  0.99421  0.60063  0.51268  1.0000
  S   S174      1.0  0.56855  0.63842  0.65323  1.0000
  H   H1011     1.0  0.50194  0.50583  0.37178  1.0000
  C   C603      1.0  0.64880  0.96878  0.52493  1.0000
  S   S175      1.0  0.62862  0.98310  0.57301  1.0000
  H   H1012     1.0  0.51786  0.84024  0.61119  1.0000
  Fe  Fe88      1.0  0.65920  0.60737  0.34454  1.0000
  H   H1013     1.0  0.59729  0.57972  0.55566  1.0000
  H   H1014     1.0  0.71645  0.98583  0.60283  1.0000
  H   H1015     1.0  0.63613  0.83208  0.65648  1.0000
  H   H1016     1.0  0.58930  0.51539  0.50382  1.0000
  H   H1017     1.0  0.76047  0.58102  0.40934  1.0000
  H   H1018     1.0  0.96139  0.67362  0.51342  1.0000
  C   C604      1.0  0.90447  0.66398  0.42390  1.0000
  C   C605      1.0  0.69239  0.79915  0.60656  1.0000
  S   S176      1.0  0.97397  0.57557  0.37392  1.0000
  C   C606      1.0  0.98991  0.60380  0.48454  1.0000
  H   H1019     1.0  0.92291  0.67625  0.40866  1.0000
  H   H1020     1.0  0.64644  0.70231  0.54746  1.0000
  H   H1021     1.0  0.66933  0.79510  0.60145  1.0000
  H   H1022     1.0  0.71345  0.70340  0.60548  1.0000
  H   H1023     1.0  0.55489  0.83302  0.63226  1.0000
  C   C607      1.0  0.53526  0.54792  0.53819  1.0000
  H   H1024     1.0  0.53754  0.50204  0.63436  1.0000
  H   H1025     1.0  0.69583  0.71675  0.56531  1.0000
  C   C608      1.0  0.78182  0.53202  0.34856  1.0000
  H   H1026     1.0  0.65313  0.76295  0.56769  1.0000
  C   C609      1.0  0.69316  0.49832  0.39198  1.0000
  C   C610      1.0  0.93759  0.62813  0.47316  1.0000
  H   H1027     1.0  0.49713  0.80247  0.59681  1.0000
  H   H1028     1.0  0.55936  0.52343  0.33766  1.0000
  H   H1029     1.0  0.74159  0.52240  0.38757  1.0000
  C   C611      1.0  0.54730  0.52262  0.35691  1.0000
  C   C612      1.0  0.52336  0.49573  0.52541  1.0000
  H   H1030     1.0  0.51543  0.75895  0.59293  1.0000
  H   H1031     1.0  0.55250  0.77335  0.64453  1.0000
  C   C613      1.0  0.50866  0.54612  0.52117  1.0000
  H   H1032     1.0  0.73669  0.55430  0.35800  1.0000
  H   H1033     1.0  0.89637  0.60830  0.49941  1.0000
  H   H1034     1.0  0.69346  0.98192  0.39436  1.0000
  C   C614      1.0  0.51989  0.82107  0.60268  1.0000
  H   H1035     1.0  0.82237  0.63451  0.34545  1.0000
  H   H1036     1.0  0.59831  0.53993  0.47548  1.0000
  S   S177      1.0  0.60042  0.88965  0.66646  1.0000
  H   H1037     1.0  0.51557  0.55431  0.49990  1.0000
  H   H1038     1.0  0.56292  0.50411  0.47559  1.0000
  H   H1039     1.0  0.50433  0.95197  0.60364  1.0000
  N   N43       1.0  0.51904  0.78841  0.64424  1.0000
  C   C615      1.0  0.60923  0.91287  0.36163  1.0000
  H   H1040     1.0  0.50232  0.49945  0.62237  1.0000
  H   H1041     1.0  0.51811  0.73537  0.61954  1.0000
  H   H1042     1.0  0.50019  0.98591  0.43690  1.0000
  H   H1043     1.0  0.71329  0.97534  0.36758  1.0000
  C   C616      1.0  0.57899  0.52357  0.48847  1.0000
  H   H1044     1.0  0.68699  0.98905  0.58436  1.0000
  C   C617      1.0  0.99198  0.69263  0.46657  1.0000
  H   H1045     1.0  0.66838  0.94054  0.34390  1.0000
  H   H1046     1.0  0.54586  0.54876  0.66271  1.0000
  H   H1047     1.0  0.99049  0.70865  0.48101  1.0000
  Fe  Fe89      1.0  0.67838  0.59333  0.84014  1.0000
  S   S178      1.0  0.67186  0.54639  0.84454  1.0000
  S   S179      1.0  0.68405  0.62074  0.80093  1.0000
  Fe  Fe90      1.0  0.68094  0.60274  0.90321  1.0000
  S   S180      1.0  0.67522  0.55675  0.91194  1.0000
  S   S181      1.0  0.68006  0.63773  0.93215  1.0000
  Fe  Fe91      1.0  0.70881  0.56674  0.87717  1.0000
  S   S182      1.0  0.74405  0.55049  0.87660  1.0000
  Fe  Fe92      1.0  0.63943  0.54006  0.87886  1.0000
  C   C618      1.0  0.51879  0.98779  0.67481  1.0000
  S   S183      1.0  0.71705  0.61415  0.87078  1.0000
  S   S184      1.0  0.64343  0.58552  0.87205  1.0000
  S   S185      1.0  0.59840  0.59309  0.69549  1.0000
  Fe  Fe93      1.0  0.91899  0.58495  0.88956  1.0000
  S   S186      1.0  0.96851  0.62133  0.88927  1.0000
  S   S187      1.0  0.88742  0.60445  0.89803  1.0000
  Fe  Fe94      1.0  0.93655  0.53689  0.87768  1.0000
  H   H1048     1.0  0.84640  0.60498  0.79682  1.0000
  Fe  Fe95      1.0  0.97773  0.58974  0.91442  1.0000
  S   S188      1.0  0.67011  0.96815  0.69741  1.0000
  S   S189      1.0  0.59028  0.50487  0.88804  1.0000
  H   H1049     1.0  0.67229  0.59333  0.97429  1.0000
  S   S190      1.0  0.92793  0.55445  0.91721  1.0000
  S   S191      1.0  0.92395  0.56478  0.85021  1.0000
  H   H1050     1.0  0.63860  0.62557  0.83038  1.0000
  H   H1051     1.0  0.64118  0.95084  0.98420  1.0000
  C   C619      1.0  0.56532  0.80559  0.67686  1.0000
  C   C620      1.0  0.90166  0.59542  0.97153  1.0000
  H   H1052     1.0  0.93529  0.60553  0.00207  1.0000
  H   H1053     1.0  0.55106  0.53045  0.70475  1.0000
  H   H1054     1.0  0.60581  0.97695  0.76929  1.0000
  H   H1055     1.0  0.94268  0.63739  0.94062  1.0000
  C   C621      1.0  0.96026  0.64779  0.95684  1.0000
  H   H1056     1.0  0.92582  0.65533  0.86183  1.0000
  S   S192      1.0  0.98691  0.56992  0.87659  1.0000
  C   C622      1.0  0.60599  0.50257  0.96683  1.0000
  H   H1057     1.0  0.95247  0.67675  0.77304  1.0000
  C   C623      1.0  0.78412  0.56640  0.88232  1.0000
  C   C624      1.0  0.80299  0.59638  0.89092  1.0000
  C   C625      1.0  0.83443  0.60755  0.89561  1.0000
  C   C626      1.0  0.84758  0.58907  0.89162  1.0000
  C   C627      1.0  0.82882  0.55923  0.88274  1.0000
  C   C628      1.0  0.79737  0.54802  0.87822  1.0000
  H   H1058     1.0  0.79326  0.61083  0.89422  1.0000
  H   H1059     1.0  0.84861  0.63066  0.90248  1.0000
  H   H1060     1.0  0.83841  0.54462  0.87961  1.0000
  H   H1061     1.0  0.78308  0.52480  0.87163  1.0000
  C   C629      1.0  0.65936  0.61271  0.77220  1.0000
  C   C630      1.0  0.63183  0.58536  0.76956  1.0000
  C   C631      1.0  0.61342  0.57988  0.74607  1.0000
  C   C632      1.0  0.62214  0.60167  0.72501  1.0000
  C   C633      1.0  0.64941  0.62919  0.72789  1.0000
  C   C634      1.0  0.66788  0.63461  0.75131  1.0000
  H   H1062     1.0  0.62497  0.56830  0.78541  1.0000
  H   H1063     1.0  0.59242  0.55851  0.74412  1.0000
  H   H1064     1.0  0.65649  0.64616  0.71192  1.0000
  H   H1065     1.0  0.68912  0.65581  0.75307  1.0000
  C   C635      1.0  0.66722  0.63223  0.96678  1.0000
  C   C636      1.0  0.65908  0.65245  0.97859  1.0000
  H   H1066     1.0  0.60962  0.63079  0.81516  1.0000
  H   H1067     1.0  0.66059  0.67095  0.96644  1.0000
  H   H1068     1.0  0.92579  0.68407  0.75608  1.0000
  H   H1069     1.0  0.91186  0.65420  0.94216  1.0000
  C   C637      1.0  0.62871  0.98319  0.76310  1.0000
  N   N44       1.0  0.66939  0.68397  0.85634  1.0000
  C   C638      1.0  0.65561  0.67182  0.88412  1.0000
  C   C639      1.0  0.69256  0.67421  0.85062  1.0000
  C   C640      1.0  0.64559  0.67180  0.83405  1.0000
  C   C641      1.0  0.68394  0.71799  0.85670  1.0000
  C   C642      1.0  0.62909  0.67678  0.89278  1.0000
  C   C643      1.0  0.72245  0.69055  0.86722  1.0000
  C   C644      1.0  0.70032  0.73454  0.83003  1.0000
  H   H1070     1.0  0.64738  0.64708  0.88568  1.0000
  H   H1071     1.0  0.67318  0.68238  0.90045  1.0000
  H   H1072     1.0  0.69882  0.67662  0.82855  1.0000
  H   H1073     1.0  0.68274  0.64959  0.85480  1.0000
  H   H1074     1.0  0.63043  0.68179  0.83538  1.0000
  H   H1075     1.0  0.65657  0.67873  0.81349  1.0000
  H   H1076     1.0  0.66645  0.72475  0.86038  1.0000
  H   H1077     1.0  0.69982  0.72821  0.87436  1.0000
  H   H1078     1.0  0.62010  0.66523  0.91278  1.0000
  H   H1079     1.0  0.63678  0.70110  0.89607  1.0000
  H   H1080     1.0  0.60982  0.66685  0.87811  1.0000
  H   H1081     1.0  0.73688  0.68050  0.86192  1.0000
  H   H1082     1.0  0.73595  0.71499  0.86206  1.0000
  H   H1083     1.0  0.71832  0.68757  0.88962  1.0000
  H   H1084     1.0  0.68429  0.73683  0.81596  1.0000
  H   H1085     1.0  0.71077  0.72315  0.81878  1.0000
  H   H1086     1.0  0.71947  0.75747  0.83512  1.0000
  H   H1087     1.0  0.91410  0.58952  0.79857  1.0000
  H   H1088     1.0  0.97033  0.63269  0.95823  1.0000
  C   C645      1.0  0.59918  0.56360  0.94192  1.0000
  H   H1089     1.0  0.59379  0.57134  0.99692  1.0000
  H   H1090     1.0  0.51242  0.96355  0.67636  1.0000
  H   H1091     1.0  0.94242  0.62746  0.83303  1.0000
  H   H1092     1.0  0.88154  0.62783  0.83926  1.0000
  H   H1093     1.0  0.99252  0.57096  0.73533  1.0000
  H   H1094     1.0  0.52910  0.98017  0.81351  1.0000
  H   H1095     1.0  0.56684  0.51590  0.93797  1.0000
  C   C646      1.0  0.85211  0.59245  0.81209  1.0000
  C   C647      1.0  0.66549  0.60866  0.98288  1.0000
  C   C648      1.0  0.93647  0.61905  0.76434  1.0000
  H   H1096     1.0  0.57900  0.79662  0.68678  1.0000
  C   C649      1.0  0.88398  0.61213  0.82497  1.0000
  H   H1097     1.0  0.93621  0.59965  0.75364  1.0000
  H   H1098     1.0  0.55232  0.94863  0.98986  1.0000
  H   H1099     1.0  0.95965  0.65708  0.80935  1.0000
  C   C650      1.0  0.66285  0.98056  0.72933  1.0000
  H   H1100     1.0  0.55598  0.81332  0.69356  1.0000
  H   H1101     1.0  0.84970  0.57142  0.80290  1.0000
  H   H1102     1.0  0.98853  0.68653  0.00083  1.0000
  C   C651      1.0  0.98104  0.50017  0.81932  1.0000
  H   H1103     1.0  0.59890  0.98216  0.96479  1.0000
  H   H1104     1.0  0.50927  0.50350  0.97158  1.0000
  H   H1105     1.0  0.62728  0.50269  0.97272  1.0000
  H   H1106     1.0  0.88839  0.59686  0.83824  1.0000
  N   N45       1.0  0.50838  0.50963  0.68267  1.0000
  C   C652      1.0  0.63342  0.97310  0.73756  1.0000
  H   H1107     1.0  0.61061  0.62788  0.85161  1.0000
  H   H1108     1.0  0.96412  0.68054  0.85177  1.0000
  C   C653      1.0  0.90845  0.66280  0.96182  1.0000
  C   C654      1.0  0.57318  0.54894  0.00064  1.0000
  C   C655      1.0  0.94039  0.66733  0.84393  1.0000
  N   N46       1.0  0.57266  0.52537  0.98163  1.0000
  C   C656      1.0  0.55213  0.99401  0.86578  1.0000
  H   H1109     1.0  0.93391  0.68361  0.83568  1.0000
  H   H1110     1.0  0.56349  0.98981  0.88340  1.0000
  H   H1111     1.0  0.52482  0.57276  0.68993  1.0000
  H   H1112     1.0  0.93909  0.70003  0.78886  1.0000
  C   C657      1.0  0.60112  0.52354  0.98644  1.0000
  H   H1113     1.0  0.83460  0.58502  0.82850  1.0000
  H   H1114     1.0  0.96809  0.50402  0.90340  1.0000
  H   H1115     1.0  0.53806  0.97185  0.85560  1.0000
  H   H1116     1.0  0.99042  0.50197  0.84023  1.0000
  C   C658      1.0  0.62511  0.63703  0.83313  1.0000
  H   H1117     1.0  0.71676  0.97457  0.96906  1.0000
  C   C659      1.0  0.93315  0.66936  0.98358  1.0000
  H   H1118     1.0  0.62020  0.56194  0.94206  1.0000
  H   H1119     1.0  0.98107  0.57752  0.78361  1.0000
  H   H1120     1.0  0.61423  0.95931  0.72435  1.0000
  C   C660      1.0  0.57104  0.53444  0.95248  1.0000
  H   H1121     1.0  0.88756  0.63965  0.77262  1.0000
  H   H1122     1.0  0.88971  0.59365  0.77483  1.0000
  H   H1123     1.0  0.53535  0.56090  0.72113  1.0000
  H   H1124     1.0  0.62177  0.54636  0.98539  1.0000
  H   H1125     1.0  0.95968  0.63273  0.77293  1.0000
  Fe  Fe96      1.0  0.97403  0.59905  0.85163  1.0000
  C   C661      1.0  0.91138  0.60660  0.78641  1.0000
  H   H1126     1.0  0.60310  0.58404  0.95335  1.0000
  N   N47       1.0  0.91011  0.62945  0.80525  1.0000
  H   H1127     1.0  0.89340  0.66107  0.80300  1.0000
  H   H1128     1.0  0.88858  0.60426  0.96063  1.0000
  C   C662      1.0  0.92364  0.61733  0.99336  1.0000
  N   N48       1.0  0.94687  0.64896  0.98412  1.0000
  H   H1129     1.0  0.88535  0.64670  0.96983  1.0000
  C   C663      1.0  0.93895  0.64474  0.82211  1.0000
  H   H1130     1.0  0.50284  0.56576  0.72026  1.0000
  H   H1131     1.0  0.63715  0.78645  0.67331  1.0000
  H   H1132     1.0  0.59517  0.56723  0.92021  1.0000
  C   C664      1.0  0.51600  0.55773  0.70813  1.0000
  C   C665      1.0  0.90428  0.65158  0.78939  1.0000
  H   H1133     1.0  0.52355  0.98125  0.76578  1.0000
  H   H1134     1.0  0.99217  0.67508  0.92486  1.0000
  C   C666      1.0  0.65032  0.97133  0.99633  1.0000
  C   C667      1.0  0.93232  0.67932  0.77647  1.0000
  H   H1135     1.0  0.93214  0.63208  0.74848  1.0000
  H   H1136     1.0  0.97670  0.69481  0.94284  1.0000
  H   H1137     1.0  0.88473  0.57401  0.98169  1.0000
  H   H1138     1.0  0.96643  0.58376  0.98974  1.0000
  C   C668      1.0  0.98514  0.67860  0.94544  1.0000
  H   H1139     1.0  0.91388  0.58911  0.95643  1.0000
  H   H1140     1.0  0.55124  0.53803  0.94977  1.0000
  H   H1141     1.0  0.90904  0.68430  0.95636  1.0000
  H   H1142     1.0  0.95101  0.69368  0.98172  1.0000
  H   H1143     1.0  0.55417  0.55347  0.99641  1.0000
  C   C669      1.0  0.53229  0.50741  0.69934  1.0000
  H   H1144     1.0  0.56432  0.98775  0.79990  1.0000
  H   H1145     1.0  0.60906  0.51056  0.94533  1.0000
  H   H1146     1.0  0.52712  0.76046  0.67298  1.0000
  C   C670      1.0  0.98806  0.59778  0.99982  1.0000
  C   C671      1.0  0.57238  0.96489  0.00206  1.0000
  H   H1147     1.0  0.50219  0.78924  0.68494  1.0000
  C   C672      1.0  0.59119  0.99106  0.98194  1.0000
  H   H1148     1.0  0.98915  0.52374  0.81217  1.0000
  H   H1149     1.0  0.52349  0.49683  0.71972  1.0000
  H   H1150     1.0  0.98709  0.65114  0.00251  1.0000
  H   H1151     1.0  0.56772  0.50810  0.67296  1.0000
  H   H1152     1.0  0.92230  0.66849  0.00362  1.0000
