data_image0
_chemical_formula_structural       FeS2H4CFeSCSFeS2HSHFeHFeS2HSH3CHS2FeS3CFeS2FeSFeS3HC6H4C6H4CSHC7HC2H5C5H3CHCH2C3NCHNC8H20NC6H15SHFeHC2H5CHFeC2H2CH3C2NSHCSHC2H2CHC2H3SH6FeCHCH2CH3CFeH2SCHFeH2SH4CH2CHFeH2CH2CH5CH2CHCH2C2HCH2SNCHC2H5CH2CS2HSH3FeSH3SFeS2FeS2FeSFeS3C6H3C6H4C6H4CHC3H2C3HFeCH3CSHCH4NHCHCH3CH13SHC2H3NC8H22CNC7SH2CFeH8CFeCH3CHNC6HCHFeH8NH3C2H4C2HC2H2SHNSC2H8SC3HFeH2CHCHCSH3SH2FeCH2CHC2H2SH3SCHFeH4CHCHCH2C2FeHC2SH2SHC2H2FeH2NHCSH2SHSFeSNHSHC4H5SH2SHFeSC2SCFeS2FeS2FeSFeS3C6H4C6H4C6H4CHCH2FeH4C2NCSCH5C9H3C3HSC3HCSH2C3H2C5SH2NH7CFeHCHC2HFeC3HFeNC8H9C2H14CH2C2HNH11CHCH7SH10NH5SH2CSH3CHCH5C2NC5HC2H5CHCHCH4CH9C2H2CH5FeHS2H3CH2C3SFeSHCH2CSFeH2FeSCH2FeS2HCFeSCSHSFeH3CFeNHFeHCHSCSH4SC6H4CH2C3HCH2C2HC6H4SH4CSCH3SHNCH3CH2CH3CSH3SH3FeCHC2H4CHCHCHFeHCHCH3CSH3CSH7FeCH2CHCHCHSCHSFeS2H2SFeSFeC6H4CSC6H2CHSH3SCHFeCH4CH2C3H2CH3CHSCSC3H2CH5CHFeHSC3H6CSC2HNHCH2CH2C2H4CH2NH2CHNCH2SH4CH2FeH8CHNHC3H7SHSH2CHCFeS2FeS2FeSFeS5FeSH2FeSH3FeS2HC5H2C6H4C6H4C6H4SHC4H4CH2C2H2CH2CH4C2HCH3C2H3SH5SNH2CHCH3SNCH2NC4HSC2H8CSC2HCH7NH5CHCHCHC3H2CH7CH3C3NC2H3C2HC2HC2H4C3H7CH2NHCHCH4CHCHFeCHCHCHCH3C3H9CHCH3SCH3CH6C2HCH2CH3FeCSHCHCH2SCH2S2H2NHCH4CSHFeS2FeS2FeSFeS3Fe2S2HSFeS2H4C2SCSHC6H4C6H4C6H4C6H6NC3FeHC2HCH5NH15CH4FeH3NC8H30FeHNCH4SHCH2CHCHFeC2HC2HCH2FeH2C2HC4H2CH2CH8FeNH4SC2HNC2H3CHC3H2CH4SH4C2HC2HSH5CH2CH2CH4SC2HFeSCFeS2FeSHCFeSHSH4SHCFeHSCHCH3CH9C2FeCH2CNH2C2H4C7H3C6H5CH3C5HC3HCH3C3H3C2H2CNHCH6NH2SH4C2HCH2SHCH7CH2NC4HCHCSH3NCH5CHSHSC5HCHCHFeC2H7CH5NCH6CH3CH2FeS2FeSHSHSHFeSC2H3SHSHC6H4C6H5C3H4C2H2C7H2C6H5CFeC2H2FeCHC2HSCH3CH2CH3NHNC8H18CH4SHCH2FeH5SH7CHCHSH2NC3H5FeH9SH3CHCH3CH2C2NH3FeHSHS2CHNCH3S2CH2C2HCH6Fe2SHSNHFeS3FeS2FeS2FeSFeS3C3HC2HC2HC5H3C6H4C6H4C4HCH4C5HC2FeHSH7CSH2SCH3NCHC3H2CH14C2H2SCNC8H10CH10NC8H20CH2C2H8CHSCNH5Fe2H2SCSCH2CH6CHC3H2CHSH2CHFeCH2CHCH4CH7CHCH4C2H2C2HC2HSHSCH2SHCFeS2H3CSFeSHSFeS2FeS2FeSFeS3FeSFeSHC6H4C6H5SCSHC6H4CH3CH3CHCH2C7H15CNC7H15NHC4HC2H3SH7FeH8NC7H9CH2SHC2H4CHCHFeH6C2FeCH2SCHC2HSH6CHCH3NCH3FeC2H3FeCHC2H4NH12NHCH4CHCH3CH2CHCHFeC2HSHSFeH2CHFeS2FeHFeSCS2H2SHFeS2FeSFeS3CHCH2SHC4H2C6H4C8HC6H4NH5C2HCHC2H4C2HFeHCHC2H2CSC2HNH6SCH2CH4CHCH4Fe2H2CSH2CHCH3CNH6C2H2C2H3CH2SH2NCH2CH5FeC2HC2HSCSCHSCH2C4HCH5FeH4CHCSH2NC8HNSHCH3CHCSH2CSHCHSCH2C2HCNSCSH7FeC2SH3CH2Fe2S2CFeS2CFeSFeHSH2S2CFe3S4HS2C3H3CHC4H6CH5C5H2C2H3CHC3HC2HCSH3CH6CFeH5C2H6CH2SCHCFeCH2S2HSH2SHCH2Fe2NH3NC4H2CH3CH5SC2SCFeC2FeCH4SC2HC4HNC8H16CH2FeH3CHCH6CH3CSH2C2H2CNCHNCH2CHC2HC3HCSH4CH3CH2CH2CFeHCHC2NS2Fe2S2FeS2FeSFeS3FeS4H2CS2HCFeHSHSHC6H4C6H4C6H5SFeH8CSNH5FeH5CHCH3SHC3HCH2FeH2FeH3SHFeHCH2CHSH6NCH3CHCFe2CHCH9CH11CHCH3SH2CH4SH6CNH2C2HSH2NHC2HC2H2NCHC2H2C5H3CH3C5HC4H4CHCH4C2H2CH6CH3NC8H2CHSHCH3C2SHFeHCHC3H3FeH4CFeCSFeS2FeS2FeSFeS4H3SC2FeS2FeCFeS3CHNC3HCHCH2C2HCHSC7H4C6H4C6H4C6H7C2HSH5C3FeCHCH7C2HCH2SCHC4H6CH2CH5C2HCHCH4CNH3C3H4CH2NH4C2H5NCH2CHCHCH2C2H5CH3CH5C2HCH5CSH12CFeH2CH2SH3NH2CNH2SH4CSH5C3H2CH3CH6NCSHCHCH3SH3CHCSHC4H3CH2C2S2H3NCHCHCH6SHC2HSH2CHCHCH4CH2CHSHCSHFeHC2H4NFeH4CHCH3CHC4HCH
_chemical_formula_sum              "Fe176 S352 H2112 C1232 N88"
_cell_length_a       44.0213
_cell_length_b       88.184
_cell_length_c       42.2731
_cell_angle_alpha    86.8809
_cell_angle_beta     88.9956
_cell_angle_gamma    85.2094

_space_group_name_H-M_alt    "P 1"
_space_group_IT_number       1

loop_
  _space_group_symop_operation_xyz
  'x, y, z'

loop_
  _atom_site_type_symbol
  _atom_site_label
  _atom_site_symmetry_multiplicity
  _atom_site_fract_x
  _atom_site_fract_y
  _atom_site_fract_z
  _atom_site_occupancy
  Fe  Fe1       1.0  0.47376  0.12155  0.17158  1.0000
  S   S1        1.0  0.45322  0.13500  0.12906  1.0000
  S   S2        1.0  0.44754  0.12040  0.21818  1.0000
  H   H1        1.0  0.46693  0.19265  0.31878  1.0000
  H   H2        1.0  0.50125  0.17327  0.28591  1.0000
  H   H3        1.0  0.11872  0.99125  0.13600  1.0000
  H   H4        1.0  0.14117  0.00306  0.11194  1.0000
  C   C1        1.0  0.43108  0.04908  0.49041  1.0000
  Fe  Fe2       1.0  0.46933  0.11455  0.10192  1.0000
  S   S3        1.0  0.44752  0.10360  0.06205  1.0000
  C   C2        1.0  0.48151  0.16789  0.05308  1.0000
  S   S4        1.0  0.48553  0.10047  0.14489  1.0000
  Fe  Fe3       1.0  0.48978  0.12374  0.39370  1.0000
  S   S5        1.0  0.44007  0.13082  0.40058  1.0000
  S   S6        1.0  0.51504  0.12294  0.08956  1.0000
  H   H5        1.0  0.27718  0.98938  0.50087  1.0000
  S   S7        1.0  0.44981  0.12094  0.47639  1.0000
  H   H6        1.0  0.51148  0.15493  0.37126  1.0000
  Fe  Fe4       1.0  0.43917  0.10953  0.43233  1.0000
  H   H7        1.0  0.36514  0.06883  0.44790  1.0000
  Fe  Fe5       1.0  0.45557  0.14167  0.44408  1.0000
  S   S8        1.0  0.43568  0.16550  0.45428  1.0000
  S   S9        1.0  0.48772  0.10163  0.42161  1.0000
  H   H8        1.0  0.50710  0.19067  0.32389  1.0000
  S   S10       1.0  0.17738  0.05955  0.41565  1.0000
  H   H9        1.0  0.42674  0.11933  0.28285  1.0000
  H   H10       1.0  0.40912  0.08993  0.02007  1.0000
  H   H11       1.0  0.38261  0.16935  0.06972  1.0000
  C   C3        1.0  0.36239  0.14058  0.02443  1.0000
  H   H12       1.0  0.02750  0.98262  0.26247  1.0000
  S   S11       1.0  0.24413  0.07241  0.03566  1.0000
  S   S12       1.0  0.30497  0.09899  0.06144  1.0000
  Fe  Fe6       1.0  0.26911  0.04927  0.03329  1.0000
  S   S13       1.0  0.26430  0.02982  0.07044  1.0000
  S   S14       1.0  0.11633  0.98667  0.27903  1.0000
  S   S15       1.0  0.31541  0.05835  0.03018  1.0000
  C   C4        1.0  0.48498  0.18989  0.33686  1.0000
  Fe  Fe7       1.0  0.15221  0.00357  0.27936  1.0000
  S   S16       1.0  0.17630  0.99583  0.23469  1.0000
  S   S17       1.0  0.18189  0.00495  0.32240  1.0000
  Fe  Fe8       1.0  0.08863  0.00499  0.25004  1.0000
  S   S18       1.0  0.03877  0.01482  0.25313  1.0000
  Fe  Fe9       1.0  0.14431  0.01327  0.20914  1.0000
  S   S19       1.0  0.15136  0.02929  0.16606  1.0000
  S   S20       1.0  0.12317  0.02234  0.25389  1.0000
  S   S21       1.0  0.25708  0.05897  0.45513  1.0000
  H   H13       1.0  0.45951  0.16140  0.38822  1.0000
  C   C5        1.0  0.23391  0.03073  0.09834  1.0000
  C   C6        1.0  0.23596  0.02132  0.12631  1.0000
  C   C7        1.0  0.21121  0.02102  0.14789  1.0000
  C   C8        1.0  0.18412  0.03003  0.14138  1.0000
  C   C9        1.0  0.18244  0.03972  0.11387  1.0000
  C   C10       1.0  0.20723  0.04011  0.09249  1.0000
  H   H14       1.0  0.25661  0.01408  0.13103  1.0000
  H   H15       1.0  0.21293  0.01371  0.16928  1.0000
  H   H16       1.0  0.16167  0.04680  0.10873  1.0000
  H   H17       1.0  0.20536  0.04737  0.07101  1.0000
  C   C11       1.0  0.17879  0.04431  0.38988  1.0000
  C   C12       1.0  0.15952  0.04533  0.36354  1.0000
  C   C13       1.0  0.16013  0.03338  0.34262  1.0000
  C   C14       1.0  0.18016  0.02034  0.34785  1.0000
  C   C15       1.0  0.19959  0.01941  0.37405  1.0000
  C   C16       1.0  0.19892  0.03132  0.39500  1.0000
  H   H18       1.0  0.14388  0.05534  0.35944  1.0000
  H   H19       1.0  0.14506  0.03422  0.32256  1.0000
  H   H20       1.0  0.21514  0.00937  0.37826  1.0000
  H   H21       1.0  0.21388  0.03041  0.41517  1.0000
  C   C17       1.0  0.49442  0.17600  0.07616  1.0000
  S   S22       1.0  0.10829  0.99710  0.20390  1.0000
  H   H22       1.0  0.08762  0.02990  0.14540  1.0000
  C   C18       1.0  0.46016  0.17887  0.46651  1.0000
  C   C19       1.0  0.37249  0.09263  0.44959  1.0000
  C   C20       1.0  0.36003  0.10694  0.45825  1.0000
  C   C21       1.0  0.33023  0.10860  0.47082  1.0000
  C   C22       1.0  0.06755  0.05459  0.22281  1.0000
  C   C23       1.0  0.45904  0.17318  0.37726  1.0000
  C   C24       1.0  0.16750  0.98510  0.14050  1.0000
  H   H23       1.0  0.37310  0.11677  0.45459  1.0000
  C   C25       1.0  0.36897  0.15992  0.06305  1.0000
  C   C26       1.0  0.43371  0.13764  0.01760  1.0000
  H   H24       1.0  0.41173  0.13579  0.06244  1.0000
  H   H25       1.0  0.46733  0.08110  0.47644  1.0000
  H   H26       1.0  0.05179  0.01380  0.18265  1.0000
  H   H27       1.0  0.40441  0.17235  0.01607  1.0000
  H   H28       1.0  0.23126  0.99508  0.08869  1.0000
  C   C27       1.0  0.40812  0.10166  0.06355  1.0000
  C   C28       1.0  0.38963  0.10757  0.08797  1.0000
  C   C29       1.0  0.35791  0.10667  0.08726  1.0000
  C   C30       1.0  0.34472  0.09966  0.06248  1.0000
  C   C31       1.0  0.36332  0.09343  0.03857  1.0000
  H   H29       1.0  0.09744  0.04166  0.19149  1.0000
  H   H30       1.0  0.39973  0.11303  0.10706  1.0000
  H   H31       1.0  0.34357  0.11148  0.10586  1.0000
  C   C32       1.0  0.50754  0.18519  0.48926  1.0000
  H   H32       1.0  0.38219  0.17236  0.50610  1.0000
  C   C33       1.0  0.46726  0.12115  0.25404  1.0000
  H   H33       1.0  0.36760  0.12960  0.03824  1.0000
  H   H34       1.0  0.17784  0.99546  0.14765  1.0000
  C   C34       1.0  0.49731  0.12288  0.31203  1.0000
  C   C35       1.0  0.46598  0.12128  0.31182  1.0000
  C   C36       1.0  0.45101  0.12048  0.28290  1.0000
  N   N1        1.0  0.48265  0.17394  0.35108  1.0000
  C   C37       1.0  0.45055  0.03457  0.48119  1.0000
  H   H35       1.0  0.45320  0.12073  0.33385  1.0000
  N   N2        1.0  0.31760  0.06313  0.13416  1.0000
  C   C38       1.0  0.31942  0.07917  0.14446  1.0000
  C   C39       1.0  0.28914  0.06324  0.11475  1.0000
  C   C40       1.0  0.34501  0.05928  0.11326  1.0000
  C   C41       1.0  0.31734  0.05242  0.16330  1.0000
  C   C42       1.0  0.34888  0.08236  0.16136  1.0000
  C   C43       1.0  0.25898  0.06829  0.13173  1.0000
  C   C44       1.0  0.34856  0.04307  0.10107  1.0000
  C   C45       1.0  0.30309  0.03709  0.16005  1.0000
  H   H36       1.0  0.31668  0.08753  0.12385  1.0000
  H   H37       1.0  0.30034  0.08240  0.16102  1.0000
  H   H38       1.0  0.28632  0.05204  0.10542  1.0000
  H   H39       1.0  0.29079  0.07090  0.09310  1.0000
  H   H40       1.0  0.34519  0.06753  0.09227  1.0000
  H   H41       1.0  0.36658  0.06034  0.12588  1.0000
  H   H42       1.0  0.34094  0.04976  0.17226  1.0000
  H   H43       1.0  0.30424  0.05810  0.18280  1.0000
  H   H44       1.0  0.36821  0.08329  0.14431  1.0000
  H   H45       1.0  0.34532  0.09360  0.17215  1.0000
  H   H46       1.0  0.35519  0.07372  0.18065  1.0000
  H   H47       1.0  0.27146  0.10531  0.41740  1.0000
  H   H48       1.0  0.25661  0.06241  0.15535  1.0000
  H   H49       1.0  0.25654  0.08082  0.13391  1.0000
  H   H50       1.0  0.32834  0.04007  0.08834  1.0000
  H   H51       1.0  0.35430  0.03444  0.12058  1.0000
  H   H52       1.0  0.36791  0.04232  0.08383  1.0000
  H   H53       1.0  0.31607  0.02808  0.17488  1.0000
  H   H54       1.0  0.30312  0.03292  0.13590  1.0000
  H   H55       1.0  0.27945  0.03766  0.16984  1.0000
  N   N3        1.0  0.24681  0.09531  0.38093  1.0000
  C   C46       1.0  0.21883  0.09258  0.40086  1.0000
  C   C47       1.0  0.25127  0.08294  0.35758  1.0000
  C   C48       1.0  0.24323  0.11057  0.36294  1.0000
  C   C49       1.0  0.20800  0.10522  0.42332  1.0000
  C   C50       1.0  0.25917  0.06666  0.37190  1.0000
  C   C51       1.0  0.21503  0.11333  0.34155  1.0000
  H   H56       1.0  0.19921  0.09044  0.38590  1.0000
  H   H57       1.0  0.22277  0.08202  0.41621  1.0000
  H   H58       1.0  0.26913  0.08543  0.33958  1.0000
  H   H59       1.0  0.23014  0.08230  0.34379  1.0000
  H   H60       1.0  0.24266  0.12005  0.37938  1.0000
  H   H61       1.0  0.26336  0.11226  0.34729  1.0000
  H   H62       1.0  0.22548  0.10695  0.44103  1.0000
  H   H63       1.0  0.20089  0.11617  0.41041  1.0000
  H   H64       1.0  0.18766  0.10165  0.43680  1.0000
  H   H65       1.0  0.28048  0.06562  0.38566  1.0000
  H   H66       1.0  0.26267  0.05872  0.35237  1.0000
  H   H67       1.0  0.21615  0.10548  0.32187  1.0000
  H   H68       1.0  0.21436  0.12509  0.33056  1.0000
  H   H69       1.0  0.19334  0.11245  0.35498  1.0000
  H   H70       1.0  0.27432  0.08525  0.41976  1.0000
  S   S23       1.0  0.20031  0.07700  0.49310  1.0000
  H   H71       1.0  0.30527  0.09788  0.36035  1.0000
  Fe  Fe10      1.0  0.50064  0.14214  0.12059  1.0000
  H   H72       1.0  0.49815  0.07990  0.08577  1.0000
  C   C52       1.0  0.46803  0.20522  0.47679  1.0000
  C   C53       1.0  0.49566  0.16216  0.29705  1.0000
  H   H73       1.0  0.38339  0.22394  0.49743  1.0000
  H   H74       1.0  0.10143  0.05205  0.12248  1.0000
  H   H75       1.0  0.49745  0.16240  0.47910  1.0000
  H   H76       1.0  0.41605  0.16875  0.35506  1.0000
  H   H77       1.0  0.48178  0.15562  0.05608  1.0000
  C   C54       1.0  0.13935  0.99102  0.12051  1.0000
  H   H78       1.0  0.10890  0.06109  0.15872  1.0000
  Fe  Fe11      1.0  0.49861  0.11431  0.46371  1.0000
  C   C55       1.0  0.07274  0.04284  0.19723  1.0000
  C   C56       1.0  0.36536  0.14937  0.09301  1.0000
  H   H79       1.0  0.08856  0.05444  0.23705  1.0000
  H   H80       1.0  0.45122  0.16842  0.31508  1.0000
  C   C57       1.0  0.06236  0.03219  0.14694  1.0000
  H   H81       1.0  0.42379  0.18867  0.35254  1.0000
  H   H82       1.0  0.45980  0.21713  0.47603  1.0000
  H   H83       1.0  0.46986  0.15227  0.33567  1.0000
  C   C58       1.0  0.27376  0.09523  0.40252  1.0000
  C   C59       1.0  0.31306  0.09593  0.47508  1.0000
  N   N4        1.0  0.05359  0.04527  0.16792  1.0000
  S   S24       1.0  0.40884  0.09018  0.43201  1.0000
  H   H84       1.0  0.36314  0.01788  0.49601  1.0000
  C   C60       1.0  0.20702  0.99448  0.08245  1.0000
  S   S25       1.0  0.50554  0.13598  0.43501  1.0000
  H   H85       1.0  0.48470  0.15601  0.27861  1.0000
  C   C61       1.0  0.32598  0.08155  0.46744  1.0000
  C   C62       1.0  0.35550  0.07994  0.45442  1.0000
  H   H86       1.0  0.48798  0.20001  0.38460  1.0000
  H   H87       1.0  0.24017  0.06257  0.38672  1.0000
  C   C63       1.0  0.09322  0.06112  0.13846  1.0000
  H   H88       1.0  0.35314  0.13929  0.08809  1.0000
  C   C64       1.0  0.47343  0.16395  0.32552  1.0000
  C   C65       1.0  0.48926  0.17432  0.47808  1.0000
  H   H89       1.0  0.31315  0.07168  0.47114  1.0000
  H   H90       1.0  0.13446  0.98413  0.10049  1.0000
  H   H91       1.0  0.05478  0.03504  0.12214  1.0000
  S   S26       1.0  0.29838  0.02388  0.49623  1.0000
  H   H92       1.0  0.34565  0.16526  0.05789  1.0000
  H   H93       1.0  0.23962  0.06550  0.11716  1.0000
  H   H94       1.0  0.50056  0.07702  0.02868  1.0000
  H   H95       1.0  0.45779  0.20857  0.35933  1.0000
  H   H96       1.0  0.38764  0.14570  0.10403  1.0000
  H   H97       1.0  0.42125  0.07870  0.49702  1.0000
  Fe  Fe12      1.0  0.25995  0.04224  0.49683  1.0000
  C   C66       1.0  0.44979  0.19437  0.46550  1.0000
  H   H98       1.0  0.06381  0.06645  0.21301  1.0000
  C   C67       1.0  0.30554  0.09508  0.38614  1.0000
  H   H99       1.0  0.48271  0.21185  0.04150  1.0000
  H   H100      1.0  0.04844  0.05171  0.23896  1.0000
  C   C68       1.0  0.42585  0.17794  0.36751  1.0000
  H   H101      1.0  0.51090  0.17534  0.41228  1.0000
  H   H102      1.0  0.31906  0.10353  0.39691  1.0000
  H   H103      1.0  0.42767  0.05672  0.46864  1.0000
  C   C69       1.0  0.49868  0.12254  0.25436  1.0000
  Fe  Fe13      1.0  0.20653  0.05781  0.45973  1.0000
  H   H104      1.0  0.42744  0.19799  0.45624  1.0000
  H   H105      1.0  0.31857  0.08386  0.39083  1.0000
  S   S27       1.0  0.27507  0.09834  0.48858  1.0000
  C   C70       1.0  0.48105  0.06998  0.47844  1.0000
  H   H106      1.0  0.43975  0.02974  0.46088  1.0000
  Fe  Fe14      1.0  0.25131  0.07663  0.49124  1.0000
  H   H107      1.0  0.40809  0.04535  0.49656  1.0000
  H   H108      1.0  0.33803  0.14394  0.03016  1.0000
  S   S28       1.0  0.20969  0.03940  0.49887  1.0000
  H   H109      1.0  0.06933  0.03167  0.20928  1.0000
  H   H110      1.0  0.50350  0.04514  0.00932  1.0000
  H   H111      1.0  0.47399  0.03687  0.47350  1.0000
  H   H112      1.0  0.47648  0.06326  0.45791  1.0000
  C   C71       1.0  0.48243  0.19960  0.04455  1.0000
  H   H113      1.0  0.04537  0.06133  0.12798  1.0000
  H   H114      1.0  0.41165  0.17975  0.38920  1.0000
  C   C72       1.0  0.48143  0.20306  0.35983  1.0000
  H   H115      1.0  0.38169  0.20400  0.49472  1.0000
  Fe  Fe15      1.0  0.29018  0.08143  0.02921  1.0000
  H   H116      1.0  0.50794  0.05932  0.05045  1.0000
  H   H117      1.0  0.46388  0.18024  0.39710  1.0000
  C   C73       1.0  0.39491  0.09454  0.03899  1.0000
  H   H118      1.0  0.35168  0.15576  0.11102  1.0000
  H   H119      1.0  0.42729  0.15350  0.05461  1.0000
  C   C74       1.0  0.49672  0.20062  0.48930  1.0000
  H   H120      1.0  0.19271  0.00350  0.09420  1.0000
  H   H121      1.0  0.09480  0.07216  0.12478  1.0000
  H   H122      1.0  0.32033  0.11974  0.47678  1.0000
  H   H123      1.0  0.22782  0.98727  0.14067  1.0000
  H   H124      1.0  0.20554  0.99713  0.05649  1.0000
  C   C75       1.0  0.05985  0.05983  0.14949  1.0000
  H   H125      1.0  0.51146  0.12298  0.23235  1.0000
  H   H126      1.0  0.49613  0.21211  0.35119  1.0000
  C   C76       1.0  0.46976  0.19147  0.02131  1.0000
  H   H127      1.0  0.05352  0.07001  0.16320  1.0000
  C   C77       1.0  0.01999  0.04513  0.17605  1.0000
  H   H128      1.0  0.45675  0.13430  0.02730  1.0000
  H   H129      1.0  0.06240  0.00753  0.14418  1.0000
  C   C78       1.0  0.49498  0.19185  0.07180  1.0000
  C   C79       1.0  0.46927  0.17561  0.02566  1.0000
  H   H130      1.0  0.45163  0.02562  0.50069  1.0000
  C   C80       1.0  0.51300  0.16713  0.36351  1.0000
  H   H131      1.0  0.50500  0.19816  0.08963  1.0000
  H   H132      1.0  0.35345  0.18396  0.01845  1.0000
  S   S29       1.0  0.51117  0.16651  0.10990  1.0000
  N   N5        1.0  0.38288  0.15238  0.03432  1.0000
  C   C81       1.0  0.51362  0.12344  0.28324  1.0000
  H   H133      1.0  0.42474  0.12691  0.01082  1.0000
  C   C82       1.0  0.04964  0.01677  0.15699  1.0000
  C   C83       1.0  0.41380  0.14504  0.04380  1.0000
  H   H134      1.0  0.35332  0.08799  0.01936  1.0000
  H   H135      1.0  0.50540  0.07241  0.47673  1.0000
  H   H136      1.0  0.02531  0.01671  0.15059  1.0000
  H   H137      1.0  0.33080  0.99352  0.50775  1.0000
  H   H138      1.0  0.01631  0.03640  0.19557  1.0000
  C   C84       1.0  0.38693  0.16478  0.00891  1.0000
  H   H139      1.0  0.48061  0.19458  0.58398  1.0000
  H   H140      1.0  0.02201  0.07906  0.66122  1.0000
  C   C85       1.0  0.37344  0.99682  0.85946  1.0000
  S   S30       1.0  0.47665  0.00414  0.88501  1.0000
  S   S31       1.0  0.42912  0.99272  0.96310  1.0000
  H   H141      1.0  0.13607  0.21516  0.77659  1.0000
  S   S32       1.0  0.25829  0.05998  0.53265  1.0000
  H   H142      1.0  0.38903  0.06519  0.55623  1.0000
  H   H143      1.0  0.22650  0.11479  0.58123  1.0000
  H   H144      1.0  0.30876  0.02213  0.90569  1.0000
  Fe  Fe16      1.0  0.20763  0.05875  0.53191  1.0000
  S   S33       1.0  0.18266  0.05744  0.57919  1.0000
  H   H145      1.0  0.41574  0.17289  0.55937  1.0000
  H   H146      1.0  0.42346  0.18295  0.52316  1.0000
  H   H147      1.0  0.03201  0.08781  0.69614  1.0000
  S   S34       1.0  0.20121  0.08193  0.95572  1.0000
  Fe  Fe17      1.0  0.14959  0.11563  0.71020  1.0000
  S   S35       1.0  0.10790  0.12988  0.72613  1.0000
  S   S36       1.0  0.16168  0.11672  0.65784  1.0000
  Fe  Fe18      1.0  0.16596  0.10417  0.77805  1.0000
  S   S37       1.0  0.12520  0.11721  0.79894  1.0000
  S   S38       1.0  0.20377  0.09034  0.80521  1.0000
  Fe  Fe19      1.0  0.09920  0.10948  0.75810  1.0000
  S   S39       1.0  0.05477  0.09798  0.76240  1.0000
  Fe  Fe20      1.0  0.13763  0.13642  0.76503  1.0000
  S   S40       1.0  0.13887  0.16012  0.78295  1.0000
  S   S41       1.0  0.13933  0.09479  0.73971  1.0000
  S   S42       1.0  0.17996  0.12386  0.74663  1.0000
  C   C86       1.0  0.16625  0.17186  0.76638  1.0000
  C   C87       1.0  0.17174  0.18525  0.78109  1.0000
  C   C88       1.0  0.19359  0.19477  0.76852  1.0000
  C   C89       1.0  0.20973  0.19107  0.74081  1.0000
  C   C90       1.0  0.20426  0.17767  0.72617  1.0000
  C   C91       1.0  0.18273  0.16805  0.73898  1.0000
  H   H148      1.0  0.15907  0.18827  0.80232  1.0000
  H   H149      1.0  0.21646  0.17481  0.70458  1.0000
  H   H150      1.0  0.17850  0.15784  0.72728  1.0000
  C   C92       1.0  0.20247  0.08777  0.84701  1.0000
  C   C93       1.0  0.22859  0.08148  0.86313  1.0000
  C   C94       1.0  0.22855  0.07966  0.89644  1.0000
  C   C95       1.0  0.20225  0.08403  0.91387  1.0000
  C   C96       1.0  0.17611  0.09026  0.89772  1.0000
  C   C97       1.0  0.17618  0.09210  0.86443  1.0000
  H   H151      1.0  0.24901  0.07807  0.84983  1.0000
  H   H152      1.0  0.24881  0.07483  0.90864  1.0000
  H   H153      1.0  0.15565  0.09358  0.91105  1.0000
  H   H154      1.0  0.15581  0.09672  0.85227  1.0000
  C   C98       1.0  0.17603  0.07399  0.60069  1.0000
  C   C99       1.0  0.17121  0.07256  0.63359  1.0000
  C   C100      1.0  0.16662  0.08558  0.65146  1.0000
  C   C101      1.0  0.16647  0.10010  0.63640  1.0000
  C   C102      1.0  0.17070  0.10151  0.60343  1.0000
  C   C103      1.0  0.17548  0.08851  0.58561  1.0000
  H   H155      1.0  0.17152  0.06134  0.64537  1.0000
  H   H156      1.0  0.16355  0.08435  0.67687  1.0000
  H   H157      1.0  0.17022  0.11273  0.59162  1.0000
  H   H158      1.0  0.17866  0.08972  0.56019  1.0000
  C   C104      1.0  0.40841  0.01067  0.96064  1.0000
  H   H159      1.0  0.43711  0.06532  0.58224  1.0000
  C   C105      1.0  0.37235  0.03845  0.95294  1.0000
  C   C106      1.0  0.40137  0.03672  0.93877  1.0000
  C   C107      1.0  0.41947  0.02290  0.94284  1.0000
  H   H160      1.0  0.40970  0.04604  0.92433  1.0000
  H   H161      1.0  0.44182  0.02166  0.93190  1.0000
  C   C108      1.0  0.36834  0.02522  0.57391  1.0000
  C   C109      1.0  0.33786  0.03030  0.57969  1.0000
  C   C110      1.0  0.31632  0.03053  0.55551  1.0000
  H   H162      1.0  0.07344  0.10328  0.69723  1.0000
  Fe  Fe21      1.0  0.46552  0.98812  0.92579  1.0000
  C   C111      1.0  0.37747  0.02114  0.54348  1.0000
  H   H163      1.0  0.33065  0.03345  0.60321  1.0000
  H   H164      1.0  0.29253  0.03357  0.56065  1.0000
  H   H165      1.0  0.37903  0.00130  0.79339  1.0000
  C   C112      1.0  0.35603  0.02137  0.51934  1.0000
  S   S43       1.0  0.45571  0.20064  0.98594  1.0000
  H   H166      1.0  0.46661  0.18748  0.54873  1.0000
  C   C113      1.0  0.43105  0.19713  0.58155  1.0000
  H   H167      1.0  0.37905  0.98954  0.52929  1.0000
  H   H168      1.0  0.36814  0.99334  0.91171  1.0000
  H   H169      1.0  0.33314  0.08912  0.58013  1.0000
  H   H170      1.0  0.23095  0.10922  0.54155  1.0000
  N   N6        1.0  0.37196  0.01397  0.85570  1.0000
  H   H171      1.0  0.08761  0.22762  0.72074  1.0000
  C   C114      1.0  0.35811  0.01898  0.82411  1.0000
  H   H172      1.0  0.32954  0.99870  0.56419  1.0000
  C   C115      1.0  0.40382  0.01886  0.85779  1.0000
  H   H173      1.0  0.39584  0.16007  0.98647  1.0000
  H   H174      1.0  0.47594  0.05708  0.57700  1.0000
  H   H175      1.0  0.40721  0.99231  0.89747  1.0000
  C   C116      1.0  0.40759  0.03593  0.85024  1.0000
  H   H176      1.0  0.34988  0.12682  0.98635  1.0000
  H   H177      1.0  0.38631  0.13388  0.97982  1.0000
  H   H178      1.0  0.35361  0.03161  0.82189  1.0000
  H   H179      1.0  0.33542  0.01448  0.82198  1.0000
  H   H180      1.0  0.40100  0.01780  0.53841  1.0000
  H   H181      1.0  0.42857  0.99266  0.74638  1.0000
  H   H182      1.0  0.41272  0.01628  0.88200  1.0000
  H   H183      1.0  0.41985  0.01222  0.84208  1.0000
  H   H184      1.0  0.31960  0.00384  0.89120  1.0000
  H   H185      1.0  0.33945  0.02775  0.98302  1.0000
  H   H186      1.0  0.37134  0.00320  0.98987  1.0000
  H   H187      1.0  0.40120  0.22200  0.76438  1.0000
  H   H188      1.0  0.41980  0.04316  0.55118  1.0000
  S   S44       1.0  0.26513  0.04856  0.98015  1.0000
  H   H189      1.0  0.10485  0.21046  0.67263  1.0000
  C   C117      1.0  0.35679  0.98681  0.59989  1.0000
  C   C118      1.0  0.49940  0.98660  0.71327  1.0000
  H   H190      1.0  0.40239  0.03943  0.82522  1.0000
  H   H191      1.0  0.43177  0.03804  0.85398  1.0000
  H   H192      1.0  0.39358  0.04337  0.86612  1.0000
  N   N7        1.0  0.21560  0.14276  0.84058  1.0000
  C   C119      1.0  0.20282  0.15869  0.84759  1.0000
  C   C120      1.0  0.18914  0.13298  0.83969  1.0000
  C   C121      1.0  0.23038  0.14358  0.80809  1.0000
  C   C122      1.0  0.23856  0.13716  0.86568  1.0000
  C   C123      1.0  0.22552  0.17116  0.84509  1.0000
  C   C124      1.0  0.16775  0.13337  0.86902  1.0000
  C   C125      1.0  0.24520  0.12855  0.79594  1.0000
  C   C126      1.0  0.24302  0.11977  0.87323  1.0000
  H   H193      1.0  0.18352  0.16251  0.83164  1.0000
  H   H194      1.0  0.19306  0.15898  0.87205  1.0000
  H   H195      1.0  0.19679  0.12089  0.83629  1.0000
  H   H196      1.0  0.17472  0.13647  0.81875  1.0000
  H   H197      1.0  0.21344  0.14842  0.79016  1.0000
  H   H198      1.0  0.24900  0.15137  0.80712  1.0000
  H   H199      1.0  0.26140  0.14108  0.85930  1.0000
  H   H200      1.0  0.23249  0.14220  0.88880  1.0000
  H   H201      1.0  0.24705  0.16762  0.85767  1.0000
  H   H202      1.0  0.23048  0.17458  0.81997  1.0000
  H   H203      1.0  0.21500  0.18156  0.85598  1.0000
  H   H204      1.0  0.18043  0.13228  0.89155  1.0000
  H   H205      1.0  0.43705  0.14536  0.99655  1.0000
  H   H206      1.0  0.15293  0.12379  0.86884  1.0000
  H   H207      1.0  0.22960  0.11935  0.79690  1.0000
  H   H208      1.0  0.26650  0.12481  0.80878  1.0000
  H   H209      1.0  0.25176  0.13047  0.77062  1.0000
  H   H210      1.0  0.25433  0.06409  0.64333  1.0000
  H   H211      1.0  0.26263  0.11720  0.88939  1.0000
  H   H212      1.0  0.37743  0.06378  0.51568  1.0000
  H   H213      1.0  0.05150  0.08314  0.61074  1.0000
  H   H214      1.0  0.30965  0.10030  0.62943  1.0000
  C   C127      1.0  0.38371  0.98974  0.89212  1.0000
  N   N8        1.0  0.06278  0.09114  0.65628  1.0000
  C   C128      1.0  0.08186  0.07634  0.66377  1.0000
  C   C129      1.0  0.06130  0.09311  0.62063  1.0000
  C   C130      1.0  0.40543  0.21073  0.53647  1.0000
  C   C131      1.0  0.07749  0.10382  0.67118  1.0000
  C   C132      1.0  0.08306  0.07060  0.69892  1.0000
  C   C133      1.0  0.09202  0.09512  0.60342  1.0000
  C   C134      1.0  0.32293  0.98254  0.51766  1.0000
  S   S45       1.0  0.51433  0.98175  0.93876  1.0000
  H   H215      1.0  0.07382  0.06693  0.65033  1.0000
  H   H216      1.0  0.10596  0.07727  0.65618  1.0000
  C   C135      1.0  0.06781  0.12039  0.65904  1.0000
  Fe  Fe22      1.0  0.49598  0.00324  0.56329  1.0000
  H   H217      1.0  0.12455  0.20739  0.72978  1.0000
  H   H218      1.0  0.02254  0.11088  0.84168  1.0000
  H   H219      1.0  0.28265  0.99456  0.54020  1.0000
  H   H220      1.0  0.10277  0.10223  0.66855  1.0000
  H   H221      1.0  0.06128  0.06611  0.70708  1.0000
  H   H222      1.0  0.10101  0.06101  0.70178  1.0000
  H   H223      1.0  0.43363  0.07984  0.53613  1.0000
  H   H224      1.0  0.10749  0.08452  0.60505  1.0000
  C   C136      1.0  0.45154  0.05478  0.57750  1.0000
  Fe  Fe23      1.0  0.30925  0.05977  0.97770  1.0000
  C   C137      1.0  0.47546  0.06132  0.51043  1.0000
  H   H225      1.0  0.35465  0.20011  0.56585  1.0000
  H   H226      1.0  0.35110  0.99255  0.85414  1.0000
  H   H227      1.0  0.14460  0.20788  0.65989  1.0000
  C   C138      1.0  0.44261  0.04747  0.54704  1.0000
  H   H228      1.0  0.49149  0.05085  0.51174  1.0000
  N   N9        1.0  0.27200  0.09153  0.60605  1.0000
  C   C139      1.0  0.25575  0.09336  0.57481  1.0000
  C   C140      1.0  0.28581  0.07528  0.61004  1.0000
  C   C141      1.0  0.29699  0.10216  0.60679  1.0000
  C   C142      1.0  0.24931  0.09528  0.63216  1.0000
  C   C143      1.0  0.24321  0.10969  0.56419  1.0000
  C   C144      1.0  0.26327  0.06317  0.61875  1.0000
  H   H229      1.0  0.27087  0.08911  0.55534  1.0000
  C   C145      1.0  0.26174  0.09359  0.66624  1.0000
  H   H230      1.0  0.23622  0.08618  0.57511  1.0000
  Fe  Fe24      1.0  0.24372  0.07262  0.98221  1.0000
  H   H231      1.0  0.15232  0.14401  0.86831  1.0000
  H   H232      1.0  0.10366  0.10468  0.61232  1.0000
  H   H233      1.0  0.23941  0.10728  0.62918  1.0000
  H   H234      1.0  0.22910  0.08858  0.63103  1.0000
  H   H235      1.0  0.26168  0.11734  0.55935  1.0000
  H   H236      1.0  0.44831  0.04661  0.59801  1.0000
  H   H237      1.0  0.03475  0.12967  0.74480  1.0000
  H   H238      1.0  0.24389  0.06383  0.60227  1.0000
  N   N10       1.0  0.44311  0.05750  0.51703  1.0000
  H   H239      1.0  0.26916  0.10461  0.67357  1.0000
  H   H240      1.0  0.28098  0.08478  0.66937  1.0000
  H   H241      1.0  0.24344  0.09000  0.68279  1.0000
  C   C146      1.0  0.46288  0.19670  0.56552  1.0000
  C   C147      1.0  0.40656  0.18245  0.54300  1.0000
  H   H242      1.0  0.40542  0.22143  0.54920  1.0000
  H   H243      1.0  0.24793  0.11311  0.85208  1.0000
  H   H244      1.0  0.36389  0.01903  0.90483  1.0000
  H   H245      1.0  0.35212  0.14636  0.97403  1.0000
  C   C148      1.0  0.36184  0.02648  0.97203  1.0000
  C   C149      1.0  0.31998  0.01623  0.88545  1.0000
  H   H246      1.0  0.31112  0.10356  0.55612  1.0000
  C   C150      1.0  0.35266  0.02120  0.88154  1.0000
  C   C151      1.0  0.35797  0.17524  0.00058  1.0000
  H   H247      1.0  0.04561  0.10291  0.61247  1.0000
  H   H248      1.0  0.28736  0.11425  0.60653  1.0000
  S   S46       1.0  0.23502  0.20343  0.72234  1.0000
  H   H249      1.0  0.35015  0.03383  0.87776  1.0000
  N   N11       1.0  0.40413  0.19722  0.55975  1.0000
  S   S47       1.0  0.48208  0.01420  0.60845  1.0000
  C   C152      1.0  0.33347  0.98661  0.57309  1.0000
  C   C153      1.0  0.37568  0.19945  0.57996  1.0000
  H   H250      1.0  0.30597  0.01964  0.86432  1.0000
  H   H251      1.0  0.29773  0.07170  0.58785  1.0000
  H   H252      1.0  0.27529  0.05163  0.61736  1.0000
  H   H253      1.0  0.08789  0.09779  0.57779  1.0000
  H   H254      1.0  0.46017  0.16928  0.00736  1.0000
  H   H255      1.0  0.22295  0.11543  0.88587  1.0000
  H   H256      1.0  0.43187  0.18706  0.59864  1.0000
  H   H257      1.0  0.46696  0.20782  0.55336  1.0000
  S   S48       1.0  0.39423  0.02329  0.60533  1.0000
  C   C154      1.0  0.37986  0.01259  0.97581  1.0000
  C   C155      1.0  0.37688  0.17723  0.52950  1.0000
  C   C156      1.0  0.37210  0.18721  0.60694  1.0000
  H   H258      1.0  0.37477  0.21068  0.59106  1.0000
  Fe  Fe25      1.0  0.49139  0.99083  0.63158  1.0000
  H   H259      1.0  0.42890  0.20725  0.59630  1.0000
  H   H260      1.0  0.38757  0.18869  0.62681  1.0000
  C   C157      1.0  0.01934  0.10715  0.75044  1.0000
  H   H261      1.0  0.34849  0.18856  0.61673  1.0000
  C   C158      1.0  0.13827  0.21268  0.71046  1.0000
  H   H262      1.0  0.38980  0.99160  0.84200  1.0000
  C   C159      1.0  0.32535  0.02582  0.52543  1.0000
  S   S49       1.0  0.28757  0.08378  0.97628  1.0000
  H   H263      1.0  0.33852  0.10883  0.58314  1.0000
  H   H264      1.0  0.45496  0.99303  0.69398  1.0000
  H   H265      1.0  0.30398  0.07406  0.62820  1.0000
  S   S50       1.0  0.34861  0.05504  0.94384  1.0000
  H   H266      1.0  0.19750  0.20509  0.77993  1.0000
  H   H267      1.0  0.37608  0.17548  0.59874  1.0000
  Fe  Fe26      1.0  0.43580  0.00695  0.59850  1.0000
  C   C160      1.0  0.32106  0.10068  0.57984  1.0000
  H   H268      1.0  0.37257  0.22256  0.79528  1.0000
  H   H269      1.0  0.08816  0.12606  0.65012  1.0000
  C   C161      1.0  0.03125  0.08945  0.66989  1.0000
  H   H270      1.0  0.34668  0.99410  0.61865  1.0000
  C   C162      1.0  0.46788  0.99016  0.71528  1.0000
  C   C163      1.0  0.46949  0.98646  0.77295  1.0000
  H   H271      1.0  0.36157  0.18153  0.97748  1.0000
  H   H272      1.0  0.05067  0.12170  0.64020  1.0000
  S   S51       1.0  0.44899  0.99727  0.55193  1.0000
  H   H273      1.0  0.08898  0.07948  0.71466  1.0000
  H   H274      1.0  0.36545  0.22060  0.87542  1.0000
  H   H275      1.0  0.31152  0.98370  0.58441  1.0000
  S   S52       1.0  0.44363  0.98448  0.62597  1.0000
  C   C164      1.0  0.28822  0.98537  0.52361  1.0000
  H   H276      1.0  0.39980  0.01812  0.79351  1.0000
  Fe  Fe27      1.0  0.47677  0.98376  0.85540  1.0000
  H   H277      1.0  0.51322  0.19116  0.94089  1.0000
  H   H278      1.0  0.05812  0.12703  0.67899  1.0000
  H   H279      1.0  0.36594  0.22504  0.64488  1.0000
  H   H280      1.0  0.35700  0.21468  0.52243  1.0000
  C   C165      1.0  0.12819  0.20603  0.67966  1.0000
  H   H281      1.0  0.33757  0.16880  0.99867  1.0000
  C   C166      1.0  0.39011  0.07040  0.53181  1.0000
  H   H282      1.0  0.12800  0.19347  0.68368  1.0000
  C   C167      1.0  0.37708  0.22548  0.76979  1.0000
  H   H283      1.0  0.36353  0.21844  0.75528  1.0000
  H   H284      1.0  0.16227  0.20809  0.71442  1.0000
  C   C168      1.0  0.37678  0.01387  0.79467  1.0000
  C   C169      1.0  0.38010  0.21321  0.51166  1.0000
  Fe  Fe28      1.0  0.24626  0.22503  0.74471  1.0000
  H   H285      1.0  0.36470  0.01858  0.77300  1.0000
  C   C170      1.0  0.45297  0.98997  0.74501  1.0000
  C   C171      1.0  0.36312  0.13686  0.98913  1.0000
  S   S53       1.0  0.31431  0.23030  0.83648  1.0000
  H   H286      1.0  0.45859  0.03709  0.54508  1.0000
  H   H287      1.0  0.42690  0.20995  0.52253  1.0000
  S   S54       1.0  0.44988  0.98614  0.80980  1.0000
  H   H288      1.0  0.36847  0.16777  0.54474  1.0000
  C   C172      1.0  0.13202  0.22769  0.77265  1.0000
  C   C173      1.0  0.50106  0.98306  0.77093  1.0000
  H   H289      1.0  0.35817  0.18622  0.52550  1.0000
  H   H290      1.0  0.37765  0.99211  0.59145  1.0000
  Fe  Fe29      1.0  0.46555  0.22533  0.97679  1.0000
  H   H291      1.0  0.37771  0.08190  0.53210  1.0000
  H   H292      1.0  0.17297  0.22897  0.74427  1.0000
  N   N12       1.0  0.13552  0.22985  0.71146  1.0000
  H   H293      1.0  0.48323  0.06861  0.52888  1.0000
  C   C174      1.0  0.42319  0.07213  0.52020  1.0000
  S   S55       1.0  0.45474  0.28811  0.47934  1.0000
  H   H294      1.0  0.33255  0.26656  0.28438  1.0000
  H   H295      1.0  0.25086  0.46959  0.34529  1.0000
  S   S56       1.0  0.47453  0.31753  0.33917  1.0000
  H   H296      1.0  0.12537  0.29680  0.30759  1.0000
  S   S57       1.0  0.48585  0.26248  0.05468  1.0000
  Fe  Fe30      1.0  0.44062  0.28236  0.26332  1.0000
  S   S58       1.0  0.43880  0.30753  0.25528  1.0000
  N   N13       1.0  0.07660  0.31926  0.28497  1.0000
  H   H297      1.0  0.08043  0.28848  0.27641  1.0000
  S   S59       1.0  0.05807  0.31961  0.44778  1.0000
  H   H298      1.0  0.40547  0.28784  0.41889  1.0000
  C   C175      1.0  0.48478  0.45430  0.25217  1.0000
  C   C176      1.0  0.08241  0.31087  0.31668  1.0000
  C   C177      1.0  0.26037  0.40217  0.15993  1.0000
  C   C178      1.0  0.47127  0.29153  0.07794  1.0000
  H   H299      1.0  0.48044  0.28496  0.36466  1.0000
  H   H300      1.0  0.22725  0.43582  0.43374  1.0000
  H   H301      1.0  0.24493  0.40425  0.13933  1.0000
  H   H302      1.0  0.28280  0.41318  0.10673  1.0000
  H   H303      1.0  0.40907  0.32309  0.32045  1.0000
  S   S60       1.0  0.34303  0.46760  0.28946  1.0000
  H   H304      1.0  0.48774  0.46549  0.14266  1.0000
  H   H305      1.0  0.13518  0.37790  0.46616  1.0000
  S   S61       1.0  0.35290  0.45573  0.21685  1.0000
  H   H306      1.0  0.38889  0.25753  0.18827  1.0000
  Fe  Fe31      1.0  0.32591  0.44932  0.26072  1.0000
  S   S62       1.0  0.32228  0.42512  0.28131  1.0000
  C   C179      1.0  0.48343  0.47779  0.14680  1.0000
  C   C180      1.0  0.01663  0.41046  0.03493  1.0000
  S   S63       1.0  0.28390  0.46350  0.24579  1.0000
  C   C181      1.0  0.38002  0.30802  0.39653  1.0000
  Fe  Fe32      1.0  0.23106  0.32978  0.27936  1.0000
  S   S64       1.0  0.21794  0.35213  0.30219  1.0000
  S   S65       1.0  0.27208  0.31459  0.29939  1.0000
  Fe  Fe33      1.0  0.17593  0.33389  0.23487  1.0000
  S   S66       1.0  0.16017  0.35646  0.25365  1.0000
  S   S67       1.0  0.14898  0.32091  0.20081  1.0000
  Fe  Fe34      1.0  0.20954  0.36144  0.25241  1.0000
  S   S68       1.0  0.21973  0.38526  0.23379  1.0000
  Fe  Fe35      1.0  0.16947  0.34556  0.30228  1.0000
  S   S69       1.0  0.13132  0.35321  0.33704  1.0000
  S   S70       1.0  0.22506  0.33955  0.22927  1.0000
  S   S71       1.0  0.18295  0.32251  0.28361  1.0000
  C   C182      1.0  0.29218  0.41429  0.27067  1.0000
  C   C183      1.0  0.26682  0.42103  0.25422  1.0000
  C   C184      1.0  0.24406  0.41205  0.24458  1.0000
  C   C185      1.0  0.24640  0.39621  0.25104  1.0000
  C   C186      1.0  0.27120  0.38949  0.26848  1.0000
  C   C187      1.0  0.29395  0.39852  0.27830  1.0000
  H   H307      1.0  0.26489  0.43313  0.24844  1.0000
  H   H308      1.0  0.22478  0.41737  0.23143  1.0000
  H   H309      1.0  0.27331  0.37729  0.27358  1.0000
  H   H310      1.0  0.31339  0.39318  0.29117  1.0000
  C   C188      1.0  0.06898  0.33778  0.13498  1.0000
  C   C189      1.0  0.08463  0.34827  0.15108  1.0000
  C   C190      1.0  0.10908  0.34334  0.17129  1.0000
  C   C191      1.0  0.11819  0.32780  0.17574  1.0000
  C   C192      1.0  0.10235  0.31729  0.15991  1.0000
  C   C193      1.0  0.07786  0.32222  0.13969  1.0000
  H   H311      1.0  0.07788  0.36030  0.14787  1.0000
  H   H312      1.0  0.12103  0.35155  0.18326  1.0000
  H   H313      1.0  0.10923  0.30524  0.16311  1.0000
  H   H314      1.0  0.06615  0.31401  0.12745  1.0000
  C   C194      1.0  0.11052  0.34281  0.36595  1.0000
  C   C195      1.0  0.12351  0.32984  0.38267  1.0000
  C   C196      1.0  0.10678  0.32263  0.40706  1.0000
  C   C197      1.0  0.07683  0.32820  0.41477  1.0000
  C   C198      1.0  0.06354  0.34093  0.39745  1.0000
  C   C199      1.0  0.08046  0.34830  0.37346  1.0000
  H   H315      1.0  0.14675  0.32561  0.37749  1.0000
  H   H316      1.0  0.11733  0.31283  0.42045  1.0000
  H   H317      1.0  0.04050  0.34532  0.40304  1.0000
  H   H318      1.0  0.07027  0.35839  0.36079  1.0000
  C   C200      1.0  0.47166  0.28581  0.41499  1.0000
  H   H319      1.0  0.28769  0.43711  0.16570  1.0000
  C   C201      1.0  0.45473  0.46107  0.24925  1.0000
  H   H320      1.0  0.08876  0.35725  0.26240  1.0000
  H   H321      1.0  0.43593  0.45403  0.24724  1.0000
  Fe  Fe36      1.0  0.47551  0.30591  0.29219  1.0000
  H   H322      1.0  0.07835  0.34064  0.30775  1.0000
  H   H323      1.0  0.34985  0.32883  0.35951  1.0000
  H   H324      1.0  0.32398  0.42609  0.09092  1.0000
  H   H325      1.0  0.36476  0.28626  0.41842  1.0000
  C   C202      1.0  0.46878  0.30175  0.10279  1.0000
  C   C203      1.0  0.09354  0.31131  0.25851  1.0000
  N   N14       1.0  0.37008  0.30544  0.36341  1.0000
  C   C204      1.0  0.08342  0.37645  0.50630  1.0000
  S   S72       1.0  0.47689  0.28080  0.30068  1.0000
  C   C205      1.0  0.04299  0.32006  0.27836  1.0000
  H   H326      1.0  0.31730  0.30901  0.40391  1.0000
  H   H327      1.0  0.30590  0.31779  0.36546  1.0000
  H   H328      1.0  0.42326  0.25991  0.20843  1.0000
  H   H329      1.0  0.26644  0.43027  0.42497  1.0000
  H   H330      1.0  0.25813  0.43692  0.11545  1.0000
  C   C206      1.0  0.38269  0.29417  0.42049  1.0000
  C   C207      1.0  0.32860  0.41974  0.19523  1.0000
  C   C208      1.0  0.47505  0.29233  0.38377  1.0000
  C   C209      1.0  0.30240  0.30362  0.28054  1.0000
  C   C210      1.0  0.32848  0.31040  0.26898  1.0000
  C   C211      1.0  0.35615  0.30143  0.26365  1.0000
  C   C212      1.0  0.35813  0.28555  0.26976  1.0000
  C   C213      1.0  0.33160  0.27877  0.27959  1.0000
  C   C214      1.0  0.30418  0.28771  0.28527  1.0000
  H   H331      1.0  0.32784  0.32269  0.26609  1.0000
  H   H332      1.0  0.37602  0.30695  0.25575  1.0000
  H   H333      1.0  0.28468  0.28230  0.29509  1.0000
  C   C215      1.0  0.48074  0.27610  0.08434  1.0000
  C   C216      1.0  0.48722  0.27109  0.11576  1.0000
  C   C217      1.0  0.48470  0.28124  0.14041  1.0000
  H   H334      1.0  0.01625  0.37810  0.03131  1.0000
  S   S73       1.0  0.47689  0.27728  0.22612  1.0000
  C   C218      1.0  0.46412  0.29517  0.44033  1.0000
  C   C219      1.0  0.46083  0.31100  0.43406  1.0000
  C   C220      1.0  0.46492  0.31745  0.40332  1.0000
  H   H335      1.0  0.42525  0.25725  0.16699  1.0000
  C   C221      1.0  0.12515  0.37382  0.44463  1.0000
  S   S74       1.0  0.39309  0.27369  0.26726  1.0000
  H   H336      1.0  0.06075  0.39856  0.48727  1.0000
  H   H337      1.0  0.09366  0.38406  0.06368  1.0000
  C   C222      1.0  0.08758  0.33494  0.28639  1.0000
  C   C223      1.0  0.24891  0.44005  0.42438  1.0000
  C   C224      1.0  0.39448  0.29600  0.34588  1.0000
  H   H338      1.0  0.45474  0.31838  0.45323  1.0000
  H   H339      1.0  0.33391  0.29658  0.33813  1.0000
  C   C225      1.0  0.11595  0.30555  0.32377  1.0000
  C   C226      1.0  0.04543  0.36412  0.47549  1.0000
  C   C227      1.0  0.47546  0.29668  0.13430  1.0000
  C   C228      1.0  0.32399  0.42363  0.11698  1.0000
  C   C229      1.0  0.08032  0.34608  0.25760  1.0000
  S   S75       1.0  0.47271  0.30988  0.16517  1.0000
  H   H340      1.0  0.37564  0.27400  0.33981  1.0000
  H   H341      1.0  0.13043  0.31524  0.32282  1.0000
  N   N15       1.0  0.07869  0.36671  0.47872  1.0000
  H   H342      1.0  0.06902  0.30073  0.31978  1.0000
  H   H343      1.0  0.33618  0.45459  0.36821  1.0000
  H   H344      1.0  0.03599  0.35921  0.49798  1.0000
  H   H345      1.0  0.22229  0.44694  0.32893  1.0000
  H   H346      1.0  0.28880  0.41403  0.34266  1.0000
  H   H347      1.0  0.39624  0.27458  0.37637  1.0000
  H   H348      1.0  0.08538  0.40321  0.10481  1.0000
  C   C230      1.0  0.07479  0.38252  0.08108  1.0000
  Fe  Fe37      1.0  0.47528  0.30251  0.21807  1.0000
  H   H349      1.0  0.28390  0.46110  0.32633  1.0000
  C   C231      1.0  0.24742  0.43542  0.13924  1.0000
  H   H350      1.0  0.47388  0.27357  0.41930  1.0000
  C   C232      1.0  0.27075  0.38497  0.16114  1.0000
  C   C233      1.0  0.34031  0.29815  0.36299  1.0000
  H   H351      1.0  0.41613  0.27331  0.33944  1.0000
  Fe  Fe38      1.0  0.31122  0.47119  0.20355  1.0000
  C   C234      1.0  0.50390  0.47912  0.25434  1.0000
  C   C235      1.0  0.39533  0.27852  0.35117  1.0000
  C   C236      1.0  0.08164  0.39390  0.49962  1.0000
  H   H352      1.0  0.38729  0.34059  0.32678  1.0000
  Fe  Fe39      1.0  0.36633  0.47540  0.24417  1.0000
  N   N16       1.0  0.38506  0.28600  0.15396  1.0000
  C   C237      1.0  0.40683  0.28016  0.17991  1.0000
  C   C238      1.0  0.38729  0.30295  0.14918  1.0000
  C   C239      1.0  0.39585  0.27841  0.12413  1.0000
  C   C240      1.0  0.35338  0.28192  0.16363  1.0000
  C   C241      1.0  0.41099  0.26268  0.18585  1.0000
  C   C242      1.0  0.38277  0.31204  0.17934  1.0000
  C   C243      1.0  0.37868  0.28351  0.09347  1.0000
  C   C244      1.0  0.32622  0.29243  0.15031  1.0000
  H   H353      1.0  0.42980  0.28420  0.17509  1.0000
  H   H354      1.0  0.39937  0.28482  0.20297  1.0000
  H   H355      1.0  0.37066  0.30822  0.13160  1.0000
  H   H356      1.0  0.41001  0.30535  0.13895  1.0000
  H   H357      1.0  0.42035  0.28011  0.11945  1.0000
  H   H358      1.0  0.39450  0.26586  0.12673  1.0000
  H   H359      1.0  0.34987  0.27013  0.15709  1.0000
  H   H360      1.0  0.35027  0.28166  0.18992  1.0000
  H   H361      1.0  0.49081  0.27703  0.16394  1.0000
  C   C245      1.0  0.04493  0.40355  0.05316  1.0000
  C   C246      1.0  0.08293  0.39095  0.11051  1.0000
  H   H362      1.0  0.36349  0.30841  0.19434  1.0000
  H   H363      1.0  0.40386  0.31085  0.19358  1.0000
  H   H364      1.0  0.37819  0.32435  0.17258  1.0000
  H   H365      1.0  0.37779  0.29596  0.08801  1.0000
  H   H366      1.0  0.35559  0.27937  0.09383  1.0000
  H   H367      1.0  0.39115  0.27811  0.07332  1.0000
  H   H368      1.0  0.32439  0.30363  0.16121  1.0000
  H   H369      1.0  0.30472  0.28711  0.15647  1.0000
  H   H370      1.0  0.32702  0.29428  0.12428  1.0000
  H   H371      1.0  0.27664  0.47093  0.39492  1.0000
  H   H372      1.0  0.07435  0.31815  0.33640  1.0000
  H   H373      1.0  0.11742  0.30028  0.34823  1.0000
  H   H374      1.0  0.46216  0.32971  0.39929  1.0000
  H   H375      1.0  0.35354  0.31983  0.32300  1.0000
  C   C247      1.0  0.31288  0.30692  0.37886  1.0000
  H   H376      1.0  0.08536  0.37372  0.01889  1.0000
  H   H377      1.0  0.46025  0.47920  0.15772  1.0000
  C   C248      1.0  0.09025  0.37337  0.44761  1.0000
  C   C249      1.0  0.27071  0.42864  0.16409  1.0000
  H   H378      1.0  0.28276  0.38121  0.18345  1.0000
  N   N17       1.0  0.28541  0.41295  0.15818  1.0000
  H   H379      1.0  0.30767  0.43718  0.34518  1.0000
  H   H380      1.0  0.06727  0.29444  0.23720  1.0000
  H   H381      1.0  0.50610  0.47532  0.19145  1.0000
  H   H382      1.0  0.34545  0.41402  0.21220  1.0000
  H   H383      1.0  0.08002  0.38515  0.44239  1.0000
  H   H384      1.0  0.08313  0.36678  0.42765  1.0000
  H   H385      1.0  0.40740  0.33093  0.35924  1.0000
  H   H386      1.0  0.34203  0.28648  0.37423  1.0000
  H   H387      1.0  0.02419  0.32419  0.32632  1.0000
  H   H388      1.0  0.24606  0.47235  0.10508  1.0000
  H   H389      1.0  0.08838  0.31749  0.23535  1.0000
  C   C250      1.0  0.09587  0.35130  0.48499  1.0000
  H   H390      1.0  0.24557  0.40408  0.18120  1.0000
  C   C251      1.0  0.03941  0.37640  0.04120  1.0000
  H   H391      1.0  0.29296  0.29997  0.37864  1.0000
  H   H392      1.0  0.31513  0.42855  0.20853  1.0000
  H   H393      1.0  0.36535  0.31728  0.40748  1.0000
  H   H394      1.0  0.29624  0.40357  0.20551  1.0000
  H   H395      1.0  0.40291  0.31246  0.39589  1.0000
  H   H396      1.0  0.03026  0.38435  0.44430  1.0000
  H   H397      1.0  0.13620  0.36238  0.43967  1.0000
  S   S76       1.0  0.28467  0.46940  0.15858  1.0000
  H   H398      1.0  0.29724  0.45466  0.41321  1.0000
  H   H399      1.0  0.22745  0.42863  0.13810  1.0000
  H   H400      1.0  0.03499  0.30840  0.27891  1.0000
  H   H401      1.0  0.06543  0.40498  0.03780  1.0000
  H   H402      1.0  0.13068  0.38161  0.42416  1.0000
  H   H403      1.0  0.41751  0.29935  0.35141  1.0000
  H   H404      1.0  0.10537  0.38591  0.11941  1.0000
  H   H405      1.0  0.12043  0.35248  0.48922  1.0000
  H   H406      1.0  0.28508  0.38169  0.14043  1.0000
  H   H407      1.0  0.04772  0.41137  0.07245  1.0000
  N   N18       1.0  0.04416  0.38737  0.06649  1.0000
  H   H408      1.0  0.04273  0.35555  0.45752  1.0000
  H   H409      1.0  0.22869  0.44003  0.37872  1.0000
  H   H410      1.0  0.31206  0.40071  0.12284  1.0000
  H   H411      1.0  0.37981  0.29824  0.44488  1.0000
  H   H412      1.0  0.34160  0.42528  0.17596  1.0000
  S   S77       1.0  0.03911  0.34488  0.10891  1.0000
  H   H413      1.0  0.07646  0.37011  0.08822  1.0000
  H   H414      1.0  0.23853  0.44695  0.14619  1.0000
  C   C252      1.0  0.30817  0.40781  0.18377  1.0000
  S   S78       1.0  0.51176  0.30569  0.25358  1.0000
  H   H415      1.0  0.25020  0.37845  0.16098  1.0000
  H   H416      1.0  0.05557  0.34820  0.25323  1.0000
  H   H417      1.0  0.31911  0.43491  0.12701  1.0000
  C   C253      1.0  0.02224  0.32917  0.30170  1.0000
  H   H418      1.0  0.46179  0.31366  0.09749  1.0000
  C   C254      1.0  0.39414  0.32915  0.33792  1.0000
  H   H419      1.0  0.30647  0.43208  0.38643  1.0000
  H   H420      1.0  0.10686  0.28828  0.24442  1.0000
  H   H421      1.0  0.04110  0.36448  0.05160  1.0000
  H   H422      1.0  0.25212  0.42329  0.34896  1.0000
  H   H423      1.0  0.11276  0.33416  0.28888  1.0000
  C   C255      1.0  0.02363  0.37821  0.46655  1.0000
  C   C256      1.0  0.47145  0.30825  0.37771  1.0000
  N   N19       1.0  0.27228  0.44990  0.37141  1.0000
  C   C257      1.0  0.29056  0.46016  0.38977  1.0000
  C   C258      1.0  0.24377  0.44730  0.39063  1.0000
  C   C259      1.0  0.26343  0.45843  0.34060  1.0000
  C   C260      1.0  0.29174  0.43535  0.36558  1.0000
  C   C261      1.0  0.32071  0.46463  0.37417  1.0000
  H   H424      1.0  0.06635  0.38959  0.13031  1.0000
  C   C262      1.0  0.24386  0.45036  0.31800  1.0000
  C   C263      1.0  0.27491  0.42106  0.35951  1.0000
  H   H425      1.0  0.10177  0.39744  0.48587  1.0000
  H   H426      1.0  0.02627  0.37668  0.10965  1.0000
  H   H427      1.0  0.34720  0.41886  0.12396  1.0000
  H   H428      1.0  0.31672  0.47229  0.35284  1.0000
  H   H429      1.0  0.39211  0.29821  0.31980  1.0000
  C   C264      1.0  0.50952  0.46326  0.25448  1.0000
  H   H430      1.0  0.11868  0.31166  0.26043  1.0000
  C   C265      1.0  0.36521  0.32083  0.34585  1.0000
  H   H431      1.0  0.22968  0.45831  0.39308  1.0000
  C   C266      1.0  0.08628  0.29473  0.25406  1.0000
  H   H432      1.0  0.46627  0.29560  0.05384  1.0000
  H   H433      1.0  0.25716  0.44050  0.30785  1.0000
  H   H434      1.0  0.49454  0.25921  0.12104  1.0000
  H   H435      1.0  0.32359  0.39795  0.17630  1.0000
  C   C267      1.0  0.30014  0.41218  0.12577  1.0000
  H   H436      1.0  0.25897  0.42863  0.18760  1.0000
  H   H437      1.0  0.02689  0.34135  0.30123  1.0000
  H   H438      1.0  0.09238  0.34221  0.23592  1.0000
  H   H439      1.0  0.23730  0.45844  0.29771  1.0000
  H   H440      1.0  0.27349  0.41366  0.38150  1.0000
  H   H441      1.0  0.33289  0.47115  0.39104  1.0000
  H   H442      1.0  0.48886  0.44202  0.25245  1.0000
  H   H443      1.0  0.09541  0.34432  0.46388  1.0000
  H   H444      1.0  0.03809  0.32487  0.25391  1.0000
  C   C268      1.0  0.02001  0.38634  0.09229  1.0000
  C   C269      1.0  0.44913  0.47692  0.24852  1.0000
  H   H445      1.0  0.01845  0.39671  0.10634  1.0000
  H   H446      1.0  0.02069  0.38599  0.48626  1.0000
  C   C270      1.0  0.06133  0.37692  0.01237  1.0000
  H   H447      1.0  0.50720  0.45823  0.32045  1.0000
  H   H448      1.0  0.02356  0.41904  0.01652  1.0000
  H   H449      1.0  0.50327  0.44968  0.36009  1.0000
  H   H450      1.0  0.50397  0.47323  0.37939  1.0000
  H   H451      1.0  0.25529  0.44862  0.44085  1.0000
  Fe  Fe40      1.0  0.51280  0.28057  0.26195  1.0000
  H   H452      1.0  0.06303  0.33673  0.50847  1.0000
  S   S79       1.0  0.49312  0.23627  0.57888  1.0000
  S   S80       1.0  0.40937  0.23807  0.60268  1.0000
  H   H453      1.0  0.04090  0.38042  0.57703  1.0000
  H   H454      1.0  0.11833  0.29210  0.91811  1.0000
  H   H455      1.0  0.43389  0.24387  0.69555  1.0000
  C   C271      1.0  0.41229  0.24604  0.70916  1.0000
  H   H456      1.0  0.12237  0.46908  0.51539  1.0000
  H   H457      1.0  0.11882  0.31049  0.89948  1.0000
  C   C272      1.0  0.10466  0.30060  0.90254  1.0000
  C   C273      1.0  0.07646  0.30639  0.92204  1.0000
  C   C274      1.0  0.40275  0.25216  0.79858  1.0000
  S   S81       1.0  0.02862  0.44907  0.63557  1.0000
  Fe  Fe41      1.0  0.51389  0.24398  0.94351  1.0000
  S   S82       1.0  0.02765  0.45363  0.90649  1.0000
  H   H458      1.0  0.06574  0.29523  0.83358  1.0000
  C   C275      1.0  0.02022  0.38522  0.56561  1.0000
  H   H459      1.0  0.17267  0.25609  0.66191  1.0000
  H   H460      1.0  0.04613  0.27727  0.88443  1.0000
  C   C276      1.0  0.09599  0.27712  0.87491  1.0000
  S   S83       1.0  0.46360  0.27143  0.56646  1.0000
  Fe  Fe42      1.0  0.44627  0.24811  0.57097  1.0000
  H   H461      1.0  0.06726  0.25950  0.89173  1.0000
  H   H462      1.0  0.04570  0.40259  0.69557  1.0000
  Fe  Fe43      1.0  0.47869  0.25584  0.00352  1.0000
  S   S84       1.0  0.44789  0.24525  0.51803  1.0000
  C   C277      1.0  0.06806  0.27197  0.89375  1.0000
  H   H463      1.0  0.04272  0.46137  0.75193  1.0000
  H   H464      1.0  0.39950  0.25598  0.69711  1.0000
  Fe  Fe44      1.0  0.27865  0.25400  0.73084  1.0000
  S   S85       1.0  0.26711  0.26271  0.77941  1.0000
  S   S86       1.0  0.30933  0.26750  0.69777  1.0000
  H   H465      1.0  0.12156  0.29325  0.82502  1.0000
  C   C278      1.0  0.08469  0.34161  0.51370  1.0000
  Fe  Fe45      1.0  0.22025  0.25461  0.77237  1.0000
  S   S87       1.0  0.17357  0.26335  0.79237  1.0000
  C   C279      1.0  0.36783  0.24253  0.76176  1.0000
  S   S88       1.0  0.23056  0.24801  0.72233  1.0000
  H   H466      1.0  0.33343  0.26981  0.77654  1.0000
  S   S89       1.0  0.48789  0.26637  0.95441  1.0000
  Fe  Fe46      1.0  0.44601  0.25501  0.94012  1.0000
  H   H467      1.0  0.12993  0.46639  0.89251  1.0000
  H   H468      1.0  0.35710  0.24385  0.73798  1.0000
  H   H469      1.0  0.06489  0.31694  0.91091  1.0000
  C   C280      1.0  0.07114  0.30158  0.85458  1.0000
  Fe  Fe47      1.0  0.02729  0.46966  0.60177  1.0000
  N   N20       1.0  0.09904  0.29405  0.87102  1.0000
  H   H470      1.0  0.17530  0.29177  0.84424  1.0000
  Fe  Fe48      1.0  0.28153  0.23875  0.79695  1.0000
  H   H471      1.0  0.11505  0.47691  0.78384  1.0000
  C   C281      1.0  0.15492  0.23598  0.68469  1.0000
  H   H472      1.0  0.06474  0.46713  0.95661  1.0000
  S   S90       1.0  0.05246  0.30554  0.75792  1.0000
  C   C282      1.0  0.03716  0.41358  0.68370  1.0000
  S   S91       1.0  0.50794  0.23440  0.99341  1.0000
  H   H473      1.0  0.41333  0.24053  0.80518  1.0000
  H   H474      1.0  0.13073  0.30864  0.84710  1.0000
  H   H475      1.0  0.12336  0.46676  0.83296  1.0000
  H   H476      1.0  0.14685  0.23273  0.66144  1.0000
  S   S92       1.0  0.29487  0.23049  0.74890  1.0000
  C   C283      1.0  0.14030  0.27377  0.77670  1.0000
  C   C284      1.0  0.11177  0.26945  0.78755  1.0000
  C   C285      1.0  0.08477  0.27872  0.78078  1.0000
  C   C286      1.0  0.08575  0.29260  0.76322  1.0000
  C   C287      1.0  0.11428  0.29678  0.75171  1.0000
  C   C288      1.0  0.14138  0.28737  0.75815  1.0000
  H   H477      1.0  0.11060  0.25910  0.80231  1.0000
  H   H478      1.0  0.06344  0.27543  0.79071  1.0000
  H   H479      1.0  0.11553  0.30752  0.73830  1.0000
  H   H480      1.0  0.16319  0.29106  0.75016  1.0000
  C   C289      1.0  0.33969  0.24088  0.85678  1.0000
  H   H481      1.0  0.08386  0.30932  0.94579  1.0000
  H   H482      1.0  0.07863  0.25075  0.74153  1.0000
  C   C290      1.0  0.38249  0.25669  0.88878  1.0000
  C   C291      1.0  0.35854  0.26469  0.87158  1.0000
  C   C292      1.0  0.33714  0.25684  0.85574  1.0000
  H   H483      1.0  0.12142  0.44888  0.87683  1.0000
  C   C293      1.0  0.15661  0.28768  0.85965  1.0000
  H   H484      1.0  0.35656  0.27702  0.87052  1.0000
  H   H485      1.0  0.31883  0.26311  0.84264  1.0000
  C   C294      1.0  0.10287  0.46868  0.84842  1.0000
  C   C295      1.0  0.38163  0.24669  0.62864  1.0000
  H   H486      1.0  0.05063  0.30123  0.86994  1.0000
  C   C296      1.0  0.41960  0.24913  0.74362  1.0000
  C   C297      1.0  0.33663  0.25920  0.67095  1.0000
  C   C298      1.0  0.35514  0.26866  0.65260  1.0000
  C   C299      1.0  0.37759  0.26245  0.63160  1.0000
  C   C300      1.0  0.34076  0.24343  0.66801  1.0000
  C   C301      1.0  0.01874  0.45949  0.75247  1.0000
  H   H487      1.0  0.35211  0.28087  0.65465  1.0000
  H   H488      1.0  0.39162  0.26987  0.61764  1.0000
  H   H489      1.0  0.05021  0.42262  0.69290  1.0000
  H   H490      1.0  0.11101  0.25899  0.72303  1.0000
  S   S93       1.0  0.02288  0.46062  0.81684  1.0000
  H   H491      1.0  0.08684  0.31904  0.82050  1.0000
  H   H492      1.0  0.11608  0.27112  0.88714  1.0000
  H   H493      1.0  0.16398  0.25844  0.70256  1.0000
  H   H494      1.0  0.40290  0.23445  0.90333  1.0000
  C   C302      1.0  0.37956  0.26914  0.75478  1.0000
  S   S94       1.0  0.47270  0.23359  0.92633  1.0000
  C   C303      1.0  0.12619  0.29639  0.84946  1.0000
  H   H495      1.0  0.01587  0.45880  0.70165  1.0000
  H   H496      1.0  0.04236  0.41336  0.65793  1.0000
  H   H497      1.0  0.15658  0.27530  0.85613  1.0000
  S   S95       1.0  0.23411  0.23114  0.79418  1.0000
  H   H498      1.0  0.17892  0.23086  0.68689  1.0000
  N   N21       1.0  0.39246  0.25323  0.76469  1.0000
  C   C304      1.0  0.42582  0.26347  0.80710  1.0000
  H   H499      1.0  0.05919  0.38819  0.99922  1.0000
  H   H500      1.0  0.06674  0.37414  0.52565  1.0000
  H   H501      1.0  0.34682  0.28789  0.76646  1.0000
  C   C305      1.0  0.09245  0.25164  0.71937  1.0000
  H   H502      1.0  0.04631  0.47999  0.85982  1.0000
  H   H503      1.0  0.36976  0.26941  0.73063  1.0000
  C   C306      1.0  0.36342  0.23293  0.87424  1.0000
  H   H504      1.0  0.08501  0.46217  0.83833  1.0000
  H   H505      1.0  0.41642  0.27549  0.80361  1.0000
  H   H506      1.0  0.43523  0.25845  0.74222  1.0000
  C   C307      1.0  0.11197  0.46072  0.88075  1.0000
  S   S96       1.0  0.40977  0.26694  0.90723  1.0000
  H   H507      1.0  0.08196  0.34810  0.53544  1.0000
  H   H508      1.0  0.14941  0.24595  0.74458  1.0000
  H   H509      1.0  0.39776  0.27718  0.75281  1.0000
  S   S97       1.0  0.01789  0.45669  0.55926  1.0000
  H   H510      1.0  0.43379  0.23904  0.75363  1.0000
  H   H511      1.0  0.07968  0.46796  0.55436  1.0000
  H   H512      1.0  0.13374  0.25913  0.67351  1.0000
  Fe  Fe49      1.0  0.49591  0.23515  0.52591  1.0000
  C   C308      1.0  0.36306  0.23724  0.64694  1.0000
  H   H513      1.0  0.09215  0.45969  0.89696  1.0000
  C   C309      1.0  0.10241  0.23559  0.70770  1.0000
  C   C310      1.0  0.38471  0.24076  0.89011  1.0000
  H   H514      1.0  0.36162  0.27734  0.80078  1.0000
  H   H515      1.0  0.43119  0.26160  0.83271  1.0000
  H   H516      1.0  0.32665  0.23601  0.68186  1.0000
  H   H517      1.0  0.34848  0.24551  0.77817  1.0000
  C   C311      1.0  0.14863  0.23358  0.74257  1.0000
  H   H518      1.0  0.08292  0.32516  0.86074  1.0000
  C   C312      1.0  0.07313  0.31834  0.84279  1.0000
  H   H519      1.0  0.09540  0.27218  0.85127  1.0000
  C   C313      1.0  0.35403  0.27622  0.77623  1.0000
  H   H520      1.0  0.44757  0.26165  0.79371  1.0000
  Fe  Fe50      1.0  0.51060  0.25930  0.57124  1.0000
  H   H521      1.0  0.07002  0.27369  0.91937  1.0000
  C   C314      1.0  0.15602  0.25341  0.68106  1.0000
  H   H522      1.0  0.38299  0.25365  0.81493  1.0000
  C   C315      1.0  0.07506  0.47785  0.95627  1.0000
  H   H523      1.0  0.07701  0.25792  0.70170  1.0000
  H   H524      1.0  0.12111  0.46736  0.95540  1.0000
  H   H525      1.0  0.08165  0.39949  0.52259  1.0000
  C   C316      1.0  0.11968  0.47728  0.53357  1.0000
  S   S98       1.0  0.03491  0.41260  0.58662  1.0000
  H   H526      1.0  0.14140  0.23272  0.79357  1.0000
  H   H527      1.0  0.09577  0.23560  0.68239  1.0000
  H   H528      1.0  0.16226  0.28953  0.88452  1.0000
  C   C317      1.0  0.09547  0.47665  0.55556  1.0000
  S   S99       1.0  0.43540  0.24594  0.98967  1.0000
  H   H529      1.0  0.10163  0.33174  0.51866  1.0000
  H   H530      1.0  0.04988  0.32354  0.83703  1.0000
  H   H531      1.0  0.05967  0.29785  0.92610  1.0000
  H   H532      1.0  0.10721  0.23099  0.77231  1.0000
  H   H533      1.0  0.02457  0.39121  0.74283  1.0000
  H   H534      1.0  0.05510  0.36843  0.99562  1.0000
  H   H535      1.0  0.10611  0.37340  0.51726  1.0000
  Fe  Fe51      1.0  0.46897  0.26781  0.51381  1.0000
  C   C318      1.0  0.10694  0.47799  0.95568  1.0000
  H   H536      1.0  0.39949  0.23579  0.70771  1.0000
  H   H537      1.0  0.07114  0.50370  0.02572  1.0000
  C   C319      1.0  0.47388  0.48589  0.25116  1.0000
  H   H538      1.0  0.09368  0.52010  0.02101  1.0000
  C   C320      1.0  0.08982  0.57343  0.02795  1.0000
  H   H539      1.0  0.01774  0.50017  0.06219  1.0000
  C   C321      1.0  0.02810  0.63375  0.18497  1.0000
  H   H540      1.0  0.02631  0.53162  0.11214  1.0000
  S   S100      1.0  0.20694  0.52207  0.46091  1.0000
  C   C322      1.0  0.24726  0.53409  0.09837  1.0000
  H   H541      1.0  0.24462  0.48917  0.05619  1.0000
  S   S101      1.0  0.17899  0.56513  0.47107  1.0000
  Fe  Fe52      1.0  0.25594  0.51986  0.47482  1.0000
  S   S102      1.0  0.29421  0.51449  0.43949  1.0000
  S   S103      1.0  0.19235  0.50890  0.02611  1.0000
  H   H542      1.0  0.01998  0.54984  0.06821  1.0000
  H   H543      1.0  0.10820  0.50853  0.46761  1.0000
  S   S104      1.0  0.28280  0.51274  0.03351  1.0000
  Fe  Fe53      1.0  0.17265  0.53314  0.02638  1.0000
  S   S105      1.0  0.14366  0.53876  0.06920  1.0000
  Fe  Fe54      1.0  0.23626  0.51865  0.01190  1.0000
  C   C323      1.0  0.08174  0.56177  0.43750  1.0000
  C   C324      1.0  0.09217  0.57601  0.44233  1.0000
  C   C325      1.0  0.12210  0.57698  0.45266  1.0000
  C   C326      1.0  0.14143  0.56372  0.45877  1.0000
  C   C327      1.0  0.13083  0.54949  0.45439  1.0000
  C   C328      1.0  0.10124  0.54856  0.44330  1.0000
  H   H544      1.0  0.07726  0.58627  0.43780  1.0000
  H   H545      1.0  0.13021  0.58803  0.45597  1.0000
  H   H546      1.0  0.04031  0.66309  0.47219  1.0000
  H   H547      1.0  0.04567  0.64174  0.17826  1.0000
  C   C329      1.0  0.06756  0.57635  0.05144  1.0000
  S   S106      1.0  0.16768  0.49029  0.50446  1.0000
  C   C330      1.0  0.11393  0.56221  0.03357  1.0000
  C   C331      1.0  0.11586  0.55398  0.06278  1.0000
  C   C332      1.0  0.09441  0.55738  0.08675  1.0000
  C   C333      1.0  0.07024  0.56854  0.08107  1.0000
  C   C334      1.0  0.15996  0.53851  0.15337  1.0000
  C   C335      1.0  0.50647  0.48320  0.17003  1.0000
  H   H548      1.0  0.09603  0.55115  0.10950  1.0000
  H   H549      1.0  0.05351  0.57097  0.09949  1.0000
  C   C336      1.0  0.30988  0.50734  0.37868  1.0000
  H   H550      1.0  0.05146  0.51399  0.07829  1.0000
  S   S107      1.0  0.26628  0.49528  0.30092  1.0000
  H   H551      1.0  0.03694  0.63332  0.23659  1.0000
  H   H552      1.0  0.20945  0.53087  0.39408  1.0000
  H   H553      1.0  0.19092  0.54310  0.11574  1.0000
  S   S108      1.0  0.21732  0.54283  0.01620  1.0000
  C   C337      1.0  0.09005  0.50316  0.45545  1.0000
  H   H554      1.0  0.32373  0.50949  0.08653  1.0000
  Fe  Fe55      1.0  0.20321  0.54288  0.48904  1.0000
  C   C338      1.0  0.28531  0.48156  0.12409  1.0000
  H   H555      1.0  0.02961  0.58414  0.26257  1.0000
  H   H556      1.0  0.04778  0.49318  0.46321  1.0000
  H   H557      1.0  0.22809  0.49952  0.35577  1.0000
  H   H558      1.0  0.16403  0.53815  0.34743  1.0000
  C   C339      1.0  0.25679  0.50580  0.39295  1.0000
  H   H559      1.0  0.49640  0.49446  0.17746  1.0000
  H   H560      1.0  0.24779  0.54013  0.42132  1.0000
  C   C340      1.0  0.16975  0.57484  0.37397  1.0000
  C   C341      1.0  0.25096  0.50175  0.36206  1.0000
  C   C342      1.0  0.28622  0.50880  0.40129  1.0000
  H   H561      1.0  0.18191  0.58294  0.38729  1.0000
  H   H562      1.0  0.24860  0.55370  0.33492  1.0000
  C   C343      1.0  0.30667  0.50144  0.09067  1.0000
  H   H563      1.0  0.09349  0.53757  0.43905  1.0000
  H   H564      1.0  0.14553  0.53920  0.45905  1.0000
  H   H565      1.0  0.08166  0.51061  0.43495  1.0000
  C   C344      1.0  0.19184  0.56521  0.35272  1.0000
  H   H566      1.0  0.04561  0.52693  0.45354  1.0000
  S   S109      1.0  0.01871  0.60260  0.38807  1.0000
  C   C345      1.0  0.16519  0.53660  0.37346  1.0000
  S   S110      1.0  0.25307  0.54183  0.50008  1.0000
  C   C346      1.0  0.26294  0.48052  0.10126  1.0000
  C   C347      1.0  0.04308  0.54085  0.01680  1.0000
  C   C348      1.0  0.23099  0.56079  0.39272  1.0000
  H   H567      1.0  0.22248  0.52441  0.19075  1.0000
  H   H568      1.0  0.13068  0.55979  0.01514  1.0000
  C   C349      1.0  0.21988  0.53679  0.32036  1.0000
  H   H569      1.0  0.50897  0.49803  0.39226  1.0000
  H   H570      1.0  0.15681  0.56774  0.39092  1.0000
  H   H571      1.0  0.06326  0.62148  0.21418  1.0000
  H   H572      1.0  0.20399  0.54428  0.30526  1.0000
  H   H573      1.0  0.23814  0.54620  0.09818  1.0000
  C   C350      1.0  0.08162  0.51266  0.03817  1.0000
  H   H574      1.0  0.25800  0.51485  0.13000  1.0000
  Fe  Fe56      1.0  0.19844  0.50937  0.50707  1.0000
  H   H575      1.0  0.22894  0.49613  0.20435  1.0000
  S   S111      1.0  0.03542  0.58882  0.04236  1.0000
  C   C351      1.0  0.27463  0.50030  0.33947  1.0000
  C   C352      1.0  0.19449  0.54143  0.38855  1.0000
  C   C353      1.0  0.06377  0.49878  0.47802  1.0000
  H   H576      1.0  0.33275  0.50958  0.38498  1.0000
  H   H577      1.0  0.07993  0.52883  0.49538  1.0000
  H   H578      1.0  0.14456  0.54248  0.38428  1.0000
  H   H579      1.0  0.15325  0.50567  0.11095  1.0000
  H   H580      1.0  0.15852  0.53466  0.17868  1.0000
  H   H581      1.0  0.20882  0.52669  0.33022  1.0000
  C   C354      1.0  0.17094  0.50393  0.12956  1.0000
  S   S112      1.0  0.04461  0.56005  0.42419  1.0000
  C   C355      1.0  0.03885  0.62565  0.21661  1.0000
  C   C356      1.0  0.02988  0.52204  0.47144  1.0000
  H   H582      1.0  0.25456  0.53246  0.14872  1.0000
  N   N22       1.0  0.04729  0.51160  0.49548  1.0000
  H   H583      1.0  0.23856  0.53226  0.30454  1.0000
  C   C357      1.0  0.23245  0.50091  0.17981  1.0000
  H   H584      1.0  0.02545  0.54404  0.49373  1.0000
  H   H585      1.0  0.07353  0.48970  0.49513  1.0000
  C   C358      1.0  0.30415  0.50308  0.34787  1.0000
  H   H586      1.0  0.19033  0.51444  0.18537  1.0000
  H   H587      1.0  0.20474  0.54648  0.15384  1.0000
  C   C359      1.0  0.26199  0.49010  0.07358  1.0000
  C   C360      1.0  0.05821  0.52189  0.05866  1.0000
  H   H588      1.0  0.24984  0.53647  0.35896  1.0000
  H   H589      1.0  0.27194  0.53408  0.09234  1.0000
  H   H590      1.0  0.17774  0.56058  0.33473  1.0000
  H   H591      1.0  0.21700  0.50350  0.11225  1.0000
  C   C361      1.0  0.28383  0.50059  0.06815  1.0000
  H   H592      1.0  0.15984  0.50745  0.15186  1.0000
  H   H593      1.0  0.09951  0.50683  0.05379  1.0000
  N   N23       1.0  0.03102  0.52974  0.04143  1.0000
  H   H594      1.0  0.32254  0.50207  0.33058  1.0000
  H   H595      1.0  0.27607  0.54766  0.39459  1.0000
  C   C362      1.0  0.30720  0.49207  0.11881  1.0000
  H   H596      1.0  0.15284  0.58180  0.35889  1.0000
  N   N24       1.0  0.21216  0.55294  0.36994  1.0000
  C   C363      1.0  0.24357  0.52577  0.13112  1.0000
  H   H597      1.0  0.14979  0.55049  0.15160  1.0000
  H   H598      1.0  0.20588  0.57325  0.33889  1.0000
  S   S113      1.0  0.32593  0.49138  0.22766  1.0000
  H   H599      1.0  0.19307  0.51875  0.09580  1.0000
  H   H600      1.0  0.01984  0.68558  0.43012  1.0000
  H   H601      1.0  0.21629  0.56601  0.41160  1.0000
  H   H602      1.0  0.25720  0.50234  0.17725  1.0000
  C   C364      1.0  0.23397  0.54526  0.34665  1.0000
  H   H603      1.0  0.24215  0.57038  0.38031  1.0000
  H   H604      1.0  0.14544  0.53209  0.13871  1.0000
  Fe  Fe57      1.0  0.30223  0.48229  0.27135  1.0000
  H   H605      1.0  0.18707  0.54594  0.41181  1.0000
  H   H606      1.0  0.16338  0.52427  0.37940  1.0000
  H   H607      1.0  0.22607  0.49233  0.16346  1.0000
  H   H608      1.0  0.46972  0.49817  0.25067  1.0000
  H   H609      1.0  0.01865  0.66769  0.15377  1.0000
  H   H610      1.0  0.26501  0.55702  0.42976  1.0000
  H   H611      1.0  0.32466  0.49287  0.13621  1.0000
  H   H612      1.0  0.23858  0.50647  0.41036  1.0000
  C   C365      1.0  0.25627  0.55065  0.41033  1.0000
  H   H613      1.0  0.07074  0.53043  0.07047  1.0000
  N   N25       1.0  0.21137  0.52294  0.14140  1.0000
  H   H614      1.0  0.23671  0.52824  0.07935  1.0000
  C   C366      1.0  0.21305  0.51625  0.17503  1.0000
  C   C367      1.0  0.19295  0.53817  0.14049  1.0000
  C   C368      1.0  0.19899  0.51244  0.11865  1.0000
  H   H615      1.0  0.05954  0.54782  0.02765  1.0000
  H   H616      1.0  0.03769  0.70292  0.42541  1.0000
  H   H617      1.0  0.02988  0.62500  0.16678  1.0000
  H   H618      1.0  0.17729  0.49145  0.13190  1.0000
  H   H619      1.0  0.02649  0.61542  0.22255  1.0000
  H   H620      1.0  0.48259  0.48461  0.12398  1.0000
  H   H621      1.0  0.03427  0.65257  0.12933  1.0000
  S   S114      1.0  0.02262  0.63650  0.44330  1.0000
  H   H622      1.0  0.01834  0.64858  0.03505  1.0000
  S   S115      1.0  0.41197  0.48609  0.24342  1.0000
  H   H623      1.0  0.01804  0.65949  0.20826  1.0000
  H   H624      1.0  0.10118  0.49260  0.44572  1.0000
  C   C369      1.0  0.01741  0.66124  0.48030  1.0000
  H   H625      1.0  0.51194  0.48298  0.32841  1.0000
  C   C370      1.0  0.01631  0.69799  0.43358  1.0000
  Fe  Fe58      1.0  0.31878  0.58679  0.70612  1.0000
  S   S116      1.0  0.33896  0.56637  0.73457  1.0000
  S   S117      1.0  0.30833  0.58640  0.65363  1.0000
  Fe  Fe59      1.0  0.32260  0.60760  0.76086  1.0000
  S   S118      1.0  0.34282  0.58852  0.79357  1.0000
  S   S119      1.0  0.32014  0.63140  0.77939  1.0000
  Fe  Fe60      1.0  0.37239  0.58182  0.75195  1.0000
  S   S120      1.0  0.42138  0.57246  0.76110  1.0000
  Fe  Fe61      1.0  0.30787  0.57468  0.77391  1.0000
  S   S121      1.0  0.28530  0.55583  0.80161  1.0000
  S   S122      1.0  0.35478  0.60179  0.72055  1.0000
  S   S123      1.0  0.28501  0.59423  0.74411  1.0000
  S   S124      1.0  0.23565  0.71698  0.78921  1.0000
  S   S125      1.0  0.16503  0.71233  0.76937  1.0000
  Fe  Fe62      1.0  0.21206  0.70615  0.75043  1.0000
  S   S126      1.0  0.21603  0.68184  0.73503  1.0000
  H   H626      1.0  0.46028  0.54196  0.67927  1.0000
  H   H627      1.0  0.48138  0.60792  0.69662  1.0000
  Fe  Fe63      1.0  0.24072  0.52769  0.54347  1.0000
  S   S127      1.0  0.25627  0.52921  0.59419  1.0000
  H   H628      1.0  0.08545  0.68299  0.62182  1.0000
  H   H629      1.0  0.16217  0.69366  0.82937  1.0000
  H   H630      1.0  0.28271  0.51105  0.92375  1.0000
  Fe  Fe64      1.0  0.20546  0.54230  0.96481  1.0000
  S   S128      1.0  0.21654  0.56300  0.93388  1.0000
  S   S129      1.0  0.22731  0.51864  0.95970  1.0000
  H   H631      1.0  0.04181  0.50895  0.84949  1.0000
  C   C371      1.0  0.45511  0.58034  0.74708  1.0000
  C   C372      1.0  0.48322  0.57436  0.75962  1.0000
  C   C373      1.0  0.14421  0.69617  0.69045  1.0000
  C   C374      1.0  0.48196  0.59848  0.71412  1.0000
  C   C375      1.0  0.45458  0.59237  0.72410  1.0000
  H   H632      1.0  0.48386  0.56500  0.77733  1.0000
  H   H633      1.0  0.43312  0.59712  0.71432  1.0000
  C   C376      1.0  0.29186  0.64547  0.76567  1.0000
  C   C377      1.0  0.26722  0.64171  0.74810  1.0000
  C   C378      1.0  0.24437  0.65305  0.73857  1.0000
  C   C379      1.0  0.24605  0.66823  0.74638  1.0000
  C   C380      1.0  0.27091  0.67207  0.76355  1.0000
  C   C381      1.0  0.29366  0.66068  0.77332  1.0000
  H   H634      1.0  0.26564  0.63003  0.74211  1.0000
  H   H635      1.0  0.22525  0.65000  0.72523  1.0000
  H   H636      1.0  0.27254  0.68375  0.76947  1.0000
  H   H637      1.0  0.31273  0.66366  0.78684  1.0000
  C   C382      1.0  0.26452  0.55840  0.83727  1.0000
  C   C383      1.0  0.25244  0.54572  0.85283  1.0000
  C   C384      1.0  0.23719  0.54703  0.88218  1.0000
  C   C385      1.0  0.23363  0.56112  0.89605  1.0000
  C   C386      1.0  0.24504  0.57390  0.88013  1.0000
  C   C387      1.0  0.26062  0.57254  0.85089  1.0000
  H   H638      1.0  0.25518  0.53478  0.84224  1.0000
  H   H639      1.0  0.22826  0.53715  0.89408  1.0000
  H   H640      1.0  0.24230  0.58483  0.89074  1.0000
  H   H641      1.0  0.26978  0.58238  0.83903  1.0000
  C   C388      1.0  0.29358  0.57049  0.63746  1.0000
  C   C389      1.0  0.29112  0.57007  0.60441  1.0000
  C   C390      1.0  0.27997  0.55744  0.59072  1.0000
  C   C391      1.0  0.27103  0.54519  0.61006  1.0000
  C   C392      1.0  0.27352  0.54563  0.64308  1.0000
  C   C393      1.0  0.28470  0.55822  0.65676  1.0000
  H   H642      1.0  0.29808  0.57950  0.58931  1.0000
  H   H643      1.0  0.27845  0.55714  0.56525  1.0000
  H   H644      1.0  0.26669  0.53617  0.65820  1.0000
  H   H645      1.0  0.28646  0.55841  0.68224  1.0000
  S   S130      1.0  0.06531  0.72433  0.58615  1.0000
  H   H646      1.0  0.37375  0.58335  0.66094  1.0000
  C   C394      1.0  0.13992  0.48869  0.53455  1.0000
  C   C395      1.0  0.11734  0.51110  0.85345  1.0000
  C   C396      1.0  0.07275  0.72432  0.88959  1.0000
  C   C397      1.0  0.11079  0.48893  0.79040  1.0000
  H   H647      1.0  0.14355  0.72891  0.91719  1.0000
  H   H648      1.0  0.18526  0.59222  0.60215  1.0000
  H   H649      1.0  0.10418  0.49569  0.76826  1.0000
  H   H650      1.0  0.36746  0.51064  0.95331  1.0000
  C   C398      1.0  0.15361  0.68224  0.83260  1.0000
  H   H651      1.0  0.12137  0.57590  0.54060  1.0000
  H   H652      1.0  0.03122  0.55969  0.98286  1.0000
  C   C399      1.0  0.05666  0.49156  0.95612  1.0000
  C   C400      1.0  0.25515  0.68245  0.84879  1.0000
  H   H653      1.0  0.39802  0.55623  0.70375  1.0000
  H   H654      1.0  0.22484  0.68433  0.80915  1.0000
  C   C401      1.0  0.51056  0.58056  0.74989  1.0000
  H   H655      1.0  0.07530  0.50275  0.81286  1.0000
  H   H656      1.0  0.48531  0.61072  0.83498  1.0000
  C   C402      1.0  0.11237  0.49852  0.58028  1.0000
  H   H657      1.0  0.23130  0.63053  0.82387  1.0000
  H   H658      1.0  0.24504  0.65140  0.85242  1.0000
  H   H659      1.0  0.15167  0.60136  0.55493  1.0000
  H   H660      1.0  0.21053  0.59559  0.55588  1.0000
  C   C403      1.0  0.39888  0.58119  0.66127  1.0000
  C   C404      1.0  0.21287  0.63978  0.82697  1.0000
  H   H661      1.0  0.19772  0.63582  0.84624  1.0000
  C   C405      1.0  0.39987  0.61386  0.82374  1.0000
  H   H662      1.0  0.19526  0.56350  0.53803  1.0000
  H   H663      1.0  0.45216  0.56173  0.68881  1.0000
  H   H664      1.0  0.20036  0.64115  0.80425  1.0000
  C   C406      1.0  0.35851  0.52104  0.96524  1.0000
  C   C407      1.0  0.08450  0.49069  0.81489  1.0000
  H   H665      1.0  0.16810  0.65840  0.91313  1.0000
  H   H666      1.0  0.40629  0.53702  0.69550  1.0000
  H   H667      1.0  0.12368  0.51691  0.87478  1.0000
  S   S131      1.0  0.24800  0.50546  0.51924  1.0000
  H   H668      1.0  0.14107  0.55841  0.52845  1.0000
  H   H669      1.0  0.13085  0.56400  0.59912  1.0000
  H   H670      1.0  0.38195  0.62205  0.81313  1.0000
  H   H671      1.0  0.34331  0.53729  0.68634  1.0000
  H   H672      1.0  0.13385  0.68221  0.81662  1.0000
  S   S132      1.0  0.16050  0.49169  0.95247  1.0000
  N   N26       1.0  0.40136  0.55220  0.65347  1.0000
  H   H673      1.0  0.12868  0.70047  0.62895  1.0000
  H   H674      1.0  0.09412  0.67463  0.65959  1.0000
  C   C408      1.0  0.06120  0.52747  0.54294  1.0000
  H   H675      1.0  0.40669  0.57967  0.68604  1.0000
  C   C409      1.0  0.09149  0.48745  0.57860  1.0000
  H   H676      1.0  0.05814  0.51875  0.56244  1.0000
  H   H677      1.0  0.40079  0.57051  0.61707  1.0000
  H   H678      1.0  0.09978  0.68780  0.70615  1.0000
  S   S133      1.0  0.05946  0.48817  0.60400  1.0000
  N   N27       1.0  0.17396  0.57163  0.58100  1.0000
  C   C410      1.0  0.32072  0.55224  0.90700  1.0000
  H   H679      1.0  0.40828  0.59169  0.65093  1.0000
  H   H680      1.0  0.37129  0.53310  0.92269  1.0000
  N   N28       1.0  0.44391  0.62515  0.79024  1.0000
  C   C411      1.0  0.42794  0.61122  0.80173  1.0000
  C   C412      1.0  0.47729  0.62005  0.78576  1.0000
  C   C413      1.0  0.43240  0.63072  0.75790  1.0000
  C   C414      1.0  0.43982  0.63775  0.81303  1.0000
  H   H681      1.0  0.27881  0.54880  0.99177  1.0000
  S   S134      1.0  0.03339  0.72816  0.89844  1.0000
  C   C415      1.0  0.39789  0.63501  0.75544  1.0000
  C   C416      1.0  0.45518  0.65246  0.80319  1.0000
  H   H682      1.0  0.42079  0.60489  0.78136  1.0000
  H   H683      1.0  0.44354  0.60261  0.81490  1.0000
  H   H684      1.0  0.48913  0.62794  0.76917  1.0000
  H   H685      1.0  0.47971  0.60904  0.77400  1.0000
  H   H686      1.0  0.44420  0.64076  0.74861  1.0000
  H   H687      1.0  0.43811  0.62190  0.74041  1.0000
  H   H688      1.0  0.41533  0.64144  0.81664  1.0000
  H   H689      1.0  0.44734  0.63371  0.83726  1.0000
  C   C417      1.0  0.44548  0.54995  0.69331  1.0000
  S   S135      1.0  0.15839  0.53488  0.97550  1.0000
  C   C418      1.0  0.31802  0.52484  0.90291  1.0000
  C   C419      1.0  0.21587  0.58406  0.54703  1.0000
  H   H690      1.0  0.38486  0.62483  0.75912  1.0000
  C   C420      1.0  0.01914  0.55211  0.99980  1.0000
  H   H691      1.0  0.23576  0.57822  0.55957  1.0000
  H   H692      1.0  0.43915  0.66066  0.78957  1.0000
  H   H693      1.0  0.47619  0.65041  0.78878  1.0000
  H   H694      1.0  0.46228  0.65787  0.82471  1.0000
  H   H695      1.0  0.18358  0.67112  0.79822  1.0000
  H   H696      1.0  0.32055  0.50472  0.93727  1.0000
  H   H697      1.0  0.04008  0.49705  0.53727  1.0000
  N   N29       1.0  0.20655  0.66808  0.84325  1.0000
  H   H698      1.0  0.25510  0.68176  0.87504  1.0000
  H   H699      1.0  0.30075  0.52901  0.88479  1.0000
  H   H700      1.0  0.16496  0.69824  0.70373  1.0000
  H   H701      1.0  0.16245  0.65199  0.87528  1.0000
  H   H702      1.0  0.06315  0.51010  0.88591  1.0000
  C   C421      1.0  0.22750  0.65451  0.83399  1.0000
  H   H703      1.0  0.13139  0.68207  0.73226  1.0000
  C   C422      1.0  0.02639  0.50453  0.51976  1.0000
  H   H704      1.0  0.40641  0.61770  0.84704  1.0000
  C   C423      1.0  0.22276  0.68229  0.83533  1.0000
  H   H705      1.0  0.13530  0.51334  0.83542  1.0000
  C   C424      1.0  0.19998  0.66734  0.87840  1.0000
  C   C425      1.0  0.09654  0.68507  0.64443  1.0000
  C   C426      1.0  0.41000  0.56767  0.64121  1.0000
  H   H706      1.0  0.19510  0.64401  0.89781  1.0000
  H   H707      1.0  0.06562  0.48432  0.80641  1.0000
  C   C427      1.0  0.18051  0.65460  0.89146  1.0000
  H   H708      1.0  0.22159  0.66566  0.89184  1.0000
  H   H709      1.0  0.33830  0.51852  0.97985  1.0000
  H   H710      1.0  0.16597  0.65880  0.82562  1.0000
  H   H711      1.0  0.20959  0.69259  0.84404  1.0000
  H   H712      1.0  0.29365  0.56183  0.96316  1.0000
  H   H713      1.0  0.37124  0.52678  0.66306  1.0000
  H   H714      1.0  0.14657  0.65755  0.63346  1.0000
  C   C428      1.0  0.19788  0.56264  0.60114  1.0000
  H   H715      1.0  0.31909  0.54886  0.98764  1.0000
  H   H716      1.0  0.35607  0.56055  0.66838  1.0000
  H   H717      1.0  0.18635  0.65724  0.64476  1.0000
  C   C429      1.0  0.13662  0.49912  0.55837  1.0000
  C   C430      1.0  0.41133  0.54875  0.68722  1.0000
  C   C431      1.0  0.15393  0.66912  0.67749  1.0000
  N   N30       1.0  0.15212  0.68541  0.66430  1.0000
  C   C432      1.0  0.12098  0.69132  0.71603  1.0000
  C   C433      1.0  0.16254  0.65683  0.65357  1.0000
  H   H718      1.0  0.17371  0.70925  0.62019  1.0000
  H   H719      1.0  0.17091  0.66749  0.69694  1.0000
  H   H720      1.0  0.11842  0.71600  0.82537  1.0000
  C   C434      1.0  0.07026  0.50538  0.95598  1.0000
  C   C435      1.0  0.36719  0.55207  0.65247  1.0000
  H   H721      1.0  0.29445  0.52694  0.96334  1.0000
  C   C436      1.0  0.34130  0.55312  0.87706  1.0000
  C   C437      1.0  0.14247  0.59773  0.57846  1.0000
  H   H722      1.0  0.36576  0.55053  0.88247  1.0000
  C   C438      1.0  0.51002  0.59274  0.72725  1.0000
  C   C439      1.0  0.14703  0.56208  0.57890  1.0000
  H   H723      1.0  0.10953  0.50680  0.59830  1.0000
  H   H724      1.0  0.11433  0.70119  0.73066  1.0000
  H   H725      1.0  0.29708  0.55555  0.89906  1.0000
  H   H726      1.0  0.27127  0.67335  0.83953  1.0000
  C   C440      1.0  0.08142  0.71996  0.85899  1.0000
  C   C441      1.0  0.10213  0.50550  0.95583  1.0000
  C   C442      1.0  0.12991  0.68830  0.63744  1.0000
  H   H727      1.0  0.13538  0.70751  0.68041  1.0000
  H   H728      1.0  0.13217  0.66613  0.68876  1.0000
  H   H729      1.0  0.18943  0.68167  0.63043  1.0000
  H   H730      1.0  0.43517  0.56781  0.63839  1.0000
  H   H731      1.0  0.16125  0.64541  0.66578  1.0000
  H   H732      1.0  0.13789  0.68228  0.61598  1.0000
  H   H733      1.0  0.09537  0.51682  0.84544  1.0000
  C   C443      1.0  0.17784  0.66941  0.82392  1.0000
  H   H734      1.0  0.26434  0.69346  0.84121  1.0000
  H   H735      1.0  0.21764  0.56938  0.60490  1.0000
  N   N31       1.0  0.32222  0.53710  0.92573  1.0000
  H   H736      1.0  0.33951  0.52203  0.88938  1.0000
  C   C444      1.0  0.29638  0.53791  0.94966  1.0000
  H   H737      1.0  0.08375  0.69501  0.65500  1.0000
  C   C445      1.0  0.35306  0.53471  0.94104  1.0000
  H   H738      1.0  0.18398  0.71299  0.66020  1.0000
  H   H739      1.0  0.20641  0.54973  0.64577  1.0000
  H   H740      1.0  0.39266  0.63977  0.73108  1.0000
  H   H741      1.0  0.02639  0.51420  0.00381  1.0000
  C   C446      1.0  0.49632  0.61772  0.81622  1.0000
  H   H742      1.0  0.38951  0.64383  0.77191  1.0000
  C   C447      1.0  0.16477  0.58625  0.59683  1.0000
  H   H743      1.0  0.44153  0.54244  0.62912  1.0000
  Fe  Fe65      1.0  0.18119  0.51116  0.97436  1.0000
  C   C448      1.0  0.11746  0.49379  0.86202  1.0000
  H   H744      1.0  0.16762  0.55023  0.63436  1.0000
  C   C449      1.0  0.18342  0.68845  0.65141  1.0000
  H   H745      1.0  0.33441  0.54563  0.85862  1.0000
  C   C450      1.0  0.09541  0.72714  0.91078  1.0000
  H   H746      1.0  0.33860  0.56492  0.86624  1.0000
  C   C451      1.0  0.30715  0.50966  0.91685  1.0000
  H   H747      1.0  0.20122  0.68482  0.66932  1.0000
  H   H748      1.0  0.18940  0.67843  0.88645  1.0000
  H   H749      1.0  0.45010  0.54686  0.71873  1.0000
  C   C452      1.0  0.41705  0.54040  0.63281  1.0000
  C   C453      1.0  0.40355  0.53961  0.59955  1.0000
  C   C454      1.0  0.35420  0.53671  0.66246  1.0000
  H   H750      1.0  0.41761  0.52876  0.64447  1.0000
  H   H751      1.0  0.35822  0.55605  0.62868  1.0000
  H   H752      1.0  0.41843  0.53150  0.58573  1.0000
  H   H753      1.0  0.38061  0.53523  0.60077  1.0000
  H   H754      1.0  0.40231  0.55078  0.58610  1.0000
  H   H755      1.0  0.15365  0.58388  0.62020  1.0000
  H   H756      1.0  0.33653  0.53429  0.64540  1.0000
  H   H757      1.0  0.05619  0.51603  0.95504  1.0000
  H   H758      1.0  0.27417  0.54011  0.93733  1.0000
  C   C455      1.0  0.18746  0.55717  0.63464  1.0000
  H   H759      1.0  0.14484  0.68057  0.85719  1.0000
  C   C456      1.0  0.12057  0.49180  0.95552  1.0000
  H   H760      1.0  0.24046  0.65737  0.81199  1.0000
  H   H761      1.0  0.11240  0.51621  0.95491  1.0000
  H   H762      1.0  0.13843  0.60815  0.59208  1.0000
  S   S136      1.0  0.17342  0.72306  0.85744  1.0000
  C   C457      1.0  0.18805  0.70515  0.64070  1.0000
  H   H763      1.0  0.02733  0.50224  0.88660  1.0000
  H   H764      1.0  0.15243  0.50775  0.55968  1.0000
  H   H765      1.0  0.21216  0.70586  0.63297  1.0000
  C   C458      1.0  0.06392  0.48695  0.86884  1.0000
  H   H766      1.0  0.18254  0.56681  0.65023  1.0000
  H   H767      1.0  0.30910  0.50118  0.89826  1.0000
  H   H768      1.0  0.32666  0.56154  0.92193  1.0000
  H   H769      1.0  0.35897  0.54510  0.95262  1.0000
  H   H770      1.0  0.12002  0.59317  0.57590  1.0000
  H   H771      1.0  0.13218  0.49306  0.79875  1.0000
  C   C459      1.0  0.04866  0.50312  0.87241  1.0000
  C   C460      1.0  0.12823  0.56393  0.54816  1.0000
  H   H772      1.0  0.38959  0.60287  0.82850  1.0000
  C   C461      1.0  0.11224  0.71902  0.84921  1.0000
  H   H773      1.0  0.10706  0.55801  0.55179  1.0000
  H   H774      1.0  0.11740  0.49226  0.88836  1.0000
  C   C462      1.0  0.29756  0.55014  0.97421  1.0000
  H   H775      1.0  0.37561  0.52373  0.98269  1.0000
  H   H776      1.0  0.06406  0.71767  0.84251  1.0000
  H   H777      1.0  0.04017  0.53520  0.54091  1.0000
  Fe  Fe66      1.0  0.18796  0.72469  0.80550  1.0000
  C   C463      1.0  0.07954  0.72972  0.62257  1.0000
  S   S137      1.0  0.19024  0.53048  0.53430  1.0000
  H   H778      1.0  0.15455  0.54967  0.58107  1.0000
  C   C464      1.0  0.18801  0.57453  0.54862  1.0000
  H   H779      1.0  0.20713  0.55234  0.58888  1.0000
  C   C465      1.0  0.13475  0.72261  0.86985  1.0000
  H   H780      1.0  0.08793  0.57954  0.00507  1.0000
  H   H781      1.0  0.07977  0.53426  0.55027  1.0000
  S   S138      1.0  0.01670  0.49174  0.95528  1.0000
  C   C466      1.0  0.12628  0.72627  0.90092  1.0000
  H   H782      1.0  0.14016  0.48865  0.85416  1.0000
  H   H783      1.0  0.17133  0.58048  0.53186  1.0000
  S   S139      1.0  0.02993  0.72254  0.99614  1.0000
  S   S140      1.0  0.21144  0.72667  0.71602  1.0000
  H   H784      1.0  0.50091  0.62880  0.82561  1.0000
  H   H785      1.0  0.05609  0.53480  0.99779  1.0000
  N   N32       1.0  0.09242  0.48546  0.84856  1.0000
  H   H786      1.0  0.06853  0.48240  0.89332  1.0000
  C   C467      1.0  0.07085  0.51992  0.51176  1.0000
  H   H787      1.0  0.09096  0.51197  0.51843  1.0000
  H   H788      1.0  0.12568  0.72963  0.60463  1.0000
  H   H789      1.0  0.22307  0.58564  0.52180  1.0000
  H   H790      1.0  0.37729  0.79232  0.08102  1.0000
  C   C468      1.0  0.15778  0.88703  0.32183  1.0000
  S   S141      1.0  0.14729  0.95666  0.21316  1.0000
  H   H791      1.0  0.35883  0.82890  0.01184  1.0000
  Fe  Fe67      1.0  0.22830  0.84942  0.26385  1.0000
  S   S142      1.0  0.22732  0.86941  0.22815  1.0000
  S   S143      1.0  0.18856  0.83522  0.28015  1.0000
  Fe  Fe68      1.0  0.29374  0.85472  0.28558  1.0000
  S   S144      1.0  0.29639  0.87514  0.25189  1.0000
  S   S145      1.0  0.33701  0.84621  0.31251  1.0000
  Fe  Fe69      1.0  0.24802  0.88174  0.26647  1.0000
  S   S146      1.0  0.23393  0.90507  0.28464  1.0000
  Fe  Fe70      1.0  0.27619  0.86111  0.21637  1.0000
  S   S147      1.0  0.29496  0.86247  0.16578  1.0000
  S   S148      1.0  0.24682  0.86233  0.30306  1.0000
  S   S149      1.0  0.27571  0.84010  0.24907  1.0000
  Fe  Fe71      1.0  0.49473  0.88000  0.48126  1.0000
  Fe  Fe72      1.0  0.44211  0.86534  0.45175  1.0000
  S   S150      1.0  0.47052  0.84329  0.44653  1.0000
  S   S151      1.0  0.39197  0.86931  0.43824  1.0000
  H   H792      1.0  0.32568  0.97464  0.49798  1.0000
  S   S152      1.0  0.47830  0.87958  0.43138  1.0000
  Fe  Fe73      1.0  0.46014  0.85108  0.08285  1.0000
  S   S153      1.0  0.49399  0.83284  0.06505  1.0000
  S   S154      1.0  0.43389  0.84489  0.12818  1.0000
  H   H793      1.0  0.16203  0.86904  0.26955  1.0000
  H   H794      1.0  0.40792  0.82894  0.44114  1.0000
  H   H795      1.0  0.51355  0.83731  0.23930  1.0000
  H   H796      1.0  0.10858  0.92640  0.29828  1.0000
  C   C469      1.0  0.14365  0.88447  0.23228  1.0000
  C   C470      1.0  0.50230  0.85904  0.16889  1.0000
  S   S155      1.0  0.49425  0.86866  0.08288  1.0000
  C   C471      1.0  0.22142  0.97531  0.14137  1.0000
  S   S156      1.0  0.05618  0.81990  0.23488  1.0000
  H   H797      1.0  0.37516  0.97081  0.48673  1.0000
  C   C472      1.0  0.15210  0.83094  0.26654  1.0000
  C   C473      1.0  0.14010  0.83674  0.23746  1.0000
  C   C474      1.0  0.11080  0.83325  0.22830  1.0000
  C   C475      1.0  0.09305  0.82388  0.24791  1.0000
  C   C476      1.0  0.10513  0.81803  0.27690  1.0000
  C   C477      1.0  0.13435  0.82157  0.28610  1.0000
  H   H798      1.0  0.15333  0.84394  0.22206  1.0000
  H   H799      1.0  0.10180  0.83785  0.20581  1.0000
  H   H800      1.0  0.09193  0.81081  0.29231  1.0000
  H   H801      1.0  0.14329  0.81699  0.30864  1.0000
  C   C478      1.0  0.33437  0.85879  0.15676  1.0000
  C   C479      1.0  0.35437  0.85075  0.17826  1.0000
  C   C480      1.0  0.38499  0.84698  0.16939  1.0000
  C   C481      1.0  0.39610  0.85141  0.13919  1.0000
  C   C482      1.0  0.37642  0.85996  0.11810  1.0000
  C   C483      1.0  0.34561  0.86343  0.12671  1.0000
  H   H802      1.0  0.34602  0.84706  0.20141  1.0000
  H   H803      1.0  0.39997  0.84035  0.18589  1.0000
  H   H804      1.0  0.38467  0.86355  0.09486  1.0000
  H   H805      1.0  0.33034  0.86971  0.10998  1.0000
  C   C484      1.0  0.35168  0.85284  0.34755  1.0000
  C   C485      1.0  0.33319  0.86100  0.36908  1.0000
  C   C486      1.0  0.34595  0.86618  0.39649  1.0000
  C   C487      1.0  0.37724  0.86320  0.40272  1.0000
  C   C488      1.0  0.39569  0.85499  0.38126  1.0000
  C   C489      1.0  0.38291  0.84979  0.35391  1.0000
  H   H806      1.0  0.30904  0.86313  0.36472  1.0000
  H   H807      1.0  0.33143  0.87237  0.41316  1.0000
  H   H808      1.0  0.41976  0.85254  0.38581  1.0000
  H   H809      1.0  0.39737  0.84342  0.33746  1.0000
  C   C490      1.0  0.17260  0.94267  0.23249  1.0000
  C   C491      1.0  0.18028  0.92880  0.21822  1.0000
  C   C492      1.0  0.19984  0.91730  0.23343  1.0000
  C   C493      1.0  0.21151  0.91956  0.26324  1.0000
  C   C494      1.0  0.20402  0.93346  0.27733  1.0000
  C   C495      1.0  0.18476  0.94501  0.26198  1.0000
  H   H810      1.0  0.17097  0.92693  0.19538  1.0000
  H   H811      1.0  0.20552  0.90665  0.22233  1.0000
  H   H812      1.0  0.21289  0.93529  0.30040  1.0000
  H   H813      1.0  0.17899  0.95564  0.27319  1.0000
  H   H814      1.0  0.49035  0.82032  0.20975  1.0000
  H   H815      1.0  0.08638  0.80096  0.50467  1.0000
  N   N33       1.0  0.07639  0.77784  0.16567  1.0000
  C   C496      1.0  0.08500  0.76650  0.19285  1.0000
  C   C497      1.0  0.10429  0.78613  0.15719  1.0000
  C   C498      1.0  0.06755  0.76897  0.13812  1.0000
  Fe  Fe74      1.0  0.48650  0.84639  0.49626  1.0000
  H   H816      1.0  0.15504  0.87622  0.21601  1.0000
  C   C499      1.0  0.11522  0.79604  0.18304  1.0000
  C   C500      1.0  0.06729  0.77714  0.10491  1.0000
  H   H817      1.0  0.35273  0.80841  0.11399  1.0000
  C   C501      1.0  0.11629  0.91500  0.30921  1.0000
  H   H818      1.0  0.08813  0.77240  0.21506  1.0000
  H   H819      1.0  0.10101  0.79376  0.13564  1.0000
  H   H820      1.0  0.12372  0.77785  0.15096  1.0000
  H   H821      1.0  0.08343  0.75852  0.13601  1.0000
  H   H822      1.0  0.04452  0.76484  0.14222  1.0000
  N   N34       1.0  0.19132  0.97443  0.12513  1.0000
  H   H823      1.0  0.03896  0.75973  0.20597  1.0000
  H   H824      1.0  0.38356  0.81783  0.13071  1.0000
  H   H825      1.0  0.48334  0.88041  0.18955  1.0000
  H   H826      1.0  0.44172  0.78726  0.06309  1.0000
  H   H827      1.0  0.12230  0.78926  0.20492  1.0000
  H   H828      1.0  0.13549  0.80173  0.17406  1.0000
  H   H829      1.0  0.09761  0.80520  0.18896  1.0000
  H   H830      1.0  0.09075  0.77876  0.09607  1.0000
  H   H831      1.0  0.41298  0.79095  0.49372  1.0000
  H   H832      1.0  0.05332  0.78812  0.10380  1.0000
  H   H833      1.0  0.15050  0.94216  0.11833  1.0000
  H   H834      1.0  0.18412  0.87136  0.35416  1.0000
  H   H835      1.0  0.36037  0.82963  0.41368  1.0000
  H   H836      1.0  0.06783  0.78174  0.47810  1.0000
  H   H837      1.0  0.02906  0.78212  0.17994  1.0000
  C   C502      1.0  0.10880  0.88149  0.29790  1.0000
  H   H838      1.0  0.34033  0.82208  0.44704  1.0000
  H   H839      1.0  0.08970  0.74892  0.48238  1.0000
  H   H840      1.0  0.14546  0.89264  0.34177  1.0000
  H   H841      1.0  0.45647  0.80378  0.04267  1.0000
  Fe  Fe75      1.0  0.48048  0.84109  0.01543  1.0000
  H   H842      1.0  0.02236  0.80061  0.13888  1.0000
  H   H843      1.0  0.11782  0.90717  0.26229  1.0000
  H   H844      1.0  0.39255  0.81089  0.44499  1.0000
  N   N35       1.0  0.33622  0.90473  0.31912  1.0000
  C   C503      1.0  0.36162  0.91493  0.32293  1.0000
  C   C504      1.0  0.31680  0.91113  0.29170  1.0000
  C   C505      1.0  0.34884  0.88878  0.31250  1.0000
  C   C506      1.0  0.31786  0.90407  0.34957  1.0000
  C   C507      1.0  0.38653  0.90899  0.34692  1.0000
  C   C508      1.0  0.29892  0.92669  0.29629  1.0000
  C   C509      1.0  0.36975  0.88719  0.28301  1.0000
  C   C510      1.0  0.28746  0.89646  0.34824  1.0000
  H   H845      1.0  0.37316  0.91741  0.29980  1.0000
  H   H846      1.0  0.35237  0.92625  0.33087  1.0000
  H   H847      1.0  0.30013  0.90305  0.28543  1.0000
  H   H848      1.0  0.33098  0.91269  0.26991  1.0000
  H   H849      1.0  0.36175  0.88341  0.33312  1.0000
  H   H850      1.0  0.33022  0.88128  0.30932  1.0000
  H   H851      1.0  0.33149  0.89781  0.36881  1.0000
  H   H852      1.0  0.31231  0.91577  0.35786  1.0000
  H   H853      1.0  0.40288  0.91783  0.34880  1.0000
  H   H854      1.0  0.37706  0.90674  0.37103  1.0000
  H   H855      1.0  0.39995  0.89861  0.33918  1.0000
  H   H856      1.0  0.28230  0.92625  0.31622  1.0000
  H   H857      1.0  0.31421  0.93584  0.29935  1.0000
  H   H858      1.0  0.28536  0.92997  0.27467  1.0000
  H   H859      1.0  0.35732  0.89051  0.26079  1.0000
  H   H860      1.0  0.37800  0.87497  0.28153  1.0000
  H   H861      1.0  0.39015  0.89367  0.28427  1.0000
  H   H862      1.0  0.28460  0.88921  0.37024  1.0000
  H   H863      1.0  0.28560  0.88908  0.32815  1.0000
  H   H864      1.0  0.26775  0.90519  0.34800  1.0000
  H   H865      1.0  0.43367  0.81977  0.08774  1.0000
  H   H866      1.0  0.46407  0.87513  0.15562  1.0000
  H   H867      1.0  0.36523  0.80354  0.49307  1.0000
  H   H868      1.0  0.10948  0.86251  0.26581  1.0000
  H   H869      1.0  0.02086  0.75078  0.49941  1.0000
  H   H870      1.0  0.35048  0.80501  0.01704  1.0000
  H   H871      1.0  0.09590  0.90989  0.31943  1.0000
  H   H872      1.0  0.45774  0.83208  0.22333  1.0000
  H   H873      1.0  0.03807  0.76184  0.46865  1.0000
  H   H874      1.0  0.14780  0.89606  0.22240  1.0000
  Fe  Fe76      1.0  0.50812  0.85767  0.42937  1.0000
  H   H875      1.0  0.09050  0.88753  0.28295  1.0000
  N   N36       1.0  0.13878  0.88848  0.29227  1.0000
  C   C511      1.0  0.06817  0.74424  0.49062  1.0000
  H   H876      1.0  0.17596  0.97748  0.07613  1.0000
  H   H877      1.0  0.06110  0.74623  0.18244  1.0000
  H   H878      1.0  0.34760  0.82792  0.12326  1.0000
  H   H879      1.0  0.17900  0.89301  0.31778  1.0000
  S   S157      1.0  0.45577  0.86773  0.50252  1.0000
  H   H880      1.0  0.39484  0.79095  0.04315  1.0000
  C   C512      1.0  0.35895  0.82935  0.43999  1.0000
  H   H881      1.0  0.43552  0.79817  0.46055  1.0000
  H   H882      1.0  0.41082  0.81162  0.01340  1.0000
  C   C513      1.0  0.19646  0.97844  0.09038  1.0000
  H   H883      1.0  0.08594  0.86043  0.30005  1.0000
  C   C514      1.0  0.18315  0.95814  0.12908  1.0000
  H   H884      1.0  0.15396  0.91053  0.27716  1.0000
  Fe  Fe77      1.0  0.48069  0.87414  0.03214  1.0000
  C   C515      1.0  0.42332  0.80922  0.08162  1.0000
  C   C516      1.0  0.15284  0.95459  0.11469  1.0000
  H   H885      1.0  0.18038  0.88605  0.26450  1.0000
  C   C517      1.0  0.06213  0.75448  0.20122  1.0000
  C   C518      1.0  0.04992  0.78835  0.17664  1.0000
  H   H886      1.0  0.46894  0.79767  0.08147  1.0000
  C   C519      1.0  0.49963  0.84361  0.22038  1.0000
  H   H887      1.0  0.20161  0.95030  0.11909  1.0000
  H   H888      1.0  0.18110  0.95448  0.15454  1.0000
  Fe  Fe78      1.0  0.01825  0.80515  0.25426  1.0000
  H   H889      1.0  0.41093  0.84476  0.48490  1.0000
  H   H890      1.0  0.47043  0.83474  0.18409  1.0000
  C   C520      1.0  0.10807  0.86443  0.29150  1.0000
  C   C521      1.0  0.13243  0.90529  0.28361  1.0000
  H   H891      1.0  0.12619  0.85699  0.30365  1.0000
  C   C522      1.0  0.44872  0.79889  0.06588  1.0000
  C   C523      1.0  0.34876  0.80046  0.04186  1.0000
  C   C524      1.0  0.04056  0.80274  0.15546  1.0000
  C   C525      1.0  0.47558  0.87053  0.17775  1.0000
  H   H892      1.0  0.15174  0.95729  0.08884  1.0000
  H   H893      1.0  0.48512  0.85218  0.23356  1.0000
  C   C526      1.0  0.40449  0.82045  0.03078  1.0000
  H   H894      1.0  0.13311  0.96035  0.12720  1.0000
  H   H895      1.0  0.13220  0.91708  0.32830  1.0000
  C   C527      1.0  0.47875  0.83201  0.20836  1.0000
  H   H896      1.0  0.10070  0.88292  0.32276  1.0000
  H   H897      1.0  0.33156  0.80753  0.05528  1.0000
  H   H898      1.0  0.35300  0.84123  0.44645  1.0000
  H   H899      1.0  0.05386  0.79220  0.20076  1.0000
  H   H900      1.0  0.50863  0.90564  0.39267  1.0000
  H   H901      1.0  0.11886  0.88312  0.23220  1.0000
  H   H902      1.0  0.44268  0.82159  0.48651  1.0000
  H   H903      1.0  0.14770  0.86527  0.34595  1.0000
  Fe  Fe79      1.0  0.13880  0.98016  0.23282  1.0000
  N   N37       1.0  0.39328  0.82259  0.48889  1.0000
  H   H904      1.0  0.17880  0.86344  0.31716  1.0000
  H   H905      1.0  0.45807  0.86502  0.19248  1.0000
  H   H906      1.0  0.38640  0.83503  0.08275  1.0000
  H   H907      1.0  0.42549  0.82646  0.03345  1.0000
  S   S158      1.0  0.44387  0.85789  0.03380  1.0000
  C   C528      1.0  0.39310  0.83883  0.49850  1.0000
  C   C529      1.0  0.38976  0.82263  0.45342  1.0000
  H   H908      1.0  0.34009  0.78901  0.04098  1.0000
  N   N38       1.0  0.39493  0.81323  0.06234  1.0000
  C   C530      1.0  0.04163  0.75677  0.49311  1.0000
  C   C531      1.0  0.15743  0.88157  0.26561  1.0000
  H   H909      1.0  0.02516  0.74306  0.39478  1.0000
  H   H910      1.0  0.41795  0.80323  0.10462  1.0000
  H   H911      1.0  0.10731  0.76003  0.18800  1.0000
  C   C532      1.0  0.36434  0.81907  0.11388  1.0000
  H   H912      1.0  0.33231  0.83275  0.49637  1.0000
  C   C533      1.0  0.16737  0.87075  0.33500  1.0000
  C   C534      1.0  0.38006  0.79872  0.05786  1.0000
  C   C535      1.0  0.36935  0.81383  0.50606  1.0000
  H   H913      1.0  0.06956  0.74782  0.22321  1.0000
  H   H914      1.0  0.06227  0.73621  0.47276  1.0000
  C   C536      1.0  0.37460  0.82449  0.08034  1.0000
  H   H915      1.0  0.49238  0.85087  0.15387  1.0000
  H   H916      1.0  0.35341  0.82826  0.06730  1.0000
  H   H917      1.0  0.22495  0.95696  0.17915  1.0000
  H   H918      1.0  0.05715  0.76980  0.08800  1.0000
  S   S159      1.0  0.46402  0.89769  0.01299  1.0000
  H   H919      1.0  0.38030  0.84336  0.02721  1.0000
  H   H920      1.0  0.05951  0.80758  0.14204  1.0000
  H   H921      1.0  0.21394  0.97012  0.08021  1.0000
  H   H922      1.0  0.37169  0.84572  0.49222  1.0000
  C   C537      1.0  0.43118  0.79841  0.48647  1.0000
  C   C538      1.0  0.07096  0.77819  0.50363  1.0000
  H   H923      1.0  0.02125  0.79641  0.48093  1.0000
  C   C539      1.0  0.42435  0.81486  0.49692  1.0000
  C   C540      1.0  0.38193  0.83265  0.01436  1.0000
  H   H924      1.0  0.15897  0.97970  0.16298  1.0000
  S   S160      1.0  0.02302  0.77952  0.25852  1.0000
  H   H925      1.0  0.09303  0.77107  0.50377  1.0000
  H   H926      1.0  0.24347  0.97350  0.18739  1.0000
  H   H927      1.0  0.20289  0.97407  0.19046  1.0000
  H   H928      1.0  0.03146  0.81198  0.17078  1.0000
  H   H929      1.0  0.45257  0.79345  0.49794  1.0000
  C   C541      1.0  0.22287  0.96960  0.17656  1.0000
  H   H930      1.0  0.24023  0.96874  0.12872  1.0000
  H   H931      1.0  0.41136  0.96905  0.50535  1.0000
  C   C542      1.0  0.11092  0.73131  0.62509  1.0000
  H   H932      1.0  0.41345  0.88570  0.92326  1.0000
  H   H933      1.0  0.34198  0.95257  0.60360  1.0000
  C   C543      1.0  0.41496  0.76888  0.65685  1.0000
  H   H934      1.0  0.07189  0.73736  0.51321  1.0000
  H   H935      1.0  0.05608  0.79836  0.53143  1.0000
  H   H936      1.0  0.50217  0.80090  0.57823  1.0000
  H   H937      1.0  0.50559  0.89767  0.70016  1.0000
  S   S161      1.0  0.46198  0.96815  0.89559  1.0000
  C   C544      1.0  0.44789  0.92651  0.53845  1.0000
  C   C545      1.0  0.51539  0.90483  0.97812  1.0000
  H   H938      1.0  0.41400  0.80811  0.64065  1.0000
  Fe  Fe80      1.0  0.16572  0.73356  0.73792  1.0000
  S   S162      1.0  0.26684  0.75641  0.74888  1.0000
  C   C546      1.0  0.39994  0.78947  0.69180  1.0000
  Fe  Fe81      1.0  0.47453  0.80198  0.72157  1.0000
  S   S163      1.0  0.47658  0.77644  0.72073  1.0000
  S   S164      1.0  0.46200  0.81955  0.68068  1.0000
  Fe  Fe82      1.0  0.48506  0.80083  0.79388  1.0000
  S   S165      1.0  0.48723  0.77518  0.79744  1.0000
  H   H939      1.0  0.08417  0.73486  0.78804  1.0000
  C   C547      1.0  0.46417  0.91466  0.52282  1.0000
  Fe  Fe83      1.0  0.44673  0.77733  0.76468  1.0000
  S   S166      1.0  0.41025  0.76000  0.77099  1.0000
  H   H940      1.0  0.31733  0.73287  0.76277  1.0000
  S   S167      1.0  0.44254  0.80303  0.76414  1.0000
  H   H941      1.0  0.43683  0.77427  0.65309  1.0000
  H   H942      1.0  0.05819  0.73787  0.69805  1.0000
  H   H943      1.0  0.05756  0.78107  0.57686  1.0000
  H   H944      1.0  0.36591  0.76601  0.69878  1.0000
  S   S168      1.0  0.46535  0.82479  0.97926  1.0000
  H   H945      1.0  0.39636  0.81330  0.70402  1.0000
  C   C548      1.0  0.48755  0.87269  0.93754  1.0000
  Fe  Fe84      1.0  0.23243  0.73811  0.75629  1.0000
  H   H946      1.0  0.48722  0.87876  0.95996  1.0000
  S   S169      1.0  0.44135  0.95349  0.56765  1.0000
  C   C549      1.0  0.49043  0.94935  0.67107  1.0000
  H   H947      1.0  0.42368  0.79261  0.68726  1.0000
  C   C550      1.0  0.46908  0.89540  0.90562  1.0000
  H   H948      1.0  0.45264  0.96205  0.69428  1.0000
  H   H949      1.0  0.51265  0.83677  0.93691  1.0000
  H   H950      1.0  0.42825  0.91023  0.91739  1.0000
  C   C551      1.0  0.40796  0.80006  0.62298  1.0000
  H   H951      1.0  0.50460  0.94999  0.54577  1.0000
  H   H952      1.0  0.50786  0.95467  0.68466  1.0000
  H   H953      1.0  0.33095  0.79041  0.69481  1.0000
  H   H954      1.0  0.11053  0.74701  0.82595  1.0000
  H   H955      1.0  0.31379  0.77359  0.68686  1.0000
  H   H956      1.0  0.43905  0.85751  0.96343  1.0000
  H   H957      1.0  0.27767  0.97490  0.53207  1.0000
  H   H958      1.0  0.45249  0.80353  0.87541  1.0000
  H   H959      1.0  0.38404  0.97714  0.89187  1.0000
  C   C552      1.0  0.12339  0.73502  0.65389  1.0000
  C   C553      1.0  0.44202  0.90690  0.89620  1.0000
  Fe  Fe85      1.0  0.46094  0.97531  0.57986  1.0000
  C   C554      1.0  0.37484  0.97755  0.53645  1.0000
  H   H960      1.0  0.48226  0.87004  0.87380  1.0000
  H   H961      1.0  0.42866  0.79296  0.61584  1.0000
  C   C555      1.0  0.37004  0.75938  0.76623  1.0000
  N   N39       1.0  0.38929  0.78057  0.66516  1.0000
  H   H962      1.0  0.36744  0.80253  0.72209  1.0000
  H   H963      1.0  0.05723  0.76317  0.59855  1.0000
  C   C556      1.0  0.31876  0.77137  0.75674  1.0000
  C   C557      1.0  0.35020  0.77253  0.76150  1.0000
  H   H964      1.0  0.47469  0.92106  0.69338  1.0000
  H   H965      1.0  0.48525  0.95736  0.65021  1.0000
  H   H966      1.0  0.30375  0.78163  0.75292  1.0000
  H   H967      1.0  0.35903  0.78357  0.76183  1.0000
  C   C558      1.0  0.48915  0.81823  0.87350  1.0000
  C   C559      1.0  0.04733  0.77005  0.57782  1.0000
  C   C560      1.0  0.49907  0.82978  0.92353  1.0000
  C   C561      1.0  0.47523  0.82254  0.93857  1.0000
  C   C562      1.0  0.06442  0.75869  0.77997  1.0000
  C   C563      1.0  0.46555  0.81085  0.88862  1.0000
  C   C564      1.0  0.39880  0.84083  0.53388  1.0000
  H   H968      1.0  0.04366  0.73774  0.79735  1.0000
  H   H969      1.0  0.12417  0.77173  0.85214  1.0000
  H   H970      1.0  0.43543  0.88633  0.95736  1.0000
  C   C565      1.0  0.47184  0.82109  0.63955  1.0000
  C   C566      1.0  0.48586  0.80887  0.62344  1.0000
  C   C567      1.0  0.51201  0.90553  0.68017  1.0000
  C   C568      1.0  0.48368  0.82432  0.57315  1.0000
  C   C569      1.0  0.46990  0.83656  0.58933  1.0000
  C   C570      1.0  0.46377  0.83489  0.62219  1.0000
  H   H971      1.0  0.38476  0.83381  0.54982  1.0000
  H   H972      1.0  0.09455  0.80042  0.77447  1.0000
  H   H973      1.0  0.46381  0.84731  0.57652  1.0000
  H   H974      1.0  0.08621  0.78754  0.82341  1.0000
  H   H975      1.0  0.44068  0.88209  0.84676  1.0000
  C   C571      1.0  0.48744  0.93292  0.95507  1.0000
  H   H976      1.0  0.42724  0.90270  0.87832  1.0000
  H   H977      1.0  0.03637  0.73112  0.64735  1.0000
  H   H978      1.0  0.47654  0.94377  0.94655  1.0000
  C   C572      1.0  0.06060  0.73219  0.64901  1.0000
  C   C573      1.0  0.46239  0.93928  0.54680  1.0000
  C   C574      1.0  0.50582  0.82771  0.89119  1.0000
  C   C575      1.0  0.42164  0.75544  0.68139  1.0000
  C   C576      1.0  0.09055  0.78823  0.77256  1.0000
  H   H979      1.0  0.07842  0.75677  0.54833  1.0000
  C   C577      1.0  0.36203  0.77207  0.67523  1.0000
  C   C578      1.0  0.30649  0.75709  0.75706  1.0000
  C   C579      1.0  0.33094  0.78138  0.67772  1.0000
  H   H980      1.0  0.35877  0.76302  0.65846  1.0000
  C   C580      1.0  0.42258  0.86396  0.94723  1.0000
  H   H981      1.0  0.37611  0.78321  0.61598  1.0000
  H   H982      1.0  0.40009  0.80706  0.60159  1.0000
  H   H983      1.0  0.32258  0.78612  0.65436  1.0000
  C   C581      1.0  0.11024  0.75816  0.81258  1.0000
  C   C582      1.0  0.06785  0.76578  0.86933  1.0000
  C   C583      1.0  0.38081  0.80431  0.69990  1.0000
  H   H984      1.0  0.45057  0.91725  0.64937  1.0000
  H   H985      1.0  0.07510  0.78761  0.75225  1.0000
  H   H986      1.0  0.02246  0.77183  0.58273  1.0000
  C   C584      1.0  0.43474  0.87328  0.86510  1.0000
  C   C585      1.0  0.35773  0.74511  0.76692  1.0000
  H   H987      1.0  0.36187  0.79846  0.63828  1.0000
  H   H988      1.0  0.11271  0.78191  0.76712  1.0000
  C   C586      1.0  0.48565  0.90943  0.98796  1.0000
  N   N40       1.0  0.07782  0.76502  0.80867  1.0000
  H   H989      1.0  0.39081  0.83552  0.99018  1.0000
  C   C587      1.0  0.33796  0.82257  0.51221  1.0000
  H   H990      1.0  0.45284  0.84441  0.63433  1.0000
  H   H991      1.0  0.43989  0.93709  0.63707  1.0000
  H   H992      1.0  0.41805  0.85694  0.92712  1.0000
  H   H993      1.0  0.36510  0.80923  0.68136  1.0000
  H   H994      1.0  0.46152  0.85716  0.89609  1.0000
  H   H995      1.0  0.44800  0.92319  0.60864  1.0000
  N   N41       1.0  0.34182  0.97655  0.54590  1.0000
  H   H996      1.0  0.37272  0.73484  0.77079  1.0000
  H   H997      1.0  0.36310  0.97546  0.61126  1.0000
  S   S170      1.0  0.18615  0.74655  0.77560  1.0000
  H   H998      1.0  0.04987  0.76317  0.88715  1.0000
  H   H999      1.0  0.44304  0.74877  0.67452  1.0000
  H   H1000     1.0  0.48555  0.89523  0.88531  1.0000
  H   H1001     1.0  0.45286  0.90483  0.51653  1.0000
  C   C588      1.0  0.48855  0.93014  0.63017  1.0000
  C   C589      1.0  0.35320  0.95130  0.58004  1.0000
  H   H1002     1.0  0.41045  0.76370  0.63409  1.0000
  C   C590      1.0  0.45865  0.81301  0.92092  1.0000
  H   H1003     1.0  0.42402  0.92573  0.54422  1.0000
  H   H1004     1.0  0.40333  0.74750  0.68234  1.0000
  S   S171      1.0  0.49044  0.82549  0.53134  1.0000
  H   H1005     1.0  0.42502  0.75932  0.70538  1.0000
  C   C591      1.0  0.46111  0.86948  0.88844  1.0000
  H   H1006     1.0  0.08887  0.75898  0.87752  1.0000
  H   H1007     1.0  0.40090  0.86572  0.96088  1.0000
  H   H1008     1.0  0.05677  0.73778  0.75733  1.0000
  H   H1009     1.0  0.04109  0.76420  0.77528  1.0000
  H   H1010     1.0  0.40174  0.78221  0.71416  1.0000
  H   H1011     1.0  0.31018  0.96020  0.56191  1.0000
  H   H1012     1.0  0.12096  0.75551  0.78922  1.0000
  C   C592      1.0  0.49147  0.81045  0.59043  1.0000
  H   H1013     1.0  0.15399  0.76019  0.83437  1.0000
  H   H1014     1.0  0.44027  0.80726  0.93228  1.0000
  N   N42       1.0  0.46206  0.87938  0.91631  1.0000
  C   C593      1.0  0.47187  0.92350  0.97646  1.0000
  C   C594      1.0  0.38222  0.79039  0.63543  1.0000
  C   C595      1.0  0.32623  0.74395  0.76245  1.0000
  C   C596      1.0  0.07578  0.78213  0.80363  1.0000
  H   H1015     1.0  0.48056  0.90085  0.92473  1.0000
  C   C597      1.0  0.43306  0.87967  0.93597  1.0000
  H   H1016     1.0  0.44349  0.94351  0.68519  1.0000
  C   C598      1.0  0.13273  0.76757  0.82923  1.0000
  S   S172      1.0  0.49890  0.81614  0.83276  1.0000
  H   H1017     1.0  0.43026  0.86278  0.85317  1.0000
  H   H1018     1.0  0.45105  0.91752  0.88588  1.0000
  H   H1019     1.0  0.50642  0.78319  0.89900  1.0000
  N   N43       1.0  0.04566  0.76894  0.51617  1.0000
  C   C599      1.0  0.05814  0.76085  0.83692  1.0000
  H   H1020     1.0  0.07823  0.76121  0.75830  1.0000
  H   H1021     1.0  0.13938  0.77735  0.81381  1.0000
  H   H1022     1.0  0.35528  0.93903  0.57491  1.0000
  H   H1023     1.0  0.41285  0.87695  0.87664  1.0000
  H   H1024     1.0  0.37690  0.95435  0.58131  1.0000
  C   C600      1.0  0.49326  0.94019  0.53941  1.0000
  H   H1025     1.0  0.07045  0.77815  0.86969  1.0000
  S   S173      1.0  0.50956  0.98021  0.58696  1.0000
  H   H1026     1.0  0.05732  0.74835  0.84018  1.0000
  S   S174      1.0  0.11922  0.74190  0.71734  1.0000
  C   C601      1.0  0.33434  0.96040  0.55391  1.0000
  C   C602      1.0  0.50957  0.92831  0.52387  1.0000
  C   C603      1.0  0.49905  0.92187  0.68689  1.0000
  C   C604      1.0  0.46203  0.95001  0.69313  1.0000
  C   C605      1.0  0.49509  0.91551  0.51559  1.0000
  H   H1027     1.0  0.48457  0.86061  0.94478  1.0000
  C   C606      1.0  0.10458  0.73714  0.68058  1.0000
  H   H1028     1.0  0.03406  0.76550  0.83313  1.0000
  C   C607      1.0  0.06230  0.74126  0.78128  1.0000
  H   H1029     1.0  0.04114  0.75070  0.55176  1.0000
  Fe  Fe86      1.0  0.51183  0.96300  0.90527  1.0000
  C   C608      1.0  0.07689  0.79241  0.52154  1.0000
  C   C609      1.0  0.45484  0.92675  0.63210  1.0000
  H   H1030     1.0  0.39035  0.97456  0.55650  1.0000
  H   H1031     1.0  0.50249  0.90140  0.65842  1.0000
  H   H1032     1.0  0.39318  0.85297  0.53912  1.0000
  H   H1033     1.0  0.42323  0.83819  0.53958  1.0000
  H   H1034     1.0  0.46832  0.94596  0.71768  1.0000
  H   H1035     1.0  0.48982  0.93968  0.61199  1.0000
  H   H1036     1.0  0.05148  0.78686  0.80365  1.0000
  C   C610      1.0  0.07307  0.73597  0.67779  1.0000
  H   H1037     1.0  0.42805  0.81425  0.52296  1.0000
  H   H1038     1.0  0.44896  0.92717  0.98412  1.0000
  H   H1039     1.0  0.33542  0.95354  0.53249  1.0000
  H   H1040     1.0  0.49212  0.79817  0.63634  1.0000
  H   H1041     1.0  0.33586  0.82582  0.53722  1.0000
  N   N44       1.0  0.50295  0.93388  0.66063  1.0000
  C   C611      1.0  0.05386  0.76102  0.54785  1.0000
  H   H1042     1.0  0.38519  0.95522  0.51573  1.0000
  H   H1043     1.0  0.14751  0.73635  0.65544  1.0000
  H   H1044     1.0  0.50994  0.92509  0.70892  1.0000
  H   H1045     1.0  0.37781  0.80946  0.52982  1.0000
  H   H1046     1.0  0.09359  0.78944  0.54075  1.0000
  H   H1047     1.0  0.31973  0.81481  0.50910  1.0000
  C   C612      1.0  0.38676  0.96751  0.50942  1.0000
  H   H1048     1.0  0.50139  0.92015  0.61977  1.0000
  H   H1049     1.0  0.08907  0.73056  0.93436  1.0000
  H   H1050     1.0  0.51401  0.98035  0.79226  1.0000
  C   C613      1.0  0.00609  0.98915  0.25730  1.0000
  H   H1051     1.0  0.76748  0.98187  0.44492  1.0000
  H   H1052     1.0  0.69396  0.02462  0.39707  1.0000
  Fe  Fe87      1.0  0.80926  0.00127  0.21811  1.0000
  S   S175      1.0  0.78139  0.00316  0.26289  1.0000
  S   S176      1.0  0.78071  0.00281  0.17354  1.0000
  Fe  Fe88      1.0  0.82091  0.01381  0.28241  1.0000
  S   S177      1.0  0.81147  0.03498  0.31000  1.0000
  H   H1053     1.0  0.64776  0.07121  0.06441  1.0000
  S   S178      1.0  0.84749  0.01389  0.23619  1.0000
  H   H1054     1.0  0.52981  0.18155  0.49871  1.0000
  S   S179      1.0  0.69257  0.05247  0.03669  1.0000
  H   H1055     1.0  0.00724  0.04174  0.15535  1.0000
  Fe  Fe89      1.0  0.74511  0.04280  0.48182  1.0000
  S   S180      1.0  0.77928  0.05011  0.05434  1.0000
  C   C614      1.0  0.55059  0.16125  0.01442  1.0000
  C   C615      1.0  0.60956  0.07453  0.34670  1.0000
  H   H1056     1.0  0.72639  0.98863  0.18722  1.0000
  H   H1057     1.0  0.87652  0.01945  0.31973  1.0000
  H   H1058     1.0  0.71435  0.99033  0.47029  1.0000
  S   S181      1.0  0.66031  0.08236  0.44880  1.0000
  H   H1059     1.0  0.61322  0.10443  0.33018  1.0000
  S   S182      1.0  0.78584  0.03020  0.45832  1.0000
  H   H1060     1.0  0.58154  0.11681  0.34385  1.0000
  C   C616      1.0  0.78070  0.01633  0.14106  1.0000
  C   C617      1.0  0.75926  0.01561  0.11706  1.0000
  C   C618      1.0  0.75868  0.02585  0.09035  1.0000
  C   C619      1.0  0.77958  0.03695  0.08743  1.0000
  C   C620      1.0  0.80093  0.03776  0.11152  1.0000
  C   C621      1.0  0.80145  0.02752  0.13834  1.0000
  H   H1061     1.0  0.74304  0.00706  0.11899  1.0000
  H   H1062     1.0  0.74217  0.02512  0.07194  1.0000
  H   H1063     1.0  0.81723  0.04630  0.10934  1.0000
  H   H1064     1.0  0.81811  0.02815  0.15663  1.0000
  C   C622      1.0  0.80290  0.03305  0.35088  1.0000
  C   C623      1.0  0.81679  0.02107  0.36989  1.0000
  C   C624      1.0  0.81178  0.02051  0.40286  1.0000
  C   C625      1.0  0.79188  0.03157  0.41691  1.0000
  C   C626      1.0  0.77736  0.04334  0.39781  1.0000
  C   C627      1.0  0.78330  0.04422  0.36495  1.0000
  H   H1065     1.0  0.83204  0.01248  0.35931  1.0000
  H   H1066     1.0  0.82320  0.01142  0.41756  1.0000
  H   H1067     1.0  0.76212  0.05196  0.40844  1.0000
  H   H1068     1.0  0.77270  0.05360  0.35040  1.0000
  H   H1069     1.0  0.57198  0.08578  0.03894  1.0000
  C   C628      1.0  0.97745  0.01322  0.24441  1.0000
  C   C629      1.0  0.95015  0.00591  0.24453  1.0000
  C   C630      1.0  0.95061  0.99024  0.25183  1.0000
  H   H1070     1.0  0.73384  0.09398  0.04113  1.0000
  H   H1071     1.0  0.61990  0.06684  0.49226  1.0000
  H   H1072     1.0  0.97679  0.02540  0.23942  1.0000
  H   H1073     1.0  0.92874  0.01237  0.23910  1.0000
  C   C631      1.0  0.60934  0.07804  0.48587  1.0000
  C   C632      1.0  0.00553  0.00489  0.25100  1.0000
  H   H1074     1.0  0.56881  0.11736  0.45935  1.0000
  H   H1075     1.0  0.61417  0.07093  0.11184  1.0000
  C   C633      1.0  0.90088  0.03558  0.29130  1.0000
  C   C634      1.0  0.55486  0.08370  0.35094  1.0000
  C   C635      1.0  0.58009  0.10642  0.46683  1.0000
  C   C636      1.0  0.60977  0.10222  0.45602  1.0000
  C   C637      1.0  0.62435  0.08796  0.46519  1.0000
  C   C638      1.0  0.70997  0.00047  0.39968  1.0000
  C   C639      1.0  0.58003  0.08242  0.49749  1.0000
  H   H1076     1.0  0.95643  0.00774  0.30966  1.0000
  H   H1077     1.0  0.62141  0.11002  0.44039  1.0000
  C   C640      1.0  0.59563  0.09414  0.10349  1.0000
  C   C641      1.0  0.59612  0.10734  0.08367  1.0000
  C   C642      1.0  0.61559  0.10755  0.05701  1.0000
  C   C643      1.0  0.63432  0.09451  0.04990  1.0000
  C   C644      1.0  0.63354  0.08129  0.06961  1.0000
  C   C645      1.0  0.61450  0.08116  0.09652  1.0000
  H   H1078     1.0  0.58204  0.11750  0.08929  1.0000
  H   H1079     1.0  0.61877  0.11658  0.36070  1.0000
  H   H1080     1.0  0.99431  0.02555  0.30821  1.0000
  H   H1081     1.0  0.96862  0.00985  0.34880  1.0000
  H   H1082     1.0  0.55664  0.04675  0.05531  1.0000
  C   C646      1.0  0.75352  0.99235  0.43631  1.0000
  Fe  Fe90      1.0  0.68806  0.06451  0.47884  1.0000
  C   C647      1.0  0.88615  0.03627  0.37371  1.0000
  C   C648      1.0  0.55458  0.08877  0.31544  1.0000
  H   H1083     1.0  0.61197  0.08078  0.32348  1.0000
  H   H1084     1.0  0.80550  0.98594  0.36017  1.0000
  Fe  Fe91      1.0  0.80561  0.98079  0.27886  1.0000
  C   C649      1.0  0.73300  0.99765  0.46434  1.0000
  H   H1085     1.0  0.60275  0.07203  0.41228  1.0000
  C   C650      1.0  0.76001  0.99217  0.37834  1.0000
  C   C651      1.0  0.56524  0.09653  0.48767  1.0000
  H   H1086     1.0  0.92565  0.00382  0.38285  1.0000
  S   S183      1.0  0.84320  0.99165  0.30221  1.0000
  C   C652      1.0  0.64183  0.07228  0.36090  1.0000
  H   H1087     1.0  0.93377  0.02961  0.38206  1.0000
  H   H1088     1.0  0.55978  0.19137  0.02976  1.0000
  H   H1089     1.0  0.65784  0.06701  0.34326  1.0000
  C   C653      1.0  0.97176  0.02964  0.31823  1.0000
  H   H1090     1.0  0.65059  0.08326  0.36645  1.0000
  H   H1091     1.0  0.55668  0.06838  0.44082  1.0000
  C   C654      1.0  0.59365  0.09743  0.37745  1.0000
  H   H1092     1.0  0.53840  0.09183  0.36313  1.0000
  H   H1093     1.0  0.90541  0.01130  0.29578  1.0000
  H   H1094     1.0  0.60296  0.06312  0.34064  1.0000
  N   N45       1.0  0.73803  0.98972  0.40565  1.0000
  H   H1095     1.0  0.58153  0.05982  0.39086  1.0000
  N   N46       1.0  0.72134  0.08099  0.11998  1.0000
  C   C655      1.0  0.69993  0.06938  0.13211  1.0000
  C   C656      1.0  0.71034  0.09603  0.13338  1.0000
  C   C657      1.0  0.75307  0.07578  0.13156  1.0000
  C   C658      1.0  0.72046  0.08178  0.08426  1.0000
  C   C659      1.0  0.71006  0.05255  0.12625  1.0000
  C   C660      1.0  0.67769  0.10241  0.12447  1.0000
  C   C661      1.0  0.77494  0.08819  0.13697  1.0000
  C   C662      1.0  0.73845  0.09398  0.06687  1.0000
  H   H1096     1.0  0.69608  0.07006  0.15815  1.0000
  H   H1097     1.0  0.67708  0.07169  0.12118  1.0000
  H   H1098     1.0  0.72535  0.10512  0.12604  1.0000
  H   H1099     1.0  0.71130  0.09506  0.15976  1.0000
  H   H1100     1.0  0.75203  0.06936  0.15497  1.0000
  H   H1101     1.0  0.76480  0.06760  0.11521  1.0000
  H   H1102     1.0  0.72947  0.07078  0.07481  1.0000
  H   H1103     1.0  0.69659  0.08366  0.07595  1.0000
  H   H1104     1.0  0.71395  0.05062  0.10086  1.0000
  H   H1105     1.0  0.73082  0.04829  0.13957  1.0000
  H   H1106     1.0  0.69170  0.04533  0.13456  1.0000
  H   H1107     1.0  0.66015  0.09509  0.13434  1.0000
  H   H1108     1.0  0.67277  0.11368  0.13483  1.0000
  H   H1109     1.0  0.67496  0.10433  0.09851  1.0000
  H   H1110     1.0  0.79824  0.08262  0.14102  1.0000
  H   H1111     1.0  0.76818  0.09436  0.15854  1.0000
  H   H1112     1.0  0.77647  0.09654  0.11671  1.0000
  H   H1113     1.0  0.73133  0.10564  0.07408  1.0000
  C   C663      1.0  0.55444  0.07566  0.41855  1.0000
  H   H1114     1.0  0.76333  0.09132  0.06958  1.0000
  H   H1115     1.0  0.64281  0.06448  0.38241  1.0000
  H   H1116     1.0  0.94505  0.98621  0.34136  1.0000
  H   H1117     1.0  0.56278  0.03779  0.50004  1.0000
  S   S184      1.0  0.65883  0.09515  0.01668  1.0000
  H   H1118     1.0  0.97656  0.03660  0.33838  1.0000
  C   C664      1.0  0.58243  0.07192  0.39699  1.0000
  H   H1119     1.0  0.76707  0.00397  0.37722  1.0000
  H   H1120     1.0  0.74722  0.99769  0.48581  1.0000
  Fe  Fe92      1.0  0.53030  0.11019  0.13452  1.0000
  H   H1121     1.0  0.92651  0.04242  0.34931  1.0000
  H   H1122     1.0  0.54975  0.16721  0.03688  1.0000
  H   H1123     1.0  0.74892  0.99083  0.35521  1.0000
  H   H1124     1.0  0.90569  0.04565  0.30414  1.0000
  H   H1125     1.0  0.87787  0.02728  0.39024  1.0000
  S   S185      1.0  0.69820  0.04060  0.46360  1.0000
  H   H1126     1.0  0.73221  0.02109  0.41106  1.0000
  H   H1127     1.0  0.61288  0.09603  0.39432  1.0000
  H   H1128     1.0  0.86973  0.03903  0.35422  1.0000
  H   H1129     1.0  0.97904  0.05796  0.19245  1.0000
  H   H1130     1.0  0.57650  0.06216  0.06490  1.0000
  H   H1131     1.0  0.53243  0.15320  0.01609  1.0000
  H   H1132     1.0  0.57469  0.10314  0.39132  1.0000
  C   C665      1.0  0.91350  0.00472  0.35981  1.0000
  H   H1133     1.0  0.88634  0.04667  0.38739  1.0000
  C   C666      1.0  0.90060  0.02067  0.31217  1.0000
  H   H1134     1.0  0.91716  0.03422  0.27114  1.0000
  S   S186      1.0  0.51925  0.21380  0.50568  1.0000
  H   H1135     1.0  0.71188  0.98239  0.10269  1.0000
  H   H1136     1.0  0.61619  0.11784  0.04194  1.0000
  N   N47       1.0  0.92183  0.01861  0.34003  1.0000
  C   C667      1.0  0.91864  0.03191  0.36117  1.0000
  C   C668      1.0  0.95463  0.01570  0.32927  1.0000
  C   C669      1.0  0.60195  0.10931  0.35126  1.0000
  H   H1137     1.0  0.54213  0.03602  0.00937  1.0000
  H   H1138     1.0  0.53289  0.07317  0.40744  1.0000
  H   H1139     1.0  0.54447  0.07258  0.35235  1.0000
  H   H1140     1.0  0.87773  0.03850  0.28147  1.0000
  H   H1141     1.0  0.72313  0.00950  0.46004  1.0000
  Fe  Fe93      1.0  0.86747  0.99081  0.25485  1.0000
  H   H1142     1.0  0.72413  0.01994  0.36960  1.0000
  H   H1143     1.0  0.52846  0.09012  0.06963  1.0000
  H   H1144     1.0  0.53088  0.16721  0.34462  1.0000
  H   H1145     1.0  0.56529  0.21858  0.02230  1.0000
  H   H1146     1.0  0.77010  0.00115  0.43259  1.0000
  H   H1147     1.0  0.53330  0.18632  0.38394  1.0000
  H   H1148     1.0  0.90876  0.98881  0.32164  1.0000
  H   H1149     1.0  0.53050  0.09064  0.30764  1.0000
  H   H1150     1.0  0.88875  0.00556  0.36597  1.0000
  S   S187      1.0  0.57207  0.09361  0.13729  1.0000
  H   H1151     1.0  0.69772  0.99722  0.37853  1.0000
  H   H1152     1.0  0.80206  0.98184  0.40180  1.0000
  H   H1153     1.0  0.53632  0.07201  0.09151  1.0000
  C   C670      1.0  0.52098  0.07850  0.07417  1.0000
  H   H1154     1.0  0.69323  0.99979  0.41954  1.0000
  C   C671      1.0  0.97874  0.98189  0.25782  1.0000
  H   H1155     1.0  0.54213  0.09141  0.01210  1.0000
  H   H1156     1.0  0.55266  0.08763  0.42534  1.0000
  H   H1157     1.0  0.69780  0.98875  0.13978  1.0000
  C   C672      1.0  0.71570  0.01746  0.39411  1.0000
  H   H1158     1.0  0.51686  0.15509  0.30362  1.0000
  H   H1159     1.0  0.53784  0.12473  0.28317  1.0000
  C   C673      1.0  0.56864  0.05637  0.04419  1.0000
  C   C674      1.0  0.92024  0.98921  0.34461  1.0000
  N   N48       1.0  0.58527  0.08219  0.36739  1.0000
  H   H1160     1.0  0.56570  0.07981  0.30068  1.0000
  H   H1161     1.0  0.56486  0.09964  0.31029  1.0000
  H   H1162     1.0  0.54740  0.16796  0.39925  1.0000
  Fe  Fe94      1.0  0.74079  0.05152  0.01883  1.0000
  H   H1163     1.0  0.61945  0.03581  0.50031  1.0000
  S   S188      1.0  0.52788  0.10141  0.50085  1.0000
  H   H1164     1.0  0.95985  0.03686  0.29941  1.0000
  S   S189      1.0  0.73614  0.06754  0.49333  1.0000
  S   S190      1.0  0.52012  0.13012  0.16493  1.0000
  C   C675      1.0  0.00274  0.06023  0.18538  1.0000
  H   H1165     1.0  0.01267  0.06524  0.20578  1.0000
  N   N49       1.0  0.54729  0.06712  0.02437  1.0000
  C   C676      1.0  0.56059  0.08224  0.01759  1.0000
  H   H1166     1.0  0.00093  0.06874  0.16500  1.0000
  H   H1167     1.0  0.57259  0.15424  0.01247  1.0000
  H   H1168     1.0  0.71040  0.98569  0.24292  1.0000
  S   S191      1.0  0.91678  0.98061  0.25444  1.0000
  S   S192      1.0  0.51658  0.12478  0.34767  1.0000
  C   C677      1.0  0.51814  0.07012  0.04329  1.0000
  H   H1169     1.0  0.60295  0.17529  0.01122  1.0000
  H   H1170     1.0  0.61718  0.05667  0.03087  1.0000
  C   C678      1.0  0.78999  0.98174  0.37904  1.0000
  C   C679      1.0  0.59793  0.04953  0.02801  1.0000
  H   H1171     1.0  0.60432  0.03807  0.03930  1.0000
  C   C680      1.0  0.52634  0.17485  0.39134  1.0000
  H   H1172     1.0  0.63675  0.21243  0.48409  1.0000
  H   H1173     1.0  0.60380  0.21011  0.50826  1.0000
  H   H1174     1.0  0.59910  0.20839  0.00887  1.0000
  H   H1175     1.0  0.90786  0.08039  0.84958  1.0000
  H   H1176     1.0  0.91992  0.11179  0.79181  1.0000
  H   H1177     1.0  0.59532  0.22305  0.65760  1.0000
  Fe  Fe95      1.0  0.52532  0.99611  0.89534  1.0000
  Fe  Fe96      1.0  0.72146  0.05849  0.94984  1.0000
  S   S193      1.0  0.73065  0.06193  0.89693  1.0000
  H   H1178     1.0  0.59386  0.15914  0.95677  1.0000
  S   S194      1.0  0.67155  0.06020  0.96314  1.0000
  N   N50       1.0  0.56583  0.18499  0.98106  1.0000
  H   H1179     1.0  0.60303  0.07448  0.99177  1.0000
  Fe  Fe97      1.0  0.72134  0.05859  0.54173  1.0000
  S   S195      1.0  0.72227  0.06907  0.58981  1.0000
  S   S196      1.0  0.67268  0.05726  0.52756  1.0000
  S   S197      1.0  0.73436  0.03417  0.53160  1.0000
  Fe  Fe98      1.0  0.83792  0.10343  0.78021  1.0000
  S   S198      1.0  0.80006  0.10359  0.74495  1.0000
  S   S199      1.0  0.83819  0.09696  0.83288  1.0000
  Fe  Fe99      1.0  0.88037  0.11931  0.73379  1.0000
  S   S200      1.0  0.84592  0.12108  0.69494  1.0000
  S   S201      1.0  0.92467  0.13069  0.72782  1.0000
  Fe  Fe100     1.0  0.81120  0.12767  0.73234  1.0000
  S   S202      1.0  0.77306  0.14591  0.72069  1.0000
  Fe  Fe101     1.0  0.83742  0.09696  0.71002  1.0000
  S   S203      1.0  0.83783  0.08008  0.67120  1.0000
  S   S204      1.0  0.84613  0.12802  0.76992  1.0000
  S   S205      1.0  0.87470  0.09472  0.74647  1.0000
  C   C681      1.0  0.96104  0.12124  0.73528  1.0000
  C   C682      1.0  0.96509  0.10546  0.74116  1.0000
  C   C683      1.0  0.99415  0.09845  0.74877  1.0000
  H   H1180     1.0  0.86064  0.20380  0.80762  1.0000
  C   C684      1.0  0.91964  0.11556  0.81657  1.0000
  C   C685      1.0  0.98642  0.12987  0.73608  1.0000
  H   H1181     1.0  0.94579  0.09868  0.74015  1.0000
  C   C686      1.0  0.63527  0.22336  0.57609  1.0000
  C   C687      1.0  0.01550  0.12286  0.74360  1.0000
  H   H1182     1.0  0.98348  0.14209  0.73138  1.0000
  C   C688      1.0  0.76910  0.16306  0.74068  1.0000
  C   C689      1.0  0.78621  0.16503  0.76748  1.0000
  C   C690      1.0  0.78111  0.17844  0.78405  1.0000
  C   C691      1.0  0.74268  0.18827  0.74639  1.0000
  C   C692      1.0  0.74732  0.17471  0.73022  1.0000
  H   H1183     1.0  0.80314  0.15619  0.77562  1.0000
  H   H1184     1.0  0.55754  0.00471  0.95798  1.0000
  H   H1185     1.0  0.73391  0.17326  0.70956  1.0000
  C   C693      1.0  0.75483  0.07082  0.61282  1.0000
  C   C694      1.0  0.78442  0.06769  0.60101  1.0000
  C   C695      1.0  0.80966  0.07033  0.61943  1.0000
  C   C696      1.0  0.80552  0.07624  0.64957  1.0000
  C   C697      1.0  0.77593  0.07905  0.66163  1.0000
  C   C698      1.0  0.75072  0.07631  0.64333  1.0000
  H   H1186     1.0  0.78788  0.06343  0.57758  1.0000
  H   H1187     1.0  0.83251  0.06798  0.61008  1.0000
  H   H1188     1.0  0.77253  0.08329  0.68506  1.0000
  H   H1189     1.0  0.72788  0.07864  0.65271  1.0000
  C   C699      1.0  0.76147  0.07122  0.87983  1.0000
  C   C700      1.0  0.76397  0.07277  0.84665  1.0000
  C   C701      1.0  0.78776  0.08036  0.83196  1.0000
  C   C702      1.0  0.80925  0.08649  0.85043  1.0000
  C   C703      1.0  0.80694  0.08485  0.88362  1.0000
  C   C704      1.0  0.78306  0.07729  0.89831  1.0000
  H   H1190     1.0  0.74742  0.06802  0.83224  1.0000
  H   H1191     1.0  0.78946  0.08145  0.80640  1.0000
  H   H1192     1.0  0.82348  0.08958  0.89805  1.0000
  H   H1193     1.0  0.78135  0.07614  0.92388  1.0000
  C   C705      1.0  0.58475  0.01590  0.92241  1.0000
  C   C706      1.0  0.61098  0.02366  0.91670  1.0000
  C   C707      1.0  0.63090  0.02563  0.94142  1.0000
  C   C708      1.0  0.62473  0.01981  0.97203  1.0000
  H   H1194     1.0  0.74375  0.12073  0.69322  1.0000
  C   C709      1.0  0.57789  0.01057  0.95330  1.0000
  H   H1195     1.0  0.61634  0.02785  0.89288  1.0000
  H   H1196     1.0  0.65156  0.03122  0.93651  1.0000
  H   H1197     1.0  0.58473  0.20589  0.55597  1.0000
  H   H1198     1.0  0.59459  0.00426  0.62675  1.0000
  C   C710      1.0  0.97454  0.11297  0.82966  1.0000
  C   C711      1.0  0.56284  0.19202  0.94783  1.0000
  C   C712      1.0  0.60706  0.00279  0.54215  1.0000
  C   C713      1.0  0.57508  0.00402  0.54251  1.0000
  C   C714      1.0  0.59795  0.01248  0.97807  1.0000
  H   H1199     1.0  0.60545  0.22767  0.74363  1.0000
  C   C715      1.0  0.54475  0.17236  0.98524  1.0000
  C   C716      1.0  0.57458  0.21097  0.00373  1.0000
  Fe  Fe102     1.0  0.68693  0.03361  0.51385  1.0000
  H   H1200     1.0  0.61937  0.99299  0.55390  1.0000
  S   S206      1.0  0.51872  0.98606  0.67629  1.0000
  H   H1201     1.0  0.79726  0.21579  0.74375  1.0000
  H   H1202     1.0  0.00832  0.09308  0.83528  1.0000
  H   H1203     1.0  0.95045  0.09704  0.88432  1.0000
  H   H1204     1.0  0.92239  0.13836  0.83596  1.0000
  H   H1205     1.0  0.68015  0.21630  0.59479  1.0000
  H   H1206     1.0  0.72584  0.19719  0.73814  1.0000
  H   H1207     1.0  0.83656  0.21530  0.73029  1.0000
  C   C717      1.0  0.75941  0.19012  0.77353  1.0000
  S   S207      1.0  0.66312  0.01269  0.52869  1.0000
  H   H1208     1.0  0.74362  0.16262  0.61937  1.0000
  H   H1209     1.0  0.88823  0.22848  0.79010  1.0000
  S   S208      1.0  0.73246  0.03647  0.97883  1.0000
  C   C718      1.0  0.81530  0.22266  0.73327  1.0000
  H   H1210     1.0  0.75241  0.10240  0.55518  1.0000
  H   H1211     1.0  0.58303  0.98185  0.92521  1.0000
  H   H1212     1.0  0.79403  0.17975  0.80510  1.0000
  N   N51       1.0  0.77346  0.12447  0.61654  1.0000
  C   C719      1.0  0.80550  0.12706  0.60547  1.0000
  H   H1213     1.0  0.73628  0.10656  0.66577  1.0000
  C   C720      1.0  0.76143  0.11142  0.60047  1.0000
  C   C721      1.0  0.77385  0.12064  0.65170  1.0000
  C   C722      1.0  0.82876  0.11293  0.60681  1.0000
  H   H1214     1.0  0.91118  0.12710  0.88493  1.0000
  H   H1215     1.0  0.87338  0.21724  0.76190  1.0000
  C   C723      1.0  0.76097  0.11289  0.56398  1.0000
  H   H1216     1.0  0.80573  0.13202  0.58069  1.0000
  H   H1217     1.0  0.81526  0.13562  0.61989  1.0000
  H   H1218     1.0  0.59057  0.22787  0.78270  1.0000
  H   H1219     1.0  0.52404  0.20921  0.95351  1.0000
  H   H1220     1.0  0.77470  0.10055  0.60745  1.0000
  H   H1221     1.0  0.73764  0.10973  0.60845  1.0000
  H   H1222     1.0  0.78817  0.10987  0.65711  1.0000
  H   H1223     1.0  0.78537  0.12913  0.66468  1.0000
  H   H1224     1.0  0.85134  0.11642  0.59848  1.0000
  H   H1225     1.0  0.83200  0.10799  0.63124  1.0000
  H   H1226     1.0  0.82270  0.10398  0.59119  1.0000
  H   H1227     1.0  0.74966  0.15029  0.65386  1.0000
  H   H1228     1.0  0.78160  0.15533  0.62915  1.0000
  H   H1229     1.0  0.98491  0.09963  0.67396  1.0000
  C   C724      1.0  0.75760  0.15241  0.62909  1.0000
  C   C725      1.0  0.74261  0.11837  0.66775  1.0000
  H   H1230     1.0  0.78402  0.11383  0.55347  1.0000
  H   H1231     1.0  0.82332  0.20126  0.82298  1.0000
  S   S209      1.0  0.73390  0.07329  0.98831  1.0000
  C   C726      1.0  0.53092  0.19941  0.93901  1.0000
  N   N52       1.0  0.63320  0.03757  0.61519  1.0000
  C   C727      1.0  0.62774  0.02085  0.61575  1.0000
  C   C728      1.0  0.66593  0.03880  0.60483  1.0000
  C   C729      1.0  0.61258  0.04585  0.59059  1.0000
  C   C730      1.0  0.62619  0.04334  0.64772  1.0000
  C   C731      1.0  0.59465  0.01681  0.62249  1.0000
  C   C732      1.0  0.69026  0.03029  0.62655  1.0000
  C   C733      1.0  0.61314  0.06330  0.58706  1.0000
  C   C734      1.0  0.64128  0.05780  0.65649  1.0000
  H   H1232     1.0  0.63508  0.01590  0.59291  1.0000
  H   H1233     1.0  0.64186  0.01424  0.63414  1.0000
  H   H1234     1.0  0.67169  0.05075  0.60186  1.0000
  H   H1235     1.0  0.66987  0.03432  0.58083  1.0000
  H   H1236     1.0  0.61787  0.04129  0.56688  1.0000
  H   H1237     1.0  0.58830  0.04399  0.59565  1.0000
  H   H1238     1.0  0.60109  0.04562  0.65111  1.0000
  H   H1239     1.0  0.63341  0.03435  0.66626  1.0000
  H   H1240     1.0  0.80372  0.22661  0.80881  1.0000
  H   H1241     1.0  0.58454  0.02210  0.64385  1.0000
  C   C735      1.0  0.55690  0.19655  0.00530  1.0000
  H   H1242     1.0  0.71298  0.03411  0.61953  1.0000
  H   H1243     1.0  0.68644  0.03261  0.65184  1.0000
  H   H1244     1.0  0.69154  0.01782  0.62359  1.0000
  H   H1245     1.0  0.80847  0.22660  0.70880  1.0000
  H   H1246     1.0  0.63617  0.06707  0.58208  1.0000
  H   H1247     1.0  0.62447  0.06521  0.66979  1.0000
  H   H1248     1.0  0.64941  0.06496  0.63638  1.0000
  H   H1249     1.0  0.66046  0.05474  0.67299  1.0000
  H   H1250     1.0  0.93766  0.11802  0.91356  1.0000
  H   H1251     1.0  0.62216  0.17150  0.94266  1.0000
  N   N53       1.0  0.73738  0.12361  0.82768  1.0000
  C   C736      1.0  0.74064  0.11551  0.86008  1.0000
  C   C737      1.0  0.76888  0.12723  0.81662  1.0000
  C   C738      1.0  0.72535  0.11265  0.80570  1.0000
  C   C739      1.0  0.71555  0.13765  0.83042  1.0000
  C   C740      1.0  0.71210  0.10844  0.87411  1.0000
  C   C741      1.0  0.78601  0.13676  0.83893  1.0000
  C   C742      1.0  0.72079  0.11835  0.77090  1.0000
  C   C743      1.0  0.71815  0.15074  0.80478  1.0000
  H   H1252     1.0  0.75916  0.10618  0.85985  1.0000
  H   H1253     1.0  0.74755  0.12335  0.87792  1.0000
  H   H1254     1.0  0.76882  0.13330  0.79301  1.0000
  H   H1255     1.0  0.78355  0.11650  0.81328  1.0000
  H   H1256     1.0  0.74066  0.10192  0.80577  1.0000
  H   H1257     1.0  0.70262  0.10926  0.81384  1.0000
  H   H1258     1.0  0.69155  0.13453  0.83084  1.0000
  H   H1259     1.0  0.71885  0.14287  0.85342  1.0000
  H   H1260     1.0  0.70789  0.09785  0.86240  1.0000
  H   H1261     1.0  0.71615  0.10494  0.89946  1.0000
  H   H1262     1.0  0.69150  0.11657  0.87301  1.0000
  H   H1263     1.0  0.77190  0.14701  0.84619  1.0000
  H   H1264     1.0  0.79424  0.12976  0.86019  1.0000
  H   H1265     1.0  0.80661  0.14065  0.82650  1.0000
  H   H1266     1.0  0.70166  0.12733  0.76855  1.0000
  H   H1267     1.0  0.71448  0.10872  0.75715  1.0000
  H   H1268     1.0  0.74171  0.12234  0.75956  1.0000
  H   H1269     1.0  0.69511  0.15653  0.80031  1.0000
  H   H1270     1.0  0.72728  0.14728  0.78156  1.0000
  H   H1271     1.0  0.73174  0.15969  0.81351  1.0000
  C   C744      1.0  0.87248  0.22907  0.76961  1.0000
  H   H1272     1.0  0.95195  0.12825  0.88068  1.0000
  H   H1273     1.0  0.57259  0.08303  0.96665  1.0000
  C   C745      1.0  0.52606  0.04470  0.99719  1.0000
  C   C746      1.0  0.62313  0.01427  0.52711  1.0000
  H   H1274     1.0  0.62942  0.99084  0.94398  1.0000
  H   H1275     1.0  0.96342  0.08292  0.83989  1.0000
  H   H1276     1.0  0.61382  0.18851  0.98166  1.0000
  H   H1277     1.0  0.59886  0.06764  0.56655  1.0000
  H   H1278     1.0  0.56873  0.18330  0.93017  1.0000
  H   H1279     1.0  0.61874  0.99152  0.88708  1.0000
  H   H1280     1.0  0.01229  0.11312  0.67554  1.0000
  H   H1281     1.0  0.57946  0.20075  0.94307  1.0000
  C   C747      1.0  0.93392  0.12074  0.88787  1.0000
  H   H1282     1.0  0.82882  0.20305  0.78125  1.0000
  S   S210      1.0  0.51903  0.01818  0.52687  1.0000
  C   C748      1.0  0.53888  0.06049  0.99384  1.0000
  N   N54       1.0  0.94420  0.10648  0.83588  1.0000
  H   H1283     1.0  0.52067  0.17718  0.98723  1.0000
  H   H1284     1.0  0.99906  0.10263  0.87182  1.0000
  H   H1285     1.0  0.53224  0.20038  0.00378  1.0000
  H   H1286     1.0  0.94094  0.13600  0.79778  1.0000
  H   H1287     1.0  0.89986  0.08816  0.80984  1.0000
  Fe  Fe103     1.0  0.68325  0.03933  0.99448  1.0000
  Fe  Fe104     1.0  0.68499  0.07317  0.00396  1.0000
  H   H1288     1.0  0.55850  0.05921  0.97713  1.0000
  H   H1289     1.0  0.99705  0.08625  0.75378  1.0000
  S   S211      1.0  0.75340  0.20672  0.79515  1.0000
  C   C749      1.0  0.92132  0.13300  0.81308  1.0000
  S   S212      1.0  0.56249  0.01223  0.88993  1.0000
  C   C750      1.0  0.83608  0.20723  0.80384  1.0000
  H   H1290     1.0  0.54497  0.16546  0.96396  1.0000
  H   H1291     1.0  0.67709  0.99270  0.91502  1.0000
  C   C751      1.0  0.00696  0.10284  0.66350  1.0000
  H   H1292     1.0  0.62855  0.15873  0.97731  1.0000
  H   H1293     1.0  0.91246  0.10158  0.87389  1.0000
  H   H1294     1.0  0.90059  0.13825  0.80090  1.0000
  H   H1295     1.0  0.97440  0.12492  0.83647  1.0000
  H   H1296     1.0  0.56285  0.99515  0.55430  1.0000
  H   H1297     1.0  0.75699  0.14287  0.58354  1.0000
  C   C752      1.0  0.93554  0.10575  0.87056  1.0000
  H   H1298     1.0  0.60295  0.06881  0.60816  1.0000
  C   C753      1.0  0.75327  0.13880  0.60860  1.0000
  C   C754      1.0  0.94708  0.09037  0.82500  1.0000
  C   C755      1.0  0.91744  0.08214  0.82536  1.0000
  H   H1299     1.0  0.72391  0.12634  0.65815  1.0000
  H   H1300     1.0  0.97957  0.11362  0.80380  1.0000
  C   C756      1.0  0.61129  0.16648  0.96428  1.0000
  H   H1301     1.0  0.95646  0.09011  0.80041  1.0000
  S   S213      1.0  0.65112  0.02076  0.00247  1.0000
  H   H1302     1.0  0.59561  0.04755  0.00264  1.0000
  H   H1303     1.0  0.74525  0.12263  0.55520  1.0000
  C   C757      1.0  0.59861  0.17914  0.98603  1.0000
  H   H1304     1.0  0.72872  0.13662  0.60988  1.0000
  Fe  Fe105     1.0  0.72519  0.22728  0.77341  1.0000
  C   C758      1.0  0.82896  0.22456  0.80624  1.0000
  H   H1305     1.0  0.92253  0.07066  0.81602  1.0000
  H   H1306     1.0  0.89654  0.11348  0.82621  1.0000
  C   C759      1.0  0.55906  0.01660  0.52726  1.0000
  H   H1307     1.0  0.65380  0.98110  0.87795  1.0000
  C   C760      1.0  0.00235  0.10421  0.84585  1.0000
  H   H1308     1.0  0.60683  0.22375  0.87895  1.0000
  H   H1309     1.0  0.57978  0.01984  0.60178  1.0000
  H   H1310     1.0  0.00277  0.10554  0.63801  1.0000
  H   H1311     1.0  0.64181  0.20514  0.52396  1.0000
  C   C761      1.0  0.58376  0.08332  0.98991  1.0000
  H   H1312     1.0  0.53144  0.20398  0.91400  1.0000
  H   H1313     1.0  0.59374  0.09449  0.99006  1.0000
  H   H1314     1.0  0.57175  0.21757  0.98076  1.0000
  H   H1315     1.0  0.68538  0.98795  0.95543  1.0000
  H   H1316     1.0  0.59305  0.00800  0.00178  1.0000
  H   H1317     1.0  0.63256  0.21108  0.57374  1.0000
  H   H1318     1.0  0.83837  0.22717  0.82947  1.0000
  C   C762      1.0  0.67598  0.98348  0.93386  1.0000
  H   H1319     1.0  0.54927  0.21549  0.56699  1.0000
  C   C763      1.0  0.57435  0.21572  0.56862  1.0000
  H   H1320     1.0  0.57986  0.21414  0.59417  1.0000
  H   H1321     1.0  0.56842  0.07467  0.51327  1.0000
  H   H1322     1.0  0.62614  0.22594  0.60009  1.0000
  H   H1323     1.0  0.68141  0.22257  0.55399  1.0000
  C   C764      1.0  0.57512  0.02802  0.51187  1.0000
  C   C765      1.0  0.60715  0.02691  0.51196  1.0000
  H   H1324     1.0  0.52176  0.06844  0.98089  1.0000
  H   H1325     1.0  0.52262  0.04067  0.97314  1.0000
  C   C766      1.0  0.66992  0.22487  0.57696  1.0000
  C   C767      1.0  0.62874  0.22989  0.51818  1.0000
  H   H1326     1.0  0.61617  0.98127  0.83604  1.0000
  C   C768      1.0  0.62756  0.21337  0.50862  1.0000
  C   C769      1.0  0.51591  0.98307  0.74118  1.0000
  H   H1327     1.0  0.62294  0.25696  0.26406  1.0000
  S   S214      1.0  0.92555  0.33199  0.49570  1.0000
  H   H1328     1.0  0.84358  0.33033  0.07889  1.0000
  S   S215      1.0  0.56132  0.26936  0.26503  1.0000
  C   C770      1.0  0.56177  0.29335  0.17349  1.0000
  H   H1329     1.0  0.92128  0.28527  0.28918  1.0000
  H   H1330     1.0  0.90628  0.28939  0.32815  1.0000
  S   S216      1.0  0.97416  0.30816  0.46055  1.0000
  H   H1331     1.0  0.87709  0.33821  0.28176  1.0000
  C   C771      1.0  0.80618  0.36521  0.39370  1.0000
  Fe  Fe106     1.0  0.59251  0.46449  0.25714  1.0000
  S   S217      1.0  0.62479  0.46182  0.21548  1.0000
  S   S218      1.0  0.54684  0.45407  0.25754  1.0000
  H   H1332     1.0  0.82098  0.36363  0.37259  1.0000
  H   H1333     1.0  0.63663  0.26859  0.17124  1.0000
  H   H1334     1.0  0.83594  0.31848  0.24487  1.0000
  C   C772      1.0  0.84834  0.35244  0.05216  1.0000
  S   S219      1.0  0.92624  0.37036  0.01995  1.0000
  Fe  Fe107     1.0  0.66074  0.45571  0.25234  1.0000
  S   S220      1.0  0.69924  0.43763  0.24309  1.0000
  H   H1335     1.0  0.94016  0.29775  0.24547  1.0000
  S   S221      1.0  0.62790  0.45657  0.29382  1.0000
  Fe  Fe108     1.0  0.71855  0.31613  0.25218  1.0000
  S   S222      1.0  0.71581  0.32623  0.29976  1.0000
  S   S223      1.0  0.68888  0.29766  0.23683  1.0000
  Fe  Fe109     1.0  0.77318  0.33421  0.23088  1.0000
  S   S224      1.0  0.77299  0.34597  0.27692  1.0000
  S   S225      1.0  0.81075  0.34235  0.19765  1.0000
  Fe  Fe110     1.0  0.76704  0.32305  0.30023  1.0000
  S   S226      1.0  0.79098  0.31389  0.34555  1.0000
  Fe  Fe111     1.0  0.72214  0.34848  0.27277  1.0000
  S   S227      1.0  0.69136  0.36828  0.29020  1.0000
  S   S228      1.0  0.76991  0.31093  0.25459  1.0000
  S   S229      1.0  0.72217  0.33866  0.22476  1.0000
  Fe  Fe112     1.0  0.94173  0.32837  0.44563  1.0000
  S   S230      1.0  0.91584  0.33330  0.39900  1.0000
  Fe  Fe113     1.0  0.94333  0.31942  0.07944  1.0000
  S   S231      1.0  0.90810  0.30708  0.10906  1.0000
  H   H1336     1.0  0.78078  0.47196  0.16411  1.0000
  C   C773      1.0  0.83891  0.33135  0.17641  1.0000
  C   C774      1.0  0.83397  0.31702  0.16578  1.0000
  C   C775      1.0  0.85569  0.30954  0.14576  1.0000
  C   C776      1.0  0.88241  0.31631  0.13612  1.0000
  C   C777      1.0  0.88787  0.33032  0.14791  1.0000
  C   C778      1.0  0.86624  0.33778  0.16791  1.0000
  H   H1337     1.0  0.81298  0.31195  0.17203  1.0000
  H   H1338     1.0  0.85137  0.29863  0.13696  1.0000
  H   H1339     1.0  0.90868  0.33547  0.14141  1.0000
  H   H1340     1.0  0.87045  0.34875  0.17640  1.0000
  C   C779      1.0  0.82476  0.32001  0.36122  1.0000
  C   C780      1.0  0.83954  0.33203  0.34672  1.0000
  C   C781      1.0  0.86714  0.33606  0.35896  1.0000
  C   C782      1.0  0.87999  0.32834  0.38619  1.0000
  C   C783      1.0  0.86476  0.31660  0.40122  1.0000
  C   C784      1.0  0.83734  0.31243  0.38869  1.0000
  H   H1341     1.0  0.82994  0.33807  0.32587  1.0000
  H   H1342     1.0  0.87874  0.34519  0.34723  1.0000
  H   H1343     1.0  0.87444  0.31053  0.42211  1.0000
  H   H1344     1.0  0.82601  0.30315  0.40018  1.0000
  H   H1345     1.0  0.78499  0.48014  0.45788  1.0000
  S   S232      1.0  0.95544  0.34263  0.09082  1.0000
  C   C785      1.0  0.56975  0.26037  0.18097  1.0000
  S   S233      1.0  0.97795  0.34489  0.44769  1.0000
  H   H1346     1.0  0.86354  0.32908  0.04208  1.0000
  C   C786      1.0  0.69651  0.41836  0.25597  1.0000
  C   C787      1.0  0.71883  0.40718  0.24615  1.0000
  C   C788      1.0  0.71733  0.39174  0.25602  1.0000
  C   C789      1.0  0.69366  0.38741  0.27615  1.0000
  C   C790      1.0  0.67159  0.39860  0.28629  1.0000
  C   C791      1.0  0.67286  0.41399  0.27609  1.0000
  H   H1347     1.0  0.73718  0.41048  0.23058  1.0000
  H   H1348     1.0  0.73446  0.38322  0.24806  1.0000
  H   H1349     1.0  0.65323  0.39533  0.30188  1.0000
  H   H1350     1.0  0.65557  0.42249  0.28380  1.0000
  C   C792      1.0  0.82106  0.46513  0.48252  1.0000
  H   H1351     1.0  0.80051  0.35383  0.40335  1.0000
  H   H1352     1.0  0.61532  0.29854  0.13649  1.0000
  H   H1353     1.0  0.59086  0.26138  0.19416  1.0000
  C   C793      1.0  0.55126  0.32868  0.31641  1.0000
  H   H1354     1.0  0.82020  0.36989  0.41186  1.0000
  H   H1355     1.0  0.71647  0.34840  0.38470  1.0000
  H   H1356     1.0  0.53566  0.29339  0.40316  1.0000
  C   C794      1.0  0.80229  0.47068  0.45314  1.0000
  H   H1357     1.0  0.61879  0.47090  0.39742  1.0000
  C   C795      1.0  0.86234  0.29210  0.26685  1.0000
  H   H1358     1.0  0.55607  0.31488  0.19631  1.0000
  H   H1359     1.0  0.97184  0.38472  0.10318  1.0000
  C   C796      1.0  0.62946  0.28094  0.17201  1.0000
  C   C797      1.0  0.59606  0.27848  0.26002  1.0000
  C   C798      1.0  0.59745  0.29435  0.25515  1.0000
  C   C799      1.0  0.62595  0.30067  0.25040  1.0000
  C   C800      1.0  0.65327  0.29116  0.25014  1.0000
  C   C801      1.0  0.65159  0.27542  0.25524  1.0000
  C   C802      1.0  0.62346  0.26919  0.26048  1.0000
  H   H1360     1.0  0.57670  0.30176  0.25439  1.0000
  H   H1361     1.0  0.62670  0.31280  0.24544  1.0000
  H   H1362     1.0  0.67227  0.26788  0.25431  1.0000
  H   H1363     1.0  0.60118  0.45429  0.38831  1.0000
  H   H1364     1.0  0.83705  0.31874  0.28669  1.0000
  H   H1365     1.0  0.84790  0.29143  0.24560  1.0000
  H   H1366     1.0  0.93916  0.29768  0.31338  1.0000
  H   H1367     1.0  0.53135  0.29889  0.33668  1.0000
  H   H1368     1.0  0.61791  0.28316  0.19476  1.0000
  H   H1369     1.0  0.91440  0.28497  0.22944  1.0000
  H   H1370     1.0  0.54975  0.26449  0.19547  1.0000
  H   H1371     1.0  0.81786  0.47524  0.43466  1.0000
  H   H1372     1.0  0.54620  0.26744  0.13879  1.0000
  H   H1373     1.0  0.82782  0.35165  0.03753  1.0000
  H   H1374     1.0  0.83768  0.27681  0.29831  1.0000
  C   C803      1.0  0.54967  0.45635  0.34860  1.0000
  N   N55       1.0  0.75685  0.37271  0.36098  1.0000
  C   C804      1.0  0.72465  0.37907  0.36817  1.0000
  C   C805      1.0  0.75591  0.35583  0.35725  1.0000
  C   C806      1.0  0.76651  0.38009  0.32975  1.0000
  C   C807      1.0  0.77736  0.37622  0.38750  1.0000
  C   C808      1.0  0.71931  0.39659  0.36862  1.0000
  C   C809      1.0  0.74175  0.34688  0.38543  1.0000
  C   C810      1.0  0.79950  0.37604  0.31859  1.0000
  H   H1375     1.0  0.70842  0.37533  0.35084  1.0000
  H   H1376     1.0  0.71680  0.37457  0.39175  1.0000
  H   H1377     1.0  0.77888  0.35018  0.35262  1.0000
  H   H1378     1.0  0.74234  0.35381  0.33610  1.0000
  H   H1379     1.0  0.75109  0.37740  0.31056  1.0000
  H   H1380     1.0  0.76456  0.39271  0.33029  1.0000
  H   H1381     1.0  0.78508  0.38789  0.38348  1.0000
  H   H1382     1.0  0.71797  0.40190  0.34417  1.0000
  H   H1383     1.0  0.69688  0.39964  0.38007  1.0000
  H   H1384     1.0  0.73697  0.40164  0.38210  1.0000
  H   H1385     1.0  0.74946  0.35023  0.40866  1.0000
  H   H1386     1.0  0.74830  0.33451  0.38360  1.0000
  H   H1387     1.0  0.80204  0.38042  0.29361  1.0000
  H   H1388     1.0  0.80580  0.36365  0.31905  1.0000
  H   H1389     1.0  0.81585  0.38174  0.33264  1.0000
  N   N56       1.0  0.84180  0.36349  0.07796  1.0000
  H   H1390     1.0  0.53388  0.32164  0.30762  1.0000
  C   C811      1.0  0.82666  0.37808  0.06313  1.0000
  C   C812      1.0  0.82087  0.35726  0.10314  1.0000
  C   C813      1.0  0.87143  0.36611  0.09325  1.0000
  C   C814      1.0  0.86001  0.33605  0.06314  1.0000
  H   H1391     1.0  0.79165  0.46120  0.44264  1.0000
  C   C815      1.0  0.79003  0.35278  0.09149  1.0000
  C   C816      1.0  0.86951  0.37773  0.11944  1.0000
  H   H1392     1.0  0.53672  0.46351  0.13259  1.0000
  H   H1393     1.0  0.80752  0.37565  0.04781  1.0000
  H   H1394     1.0  0.81564  0.38544  0.08135  1.0000
  S   S234      1.0  0.67286  0.47992  0.25581  1.0000
  H   H1395     1.0  0.83216  0.34713  0.11618  1.0000
  H   H1396     1.0  0.81554  0.36567  0.12161  1.0000
  H   H1397     1.0  0.88183  0.35534  0.10469  1.0000
  H   H1398     1.0  0.88908  0.36925  0.07551  1.0000
  H   H1399     1.0  0.61499  0.23704  0.50026  1.0000
  H   H1400     1.0  0.58280  0.46770  0.41540  1.0000
  H   H1401     1.0  0.59024  0.45412  0.13388  1.0000
  Fe  Fe114     1.0  0.96381  0.34720  0.49854  1.0000
  H   H1402     1.0  0.55826  0.44829  0.36818  1.0000
  H   H1403     1.0  0.99810  0.32882  0.29475  1.0000
  H   H1404     1.0  0.77705  0.34820  0.11218  1.0000
  H   H1405     1.0  0.79282  0.34366  0.07440  1.0000
  H   H1406     1.0  0.77592  0.36275  0.08105  1.0000
  H   H1407     1.0  0.86443  0.37211  0.14287  1.0000
  H   H1408     1.0  0.85224  0.38740  0.11493  1.0000
  H   H1409     1.0  0.89163  0.38288  0.12057  1.0000
  N   N57       1.0  0.57422  0.30604  0.35261  1.0000
  C   C817      1.0  0.57980  0.31889  0.32858  1.0000
  C   C818      1.0  0.60507  0.29922  0.36363  1.0000
  C   C819      1.0  0.55680  0.31296  0.38011  1.0000
  C   C820      1.0  0.55591  0.29476  0.33722  1.0000
  C   C821      1.0  0.62668  0.29285  0.33748  1.0000
  C   C822      1.0  0.55074  0.30222  0.40905  1.0000
  C   C823      1.0  0.52790  0.47447  0.38623  1.0000
  H   H1410     1.0  0.59532  0.32682  0.33827  1.0000
  H   H1411     1.0  0.59155  0.31445  0.30707  1.0000
  H   H1412     1.0  0.60331  0.28986  0.38190  1.0000
  H   H1413     1.0  0.61721  0.30789  0.37558  1.0000
  H   H1414     1.0  0.56877  0.32255  0.38882  1.0000
  H   H1415     1.0  0.56290  0.29390  0.31195  1.0000
  H   H1416     1.0  0.63608  0.30211  0.32246  1.0000
  H   H1417     1.0  0.64650  0.28609  0.34860  1.0000
  H   H1418     1.0  0.61547  0.28520  0.32230  1.0000
  C   C824      1.0  0.55817  0.27818  0.35158  1.0000
  H   H1419     1.0  0.54095  0.33611  0.33477  1.0000
  H   H1420     1.0  0.55793  0.33635  0.29621  1.0000
  S   S235      1.0  0.00015  0.34135  0.02853  1.0000
  H   H1421     1.0  0.98605  0.37228  0.07365  1.0000
  C   C825      1.0  0.55108  0.46827  0.15032  1.0000
  C   C826      1.0  0.58126  0.47578  0.36489  1.0000
  H   H1422     1.0  0.73979  0.47350  0.20703  1.0000
  H   H1423     1.0  0.72778  0.46601  0.17150  1.0000
  H   H1424     1.0  0.56780  0.24802  0.17832  1.0000
  H   H1425     1.0  0.81946  0.29554  0.29411  1.0000
  C   C827      1.0  0.85152  0.31958  0.26497  1.0000
  H   H1426     1.0  0.76468  0.37644  0.41054  1.0000
  C   C828      1.0  0.56184  0.29272  0.11600  1.0000
  H   H1427     1.0  0.76034  0.46655  0.11460  1.0000
  Fe  Fe115     1.0  0.00393  0.33388  0.08013  1.0000
  H   H1428     1.0  0.65019  0.28732  0.17236  1.0000
  H   H1429     1.0  0.84067  0.34408  0.26550  1.0000
  H   H1430     1.0  0.58531  0.26181  0.13234  1.0000
  H   H1431     1.0  0.93072  0.29908  0.20463  1.0000
  H   H1432     1.0  0.85252  0.29179  0.31874  1.0000
  H   H1433     1.0  0.83501  0.47454  0.48824  1.0000
  C   C829      1.0  0.89450  0.30868  0.23459  1.0000
  C   C830      1.0  0.91665  0.29428  0.30613  1.0000
  Fe  Fe116     1.0  0.95128  0.34834  0.03870  1.0000
  C   C831      1.0  0.84205  0.28906  0.29632  1.0000
  H   H1434     1.0  0.80134  0.43824  0.48998  1.0000
  H   H1435     1.0  0.90457  0.31983  0.23225  1.0000
  S   S236      1.0  0.99225  0.31003  0.07094  1.0000
  C   C832      1.0  0.61008  0.28663  0.14311  1.0000
  H   H1436     1.0  0.88274  0.31251  0.31404  1.0000
  C   C833      1.0  0.56720  0.31036  0.17458  1.0000
  C   C834      1.0  0.92132  0.29676  0.22885  1.0000
  H   H1437     1.0  0.55722  0.29128  0.06513  1.0000
  S   S237      1.0  0.93485  0.32589  0.02772  1.0000
  H   H1438     1.0  0.87882  0.30854  0.21420  1.0000
  H   H1439     1.0  0.62003  0.28012  0.12308  1.0000
  H   H1440     1.0  0.87930  0.28216  0.26573  1.0000
  H   H1441     1.0  0.55044  0.46046  0.17199  1.0000
  H   H1442     1.0  0.87109  0.33911  0.23919  1.0000
  H   H1443     1.0  0.91267  0.31781  0.28818  1.0000
  C   C835      1.0  0.56814  0.28427  0.08514  1.0000
  H   H1444     1.0  0.56504  0.27666  0.37659  1.0000
  C   C836      1.0  0.86124  0.33605  0.26274  1.0000
  H   H1445     1.0  0.53547  0.27363  0.35027  1.0000
  H   H1446     1.0  0.57356  0.27069  0.33692  1.0000
  H   H1447     1.0  0.56577  0.45437  0.32827  1.0000
  N   N58       1.0  0.87702  0.30699  0.26546  1.0000
  C   C837      1.0  0.89704  0.30867  0.29351  1.0000
  H   H1448     1.0  0.56934  0.30438  0.11122  1.0000
  H   H1449     1.0  0.59179  0.31210  0.17604  1.0000
  H   H1450     1.0  0.55781  0.27319  0.08579  1.0000
  Fe  Fe117     1.0  0.00918  0.32507  0.46534  1.0000
  C   C838      1.0  0.59635  0.46648  0.39322  1.0000
  C   C839      1.0  0.58363  0.46645  0.13637  1.0000
  H   H1451     1.0  0.53387  0.31798  0.37260  1.0000
  H   H1452     1.0  0.53262  0.46502  0.40450  1.0000
  H   H1453     1.0  0.57193  0.29702  0.42027  1.0000
  Fe  Fe118     1.0  0.98423  0.31831  0.01954  1.0000
  C   C840      1.0  0.73481  0.47651  0.18166  1.0000
  H   H1454     1.0  0.85825  0.38150  0.02251  1.0000
  C   C841      1.0  0.75520  0.44893  0.49003  1.0000
  C   C842      1.0  0.56939  0.26866  0.14784  1.0000
  H   H1455     1.0  0.56946  0.28797  0.19655  1.0000
  H   H1456     1.0  0.88237  0.33569  0.07486  1.0000
  H   H1457     1.0  0.83741  0.45585  0.47418  1.0000
  H   H1458     1.0  0.53665  0.29433  0.11878  1.0000
  N   N59       1.0  0.57621  0.28522  0.14577  1.0000
  H   H1459     1.0  0.53816  0.30895  0.42733  1.0000
  H   H1460     1.0  0.59277  0.28255  0.07935  1.0000
  H   H1461     1.0  0.67816  0.47142  0.36351  1.0000
  H   H1462     1.0  0.60075  0.47058  0.15188  1.0000
  H   H1463     1.0  0.53665  0.29250  0.17391  1.0000
  H   H1464     1.0  0.55669  0.31725  0.15429  1.0000
  H   H1465     1.0  0.75190  0.43968  0.47393  1.0000
  H   H1466     1.0  0.59605  0.47372  0.34369  1.0000
  H   H1467     1.0  0.83356  0.39784  0.03147  1.0000
  H   H1468     1.0  0.75120  0.45972  0.47566  1.0000
  H   H1469     1.0  0.87661  0.47492  0.01577  1.0000
  H   H1470     1.0  0.97812  0.39245  0.06399  1.0000
  N   N60       1.0  0.54894  0.47268  0.35791  1.0000
  H   H1471     1.0  0.72289  0.47526  0.12042  1.0000
  C   C843      1.0  0.74627  0.47766  0.11215  1.0000
  H   H1472     1.0  0.58494  0.47203  0.11229  1.0000
  H   H1473     1.0  0.00060  0.37445  0.46265  1.0000
  H   H1474     1.0  0.86594  0.35657  0.03531  1.0000
  H   H1475     1.0  0.76506  0.47696  0.50537  1.0000
  C   C844      1.0  0.84749  0.38786  0.04225  1.0000
  H   H1476     1.0  0.70957  0.46939  0.41222  1.0000
  C   C845      1.0  0.98730  0.38390  0.08218  1.0000
  H   H1477     1.0  0.86544  0.39243  0.05622  1.0000
  H   H1478     1.0  0.72885  0.47398  0.06540  1.0000
  H   H1479     1.0  0.52293  0.43934  0.32970  1.0000
  C   C846      1.0  0.78708  0.44600  0.50523  1.0000
  H   H1480     1.0  0.00557  0.40209  0.02168  1.0000
  H   H1481     1.0  0.99958  0.41608  0.05111  1.0000
  C   C847      1.0  0.51879  0.45082  0.33931  1.0000
  H   H1482     1.0  0.54631  0.47805  0.30734  1.0000
  C   C848      1.0  0.69741  0.48015  0.40503  1.0000
  H   H1483     1.0  0.73692  0.44825  0.50837  1.0000
  Fe  Fe119     1.0  0.96869  0.46243  0.57191  1.0000
  C   C849      1.0  0.94964  0.41111  0.68943  1.0000
  C   C850      1.0  0.92228  0.36481  0.92167  1.0000
  H   H1484     1.0  0.93376  0.40252  0.68380  1.0000
  S   S238      1.0  0.96430  0.44138  0.60321  1.0000
  H   H1485     1.0  0.88002  0.36812  0.89349  1.0000
  S   S239      1.0  0.96369  0.44253  0.87976  1.0000
  Fe  Fe120     1.0  0.94061  0.46221  0.90534  1.0000
  H   H1486     1.0  0.92634  0.35227  0.86940  1.0000
  H   H1487     1.0  0.92651  0.33241  0.65676  1.0000
  C   C851      1.0  0.93677  0.32828  0.87618  1.0000
  H   H1488     1.0  0.95413  0.42431  0.73210  1.0000
  Fe  Fe121     1.0  0.68113  0.25490  0.78672  1.0000
  S   S240      1.0  0.68528  0.26491  0.73652  1.0000
  S   S241      1.0  0.64829  0.26762  0.82045  1.0000
  Fe  Fe122     1.0  0.68038  0.24099  0.72270  1.0000
  H   H1489     1.0  0.96393  0.33039  0.92912  1.0000
  Fe  Fe123     1.0  0.73601  0.25824  0.74100  1.0000
  S   S242      1.0  0.77706  0.26961  0.71838  1.0000
  C   C852      1.0  0.98419  0.35066  0.91272  1.0000
  S   S243      1.0  0.73206  0.25016  0.79217  1.0000
  S   S244      1.0  0.54662  0.26892  0.60101  1.0000
  H   H1490     1.0  0.01540  0.38296  0.95574  1.0000
  H   H1491     1.0  0.94528  0.40235  0.52648  1.0000
  S   S245      1.0  0.95300  0.45331  0.68912  1.0000
  H   H1492     1.0  0.95969  0.45559  0.80444  1.0000
  Fe  Fe124     1.0  0.93252  0.29996  0.76164  1.0000
  S   S246      1.0  0.93245  0.27487  0.77025  1.0000
  S   S247      1.0  0.88304  0.31004  0.75906  1.0000
  Fe  Fe125     1.0  0.96904  0.27403  0.73217  1.0000
  S   S248      1.0  0.96567  0.26192  0.68623  1.0000
  Fe  Fe126     1.0  0.96866  0.27742  0.80638  1.0000
  S   S249      1.0  0.96617  0.26975  0.85906  1.0000
  S   S250      1.0  0.96892  0.29911  0.72340  1.0000
  S   S251      1.0  0.96786  0.30267  0.79878  1.0000
  C   C853      1.0  0.98885  0.30009  0.94037  1.0000
  H   H1493     1.0  0.90909  0.47431  0.59441  1.0000
  C   C854      1.0  0.97361  0.28201  0.88989  1.0000
  H   H1494     1.0  0.87306  0.23927  0.72054  1.0000
  H   H1495     1.0  0.95308  0.26818  0.92664  1.0000
  S   S252      1.0  0.94785  0.29385  0.54674  1.0000
  H   H1496     1.0  0.56559  0.23138  0.74910  1.0000
  C   C855      1.0  0.95642  0.28540  0.58537  1.0000
  C   C856      1.0  0.96312  0.27143  0.64770  1.0000
  C   C857      1.0  0.94915  0.26420  0.62381  1.0000
  C   C858      1.0  0.94547  0.27118  0.59326  1.0000
  H   H1497     1.0  0.94050  0.25320  0.62911  1.0000
  H   H1498     1.0  0.93385  0.26548  0.57555  1.0000
  C   C859      1.0  0.80668  0.27980  0.73341  1.0000
  C   C860      1.0  0.80097  0.29132  0.75482  1.0000
  C   C861      1.0  0.82453  0.30034  0.76298  1.0000
  C   C862      1.0  0.85438  0.29759  0.75088  1.0000
  C   C863      1.0  0.86030  0.28564  0.73052  1.0000
  C   C864      1.0  0.83649  0.27716  0.72115  1.0000
  H   H1499     1.0  0.77810  0.29373  0.76405  1.0000
  H   H1500     1.0  0.81951  0.30958  0.77856  1.0000
  H   H1501     1.0  0.88302  0.28335  0.72080  1.0000
  H   H1502     1.0  0.84122  0.26854  0.70408  1.0000
  C   C865      1.0  0.62375  0.25860  0.84806  1.0000
  C   C866      1.0  0.62528  0.24275  0.85312  1.0000
  C   C867      1.0  0.54052  0.25705  0.77913  1.0000
  C   C868      1.0  0.58298  0.24497  0.89160  1.0000
  C   C869      1.0  0.58128  0.26082  0.88638  1.0000
  C   C870      1.0  0.60173  0.26759  0.86489  1.0000
  C   C871      1.0  0.96503  0.27828  0.92147  1.0000
  C   C872      1.0  0.84315  0.25034  0.79287  1.0000
  H   H1503     1.0  0.97355  0.38569  0.61539  1.0000
  C   C873      1.0  0.78270  0.47292  0.52286  1.0000
  C   C874      1.0  0.61843  0.24302  0.66604  1.0000
  C   C875      1.0  0.61806  0.25880  0.66043  1.0000
  C   C876      1.0  0.59544  0.26661  0.64107  1.0000
  C   C877      1.0  0.57285  0.25877  0.62741  1.0000
  C   C878      1.0  0.57249  0.24308  0.63416  1.0000
  H   H1504     1.0  0.59273  0.29053  0.73276  1.0000
  H   H1505     1.0  0.63574  0.26492  0.67017  1.0000
  H   H1506     1.0  0.59582  0.27877  0.63610  1.0000
  H   H1507     1.0  0.89559  0.34084  0.61506  1.0000
  N   N61       1.0  0.80366  0.45983  0.51158  1.0000
  H   H1508     1.0  0.64684  0.25186  0.55262  1.0000
  H   H1509     1.0  0.88062  0.34476  0.93793  1.0000
  H   H1510     1.0  0.98069  0.35142  0.88678  1.0000
  H   H1511     1.0  0.97801  0.41906  0.55330  1.0000
  H   H1512     1.0  0.81526  0.45051  0.55897  1.0000
  C   C879      1.0  0.97201  0.45623  0.78210  1.0000
  C   C880      1.0  0.81378  0.25785  0.80786  1.0000
  H   H1513     1.0  0.90412  0.46518  0.96841  1.0000
  C   C881      1.0  0.95545  0.40805  0.97325  1.0000
  H   H1514     1.0  0.86570  0.44004  0.55146  1.0000
  C   C882      1.0  0.59426  0.25057  0.75952  1.0000
  C   C883      1.0  0.98646  0.40099  0.65062  1.0000
  H   H1515     1.0  0.85019  0.25868  0.77414  1.0000
  H   H1516     1.0  0.52078  0.26583  0.77731  1.0000
  H   H1517     1.0  0.60910  0.29377  0.76989  1.0000
  H   H1518     1.0  0.96144  0.32933  0.87195  1.0000
  C   C884      1.0  0.87079  0.47545  0.93547  1.0000
  C   C885      1.0  0.99694  0.30392  0.90878  1.0000
  H   H1519     1.0  0.56451  0.26786  0.89922  1.0000
  Fe  Fe127     1.0  0.99945  0.47238  0.92949  1.0000
  H   H1520     1.0  0.54015  0.27693  0.72598  1.0000
  C   C886      1.0  0.62258  0.24959  0.55676  1.0000
  H   H1521     1.0  0.60794  0.25133  0.78123  1.0000
  C   C887      1.0  0.88978  0.37217  0.91520  1.0000
  C   C888      1.0  0.95684  0.45475  0.75355  1.0000
  H   H1522     1.0  0.96454  0.37918  0.65485  1.0000
  H   H1523     1.0  0.93282  0.45296  0.75406  1.0000
  C   C889      1.0  0.97461  0.28564  0.63997  1.0000
  S   S253      1.0  0.96574  0.45690  0.95097  1.0000
  C   C890      1.0  0.97474  0.38190  0.53580  1.0000
  C   C891      1.0  0.00180  0.37572  0.55004  1.0000
  H   H1524     1.0  0.81886  0.26895  0.81693  1.0000
  N   N62       1.0  0.92662  0.34767  0.92056  1.0000
  H   H1525     1.0  0.82420  0.24625  0.73583  1.0000
  H   H1526     1.0  0.89143  0.25003  0.74904  1.0000
  H   H1527     1.0  0.98978  0.38436  0.75635  1.0000
  H   H1528     1.0  0.57220  0.23977  0.57002  1.0000
  H   H1529     1.0  0.98626  0.29121  0.65777  1.0000
  H   H1530     1.0  0.98602  0.36228  0.92098  1.0000
  S   S254      1.0  0.55868  0.23571  0.91906  1.0000
  C   C892      1.0  0.90460  0.34109  0.94430  1.0000
  H   H1531     1.0  0.86128  0.27661  0.61028  1.0000
  H   H1532     1.0  0.93401  0.31830  0.89262  1.0000
  C   C893      1.0  0.54675  0.25363  0.81467  1.0000
  H   H1533     1.0  0.87556  0.28804  0.66048  1.0000
  H   H1534     1.0  0.90802  0.34547  0.96817  1.0000
  H   H1535     1.0  0.92155  0.32789  0.69802  1.0000
  H   H1536     1.0  0.85979  0.29490  0.58960  1.0000
  C   C894      1.0  0.98915  0.29509  0.88376  1.0000
  H   H1537     1.0  0.98063  0.30337  0.60305  1.0000
  C   C895      1.0  0.89407  0.47994  0.57662  1.0000
  H   H1538     1.0  0.93736  0.37041  0.90399  1.0000
  H   H1539     1.0  0.94408  0.42119  0.67276  1.0000
  H   H1540     1.0  0.89642  0.31863  0.92742  1.0000
  H   H1541     1.0  0.83656  0.46577  0.54559  1.0000
  Fe  Fe128     1.0  0.00447  0.29724  0.76185  1.0000
  Fe  Fe129     1.0  0.99792  0.45895  0.86405  1.0000
  H   H1542     1.0  0.87433  0.37026  0.93581  1.0000
  H   H1543     1.0  0.87048  0.44944  0.51371  1.0000
  C   C896      1.0  0.60517  0.23601  0.87495  1.0000
  S   S255      1.0  0.00883  0.41490  0.94217  1.0000
  H   H1544     1.0  0.94767  0.41999  0.96971  1.0000
  H   H1545     1.0  0.87108  0.33377  0.58611  1.0000
  C   C897      1.0  0.58373  0.23122  0.55448  1.0000
  H   H1546     1.0  0.88968  0.33646  0.67640  1.0000
  C   C898      1.0  0.99367  0.38720  0.96555  1.0000
  H   H1547     1.0  0.91632  0.42127  0.72207  1.0000
  H   H1548     1.0  0.00061  0.42181  0.71407  1.0000
  H   H1549     1.0  0.80828  0.31730  0.66471  1.0000
  C   C899      1.0  0.93998  0.41578  0.72294  1.0000
  N   N63       1.0  0.56707  0.26225  0.75950  1.0000
  H   H1550     1.0  0.83861  0.32039  0.69154  1.0000
  H   H1551     1.0  0.83467  0.30204  0.67608  1.0000
  H   H1552     1.0  0.65254  0.23303  0.51445  1.0000
  H   H1553     1.0  0.60044  0.27986  0.86126  1.0000
  H   H1554     1.0  0.91069  0.33500  0.57771  1.0000
  H   H1555     1.0  0.61004  0.25306  0.73933  1.0000
  C   C900      1.0  0.57653  0.27650  0.77360  1.0000
  C   C901      1.0  0.96513  0.38951  0.63881  1.0000
  H   H1556     1.0  0.57211  0.23345  0.53127  1.0000
  H   H1557     1.0  0.96609  0.28409  0.97068  1.0000
  C   C902      1.0  0.98466  0.40700  0.55272  1.0000
  C   C903      1.0  0.97255  0.45565  0.72440  1.0000
  H   H1558     1.0  0.62183  0.27699  0.75033  1.0000
  H   H1559     1.0  0.85438  0.33140  0.64274  1.0000
  H   H1560     1.0  0.55654  0.28498  0.77638  1.0000
  C   C904      1.0  0.54178  0.25453  0.70834  1.0000
  H   H1561     1.0  0.53183  0.24667  0.77039  1.0000
  H   H1562     1.0  0.88971  0.30779  0.68994  1.0000
  S   S256      1.0  0.97812  0.47695  0.61181  1.0000
  H   H1563     1.0  0.98347  0.41141  0.63448  1.0000
  H   H1564     1.0  0.89539  0.34240  0.88431  1.0000
  N   N64       1.0  0.84076  0.23485  0.77984  1.0000
  C   C905      1.0  0.00357  0.45802  0.72395  1.0000
  H   H1565     1.0  0.55817  0.24467  0.70386  1.0000
  H   H1566     1.0  0.86120  0.24975  0.81120  1.0000
  C   C906      1.0  0.60143  0.28477  0.75518  1.0000
  H   H1567     1.0  0.54738  0.26430  0.82731  1.0000
  H   H1568     1.0  0.89064  0.38472  0.91174  1.0000
  H   H1569     1.0  0.79556  0.26046  0.79019  1.0000
  H   H1570     1.0  0.55475  0.23698  0.62457  1.0000
  H   H1571     1.0  0.92371  0.30475  0.66770  1.0000
  Fe  Fe130     1.0  0.99151  0.43855  0.92394  1.0000
  C   C907      1.0  0.98377  0.40265  0.96090  1.0000
  C   C908      1.0  0.88698  0.23846  0.74226  1.0000
  H   H1572     1.0  0.99583  0.42776  0.67430  1.0000
  C   C909      1.0  0.82652  0.45551  0.53753  1.0000
  C   C910      1.0  0.85349  0.44400  0.52933  1.0000
  H   H1573     1.0  0.92723  0.32563  0.85312  1.0000
  S   S257      1.0  0.64807  0.23236  0.68726  1.0000
  C   C911      1.0  0.94818  0.38269  0.99670  1.0000
  S   S258      1.0  0.99816  0.32868  0.51713  1.0000
  C   C912      1.0  0.92026  0.34326  0.88736  1.0000
  H   H1574     1.0  0.79544  0.24028  0.76121  1.0000
  S   S259      1.0  0.73119  0.23497  0.72259  1.0000
  C   C913      1.0  0.96619  0.39752  0.53742  1.0000
  H   H1575     1.0  0.98375  0.36540  0.98631  1.0000
  H   H1576     1.0  0.93966  0.40572  0.73980  1.0000
  C   C914      1.0  0.93765  0.39805  0.99112  1.0000
  C   C915      1.0  0.58780  0.23360  0.75873  1.0000
  C   C916      1.0  0.59537  0.23524  0.65309  1.0000
  C   C917      1.0  0.90579  0.32358  0.94835  1.0000
  H   H1577     1.0  0.92894  0.36846  0.94517  1.0000
  C   C918      1.0  0.95868  0.34276  0.93097  1.0000
  H   H1578     1.0  0.83935  0.31829  0.61938  1.0000
  H   H1579     1.0  0.92883  0.31816  0.95386  1.0000
  H   H1580     1.0  0.89089  0.32044  0.96874  1.0000
  H   H1581     1.0  0.58554  0.27393  0.79787  1.0000
  H   H1582     1.0  0.80518  0.25092  0.82823  1.0000
  Fe  Fe131     1.0  0.97862  0.45534  0.64246  1.0000
  H   H1583     1.0  0.96139  0.34469  0.95660  1.0000
  H   H1584     1.0  0.89908  0.30862  0.58962  1.0000
  H   H1585     1.0  0.53468  0.25959  0.68468  1.0000
  H   H1586     1.0  0.52795  0.24745  0.82576  1.0000
  C   C919      1.0  0.55675  0.26665  0.72615  1.0000
  H   H1587     1.0  0.83396  0.29136  0.62243  1.0000
  C   C920      1.0  0.97166  0.29250  0.60878  1.0000
  S   S260      1.0  0.89032  0.46917  0.90133  1.0000
  H   H1588     1.0  0.90357  0.28786  0.63063  1.0000
  H   H1589     1.0  0.64216  0.23570  0.84050  1.0000
  N   N65       1.0  0.88368  0.31051  0.63905  1.0000
  C   C921      1.0  0.90154  0.31584  0.61005  1.0000
  C   C922      1.0  0.88105  0.29362  0.63705  1.0000
  C   C923      1.0  0.90183  0.31211  0.66845  1.0000
  C   C924      1.0  0.85260  0.31899  0.64135  1.0000
  C   C925      1.0  0.89402  0.33237  0.59691  1.0000
  C   C926      1.0  0.85761  0.28907  0.61332  1.0000
  C   C927      1.0  0.91007  0.32827  0.67474  1.0000
  C   C928      1.0  0.83273  0.31443  0.67023  1.0000
  H   H1590     1.0  0.92644  0.31447  0.61452  1.0000
  N   N66       1.0  0.98240  0.40503  0.68484  1.0000
  S   S261      1.0  0.51713  0.25744  0.51855  1.0000
  H   H1591     1.0  0.61743  0.25209  0.58193  1.0000
  C   C929      1.0  0.97227  0.28734  0.94653  1.0000
  H   H1592     1.0  0.57628  0.26988  0.71087  1.0000
  H   H1593     1.0  0.00823  0.36363  0.54944  1.0000
  H   H1594     1.0  0.56822  0.24637  0.81875  1.0000
  C   C930      1.0  0.88288  0.47211  0.96567  1.0000
  H   H1595     1.0  0.60818  0.27326  0.54394  1.0000
  C   C931      1.0  0.76596  0.46984  0.55462  1.0000
  S   S262      1.0  0.00264  0.31086  0.97094  1.0000
  H   H1596     1.0  0.97058  0.38357  0.70703  1.0000
  H   H1597     1.0  0.99166  0.40429  0.74975  1.0000
  C   C932      1.0  0.00285  0.41756  0.68993  1.0000
  S   S263      1.0  0.95053  0.37067  0.51613  1.0000
  H   H1598     1.0  0.94172  0.39491  0.63485  1.0000
  C   C933      1.0  0.90226  0.47958  0.54453  1.0000
  H   H1599     1.0  0.78337  0.43927  0.52784  1.0000
  S   S264      1.0  0.67410  0.23134  0.77260  1.0000
  C   C934      1.0  0.99946  0.39318  0.74031  1.0000
  H   H1600     1.0  0.99613  0.29811  0.85981  1.0000
  H   H1601     1.0  0.90953  0.23270  0.73596  1.0000
  C   C935      1.0  0.01173  0.40090  0.56684  1.0000
  C   C936      1.0  0.99008  0.39086  0.70583  1.0000
  H   H1602     1.0  0.84597  0.43381  0.51845  1.0000
  C   C937      1.0  0.60398  0.26183  0.53592  1.0000
  N   N67       1.0  0.61758  0.23321  0.55121  1.0000
  S   S265      1.0  0.97254  0.47900  0.88567  1.0000
  C   C938      1.0  0.97590  0.37726  0.98324  1.0000
  S   S266      1.0  0.93707  0.47059  0.53223  1.0000
  H   H1603     1.0  0.67515  0.23614  0.58496  1.0000
  H   H1604     1.0  0.78160  0.47007  0.57489  1.0000
  H   H1605     1.0  0.52082  0.25084  0.72022  1.0000
  H   H1606     1.0  0.75520  0.45891  0.55558  1.0000
  H   H1607     1.0  0.00954  0.31378  0.90359  1.0000
  H   H1608     1.0  0.00641  0.34407  0.91756  1.0000
  H   H1609     1.0  0.57911  0.26096  0.53823  1.0000
  Fe  Fe132     1.0  0.96090  0.31309  0.51137  1.0000
  C   C939      1.0  0.81884  0.23671  0.75265  1.0000
  C   C940      1.0  0.86714  0.47754  0.99250  1.0000
  S   S267      1.0  0.00537  0.27197  0.76961  1.0000
  H   H1610     1.0  0.01007  0.39597  0.64596  1.0000
  H   H1611     1.0  0.91598  0.40232  0.00105  1.0000
  H   H1612     1.0  0.00947  0.38381  0.69525  1.0000
  C   C941      1.0  0.00302  0.45862  0.78161  1.0000
  H   H1613     1.0  0.74762  0.47910  0.55782  1.0000
  H   H1614     1.0  0.61099  0.26161  0.51064  1.0000
  Fe  Fe133     1.0  0.01439  0.43661  0.59388  1.0000
  Fe  Fe134     1.0  0.94015  0.57892  0.10400  1.0000
  S   S268      1.0  0.95143  0.59662  0.06643  1.0000
  S   S269      1.0  0.91481  0.55846  0.09373  1.0000
  C   C942      1.0  0.83194  0.57737  0.06414  1.0000
  Fe  Fe135     1.0  0.94974  0.61264  0.10605  1.0000
  S   S270      1.0  0.92988  0.63715  0.10153  1.0000
  S   S271      1.0  0.93366  0.59549  0.14295  1.0000
  C   C943      1.0  0.66189  0.49375  0.09790  1.0000
  Fe  Fe136     1.0  0.96947  0.60128  0.37611  1.0000
  S   S272      1.0  0.94600  0.60627  0.32881  1.0000
  Fe  Fe137     1.0  0.95109  0.59362  0.44485  1.0000
  H   H1615     1.0  0.52265  0.48617  0.25628  1.0000
  S   S273      1.0  0.91260  0.58914  0.47955  1.0000
  H   H1616     1.0  0.82128  0.54012  0.05480  1.0000
  H   H1617     1.0  0.81147  0.50141  0.15919  1.0000
  S   S274      1.0  0.95150  0.61570  0.41576  1.0000
  S   S275      1.0  0.96517  0.57921  0.40425  1.0000
  C   C944      1.0  0.91904  0.71115  0.46911  1.0000
  Fe  Fe138     1.0  0.73679  0.51113  0.48294  1.0000
  Fe  Fe139     1.0  0.71781  0.52146  0.02247  1.0000
  Fe  Fe140     1.0  0.78052  0.53651  0.47645  1.0000
  S   S276      1.0  0.81336  0.54599  0.44037  1.0000
  S   S277      1.0  0.78766  0.51119  0.48415  1.0000
  S   S278      1.0  0.72971  0.53637  0.47124  1.0000
  S   S279      1.0  0.75974  0.52359  0.05074  1.0000
  H   H1618     1.0  0.92288  0.60677  0.26580  1.0000
  S   S280      1.0  0.72081  0.49079  0.45874  1.0000
  S   S281      1.0  0.67838  0.50859  0.04219  1.0000
  C   C945      1.0  0.65801  0.51993  0.13239  1.0000
  C   C946      1.0  0.66799  0.52066  0.10061  1.0000
  C   C947      1.0  0.66946  0.50763  0.08308  1.0000
  H   H1619     1.0  0.65595  0.53019  0.14548  1.0000
  H   H1620     1.0  0.67344  0.53143  0.08932  1.0000
  H   H1621     1.0  0.68481  0.51654  0.42793  1.0000
  C   C948      1.0  0.88548  0.57679  0.46915  1.0000
  H   H1622     1.0  0.58144  0.48934  0.17895  1.0000
  C   C949      1.0  0.83616  0.56655  0.47874  1.0000
  C   C950      1.0  0.84134  0.55728  0.45307  1.0000
  C   C951      1.0  0.86887  0.55752  0.43598  1.0000
  C   C952      1.0  0.89090  0.56723  0.44400  1.0000
  H   H1623     1.0  0.58926  0.49645  0.13052  1.0000
  H   H1624     1.0  0.87310  0.55019  0.41640  1.0000
  H   H1625     1.0  0.91208  0.56724  0.43082  1.0000
  H   H1626     1.0  0.92977  0.53824  0.50414  1.0000
  H   H1627     1.0  0.90462  0.51482  0.05631  1.0000
  H   H1628     1.0  0.57227  0.50187  0.09353  1.0000
  C   C953      1.0  0.00202  0.67141  0.50089  1.0000
  H   H1629     1.0  0.91310  0.57881  0.31284  1.0000
  H   H1630     1.0  0.98762  0.54176  0.05382  1.0000
  H   H1631     1.0  0.65260  0.51842  0.38002  1.0000
  H   H1632     1.0  0.55592  0.48126  0.20570  1.0000
  H   H1633     1.0  0.96277  0.63657  0.47333  1.0000
  C   C954      1.0  0.87718  0.56117  0.07964  1.0000
  C   C955      1.0  0.86200  0.57570  0.07545  1.0000
  C   C956      1.0  0.81716  0.56456  0.05654  1.0000
  C   C957      1.0  0.83254  0.55006  0.06041  1.0000
  C   C958      1.0  0.86231  0.54839  0.07225  1.0000
  H   H1634     1.0  0.97752  0.62048  0.17926  1.0000
  H   H1635     1.0  0.87379  0.53714  0.07596  1.0000
  C   C959      1.0  0.95295  0.64931  0.07934  1.0000
  C   C960      1.0  0.94510  0.66508  0.07737  1.0000
  H   H1636     1.0  0.83544  0.60218  0.29145  1.0000
  H   H1637     1.0  0.95059  0.66536  0.19121  1.0000
  H   H1638     1.0  0.92482  0.66969  0.08947  1.0000
  C   C961      1.0  0.92282  0.54424  0.01204  1.0000
  H   H1639     1.0  0.89227  0.72847  0.03820  1.0000
  C   C962      1.0  0.95911  0.59703  0.23635  1.0000
  C   C963      1.0  0.94610  0.60172  0.26522  1.0000
  C   C964      1.0  0.96302  0.59994  0.29325  1.0000
  H   H1640     1.0  0.94589  0.59838  0.21492  1.0000
  C   C965      1.0  0.97933  0.64342  0.06393  1.0000
  C   C966      1.0  0.99304  0.59342  0.29226  1.0000
  H   H1641     1.0  0.85399  0.58362  0.50635  1.0000
  C   C967      1.0  0.66328  0.49506  0.36835  1.0000
  S   S282      1.0  0.59936  0.48910  0.26101  1.0000
  H   H1642     1.0  0.71317  0.49981  0.13262  1.0000
  H   H1643     1.0  0.99366  0.70218  0.38885  1.0000
  H   H1644     1.0  0.87154  0.52287  0.49042  1.0000
  C   C968      1.0  0.99788  0.65324  0.04682  1.0000
  H   H1645     1.0  0.82919  0.50548  0.12186  1.0000
  H   H1646     1.0  0.82011  0.58860  0.06126  1.0000
  H   H1647     1.0  0.96440  0.70028  0.47566  1.0000
  H   H1648     1.0  0.53126  0.48904  0.10775  1.0000
  H   H1649     1.0  0.98965  0.63866  0.13563  1.0000
  H   H1650     1.0  0.73853  0.51024  0.10914  1.0000
  C   C969      1.0  0.99014  0.64817  0.15176  1.0000
  Fe  Fe141     1.0  0.76348  0.54569  0.02273  1.0000
  H   H1651     1.0  0.01353  0.70004  0.45913  1.0000
  H   H1652     1.0  0.73398  0.52613  0.14955  1.0000
  H   H1653     1.0  0.98548  0.63128  0.06502  1.0000
  H   H1654     1.0  0.76010  0.51353  0.17178  1.0000
  H   H1655     1.0  0.96722  0.65426  0.14940  1.0000
  C   C970      1.0  0.65314  0.49289  0.13014  1.0000
  C   C971      1.0  0.54671  0.50547  0.19591  1.0000
  H   H1656     1.0  0.99291  0.64937  0.23329  1.0000
  H   H1657     1.0  0.98121  0.67780  0.19166  1.0000
  H   H1658     1.0  0.00624  0.59198  0.31372  1.0000
  H   H1659     1.0  0.00302  0.66520  0.11581  1.0000
  H   H1660     1.0  0.79475  0.51626  0.13137  1.0000
  H   H1661     1.0  0.90395  0.52531  0.46575  1.0000
  C   C972      1.0  0.76371  0.48201  0.16487  1.0000
  H   H1662     1.0  0.91561  0.55601  0.01889  1.0000
  H   H1663     1.0  0.97891  0.62559  0.21926  1.0000
  S   S283      1.0  0.82212  0.49477  0.02255  1.0000
  C   C973      1.0  0.53842  0.49490  0.12874  1.0000
  H   H1664     1.0  0.56693  0.51436  0.12493  1.0000
  C   C974      1.0  0.98998  0.66899  0.04456  1.0000
  Fe  Fe142     1.0  0.63737  0.48130  0.29453  1.0000
  C   C975      1.0  0.98956  0.70560  0.41369  1.0000
  H   H1665     1.0  0.93708  0.51303  0.01371  1.0000
  H   H1666     1.0  0.99230  0.71800  0.41313  1.0000
  S   S284      1.0  0.99867  0.59453  0.46263  1.0000
  S   S285      1.0  0.99922  0.60811  0.11766  1.0000
  H   H1667     1.0  0.92772  0.66660  0.43433  1.0000
  S   S286      1.0  0.63614  0.50615  0.18652  1.0000
  H   H1668     1.0  0.97321  0.67936  0.44185  1.0000
  H   H1669     1.0  0.54338  0.51414  0.17610  1.0000
  S   S287      1.0  0.00754  0.58614  0.19904  1.0000
  H   H1670     1.0  0.92088  0.68107  0.46168  1.0000
  C   C976      1.0  0.98937  0.59084  0.23521  1.0000
  H   H1671     1.0  0.91636  0.70547  0.49298  1.0000
  H   H1672     1.0  0.90628  0.68375  0.42143  1.0000
  Fe  Fe143     1.0  0.98359  0.58993  0.15190  1.0000
  Fe  Fe144     1.0  0.01305  0.58165  0.41980  1.0000
  N   N68       1.0  0.53879  0.48418  0.15786  1.0000
  H   H1673     1.0  0.99904  0.51956  0.09736  1.0000
  H   H1674     1.0  0.93448  0.64371  0.21376  1.0000
  H   H1675     1.0  0.95758  0.68708  0.05871  1.0000
  N   N69       1.0  0.95785  0.70233  0.42494  1.0000
  C   C977      1.0  0.85823  0.57628  0.48677  1.0000
  C   C978      1.0  0.99576  0.65433  0.20870  1.0000
  C   C979      1.0  0.95616  0.68530  0.42547  1.0000
  C   C980      1.0  0.89265  0.51108  0.03556  1.0000
  H   H1676     1.0  0.90209  0.68336  0.03708  1.0000
  H   H1677     1.0  0.99785  0.54195  0.46448  1.0000
  C   C981      1.0  0.53721  0.48275  0.32989  1.0000
  H   H1678     1.0  0.96312  0.71921  0.45938  1.0000
  H   H1679     1.0  0.88579  0.65976  0.03179  1.0000
  H   H1680     1.0  0.93242  0.64082  0.17138  1.0000
  C   C982      1.0  0.01071  0.53578  0.48434  1.0000
  H   H1681     1.0  0.92631  0.53725  0.03446  1.0000
  H   H1682     1.0  0.90162  0.70688  0.45428  1.0000
  H   H1683     1.0  0.99280  0.52491  0.01329  1.0000
  H   H1684     1.0  0.89372  0.54774  0.49747  1.0000
  H   H1685     1.0  0.96193  0.68095  0.40163  1.0000
  S   S288      1.0  0.98900  0.57201  0.11603  1.0000
  C   C983      1.0  0.92572  0.67917  0.43630  1.0000
  C   C984      1.0  0.89652  0.52368  0.49088  1.0000
  S   S289      1.0  0.77944  0.56684  0.04255  1.0000
  C   C985      1.0  0.93551  0.72749  0.39690  1.0000
  Fe  Fe145     1.0  0.63446  0.48604  0.22213  1.0000
  C   C986      1.0  0.68357  0.50670  0.41392  1.0000
  C   C987      1.0  0.54510  0.49950  0.32810  1.0000
  Fe  Fe146     1.0  0.00035  0.61546  0.43003  1.0000
  C   C988      1.0  0.93605  0.70994  0.40063  1.0000
  H   H1686     1.0  0.91032  0.56090  0.33450  1.0000
  H   H1687     1.0  0.87329  0.58562  0.08118  1.0000
  H   H1688     1.0  0.77367  0.48965  0.18105  1.0000
  H   H1689     1.0  0.87905  0.56873  0.31214  1.0000
  S   S290      1.0  0.63831  0.49682  0.33570  1.0000
  C   C989      1.0  0.01061  0.53874  0.06411  1.0000
  C   C990      1.0  0.69947  0.49286  0.42337  1.0000
  H   H1690     1.0  0.89272  0.70070  0.01375  1.0000
  C   C991      1.0  0.66530  0.50773  0.38677  1.0000
  C   C992      1.0  0.73825  0.51418  0.15922  1.0000
  C   C993      1.0  0.97379  0.64625  0.48090  1.0000
  C   C994      1.0  0.65049  0.50609  0.14727  1.0000
  H   H1691     1.0  0.53252  0.50572  0.30813  1.0000
  N   N70       1.0  0.85698  0.59014  0.35541  1.0000
  C   C995      1.0  0.84848  0.59480  0.38853  1.0000
  C   C996      1.0  0.83083  0.58209  0.34351  1.0000
  C   C997      1.0  0.86085  0.60453  0.33518  1.0000
  C   C998      1.0  0.88641  0.58007  0.35721  1.0000
  C   C999      1.0  0.87096  0.60449  0.40445  1.0000
  C   C1000     1.0  0.82401  0.56722  0.36223  1.0000
  C   C1001     1.0  0.85905  0.60355  0.29895  1.0000
  C   C1002     1.0  0.89745  0.57188  0.32724  1.0000
  H   H1692     1.0  0.82568  0.60134  0.38880  1.0000
  H   H1693     1.0  0.84626  0.58469  0.40495  1.0000
  H   H1694     1.0  0.83418  0.57914  0.31850  1.0000
  H   H1695     1.0  0.80947  0.58984  0.34348  1.0000
  H   H1696     1.0  0.84310  0.61370  0.34138  1.0000
  H   H1697     1.0  0.88301  0.60908  0.34001  1.0000
  H   H1698     1.0  0.90551  0.58675  0.36359  1.0000
  H   H1699     1.0  0.88582  0.57130  0.37701  1.0000
  H   H1700     1.0  0.89364  0.59823  0.40790  1.0000
  H   H1701     1.0  0.87349  0.61555  0.39132  1.0000
  H   H1702     1.0  0.86211  0.60711  0.42850  1.0000
  H   H1703     1.0  0.84429  0.55890  0.36413  1.0000
  H   H1704     1.0  0.81448  0.56941  0.38616  1.0000
  H   H1705     1.0  0.80632  0.56167  0.34967  1.0000
  H   H1706     1.0  0.87483  0.59442  0.28962  1.0000
  H   H1707     1.0  0.86564  0.61443  0.28739  1.0000
  C   C1003     1.0  0.96356  0.67492  0.05994  1.0000
  H   H1708     1.0  0.91228  0.70721  0.40523  1.0000
  H   H1709     1.0  0.78661  0.49772  0.09279  1.0000
  Fe  Fe147     1.0  0.99985  0.59075  0.08105  1.0000
  H   H1710     1.0  0.96333  0.67175  0.22738  1.0000
  H   H1711     1.0  0.52115  0.48760  0.42828  1.0000
  H   H1712     1.0  0.99377  0.53239  0.50241  1.0000
  C   C1004     1.0  0.55684  0.48942  0.18467  1.0000
  H   H1713     1.0  0.56971  0.50040  0.32283  1.0000
  C   C1005     1.0  0.00327  0.64868  0.47011  1.0000
  H   H1714     1.0  0.94148  0.70546  0.37684  1.0000
  H   H1715     1.0  0.56474  0.50923  0.21107  1.0000
  H   H1716     1.0  0.52091  0.50462  0.13172  1.0000
  H   H1717     1.0  0.88720  0.49920  0.04181  1.0000
  H   H1718     1.0  0.71533  0.48534  0.18093  1.0000
  H   H1719     1.0  0.73294  0.49353  0.07139  1.0000
  C   C1006     1.0  0.78930  0.49297  0.11759  1.0000
  H   H1720     1.0  0.97918  0.50848  0.05535  1.0000
  H   H1721     1.0  0.54875  0.49491  0.40265  1.0000
  H   H1722     1.0  0.66286  0.48365  0.08437  1.0000
  C   C1007     1.0  0.95256  0.70823  0.45763  1.0000
  S   S291      1.0  0.95906  0.71953  0.02259  1.0000
  H   H1723     1.0  0.88901  0.48655  0.49684  1.0000
  H   H1724     1.0  0.71943  0.51250  0.17663  1.0000
  C   C1008     1.0  0.73673  0.50334  0.13176  1.0000
  C   C1009     1.0  0.80673  0.50469  0.13400  1.0000
  H   H1725     1.0  0.81483  0.56651  0.49184  1.0000
  H   H1726     1.0  0.92699  0.62577  0.19986  1.0000
  C   C1010     1.0  0.97120  0.66786  0.20381  1.0000
  N   N71       1.0  0.75897  0.48935  0.13204  1.0000
  C   C1011     1.0  0.94032  0.63580  0.19467  1.0000
  H   H1727     1.0  0.91331  0.72353  0.47195  1.0000
  N   N72       1.0  0.99657  0.64200  0.18519  1.0000
  C   C1012     1.0  0.95847  0.65638  0.50150  1.0000
  H   H1728     1.0  0.52563  0.50542  0.21065  1.0000
  H   H1729     1.0  0.87056  0.51795  0.03293  1.0000
  C   C1013     1.0  0.97445  0.63034  0.19474  1.0000
  H   H1730     1.0  0.53864  0.50552  0.34973  1.0000
  C   C1014     1.0  0.00565  0.53134  0.09752  1.0000
  C   C1015     1.0  0.00619  0.58896  0.26328  1.0000
  H   H1731     1.0  0.90603  0.72214  0.07659  1.0000
  C   C1016     1.0  0.89515  0.65038  0.01732  1.0000
  C   C1017     1.0  0.74357  0.48186  0.07629  1.0000
  C   C1018     1.0  0.56851  0.50212  0.11957  1.0000
  H   H1732     1.0  0.90837  0.51285  0.50033  1.0000
  C   C1019     1.0  0.67966  0.48127  0.37740  1.0000
  S   S292      1.0  0.01392  0.68076  0.02254  1.0000
  H   H1733     1.0  0.80478  0.48235  0.11615  1.0000
  H   H1734     1.0  0.98687  0.53808  0.10967  1.0000
  H   H1735     1.0  0.98638  0.50144  0.49036  1.0000
  H   H1736     1.0  0.76608  0.48057  0.06400  1.0000
  C   C1020     1.0  0.01302  0.65904  0.13728  1.0000
  H   H1737     1.0  0.64769  0.48215  0.14145  1.0000
  H   H1738     1.0  0.94101  0.65646  0.00951  1.0000
  H   H1739     1.0  0.90436  0.64108  0.03419  1.0000
  C   C1021     1.0  0.89484  0.68807  0.01330  1.0000
  H   H1740     1.0  0.01446  0.51556  0.45775  1.0000
  H   H1741     1.0  0.99884  0.49584  0.02814  1.0000
  C   C1022     1.0  0.52680  0.48969  0.40277  1.0000
  H   H1742     1.0  0.58335  0.48790  0.36947  1.0000
  H   H1743     1.0  0.00640  0.55973  0.01639  1.0000
  C   C1023     1.0  0.00160  0.50524  0.04410  1.0000
  Fe  Fe148     1.0  0.78482  0.51302  0.00991  1.0000
  H   H1744     1.0  0.01258  0.48443  0.49605  1.0000
  C   C1024     1.0  0.01334  0.51881  0.02439  1.0000
  H   H1745     1.0  0.87156  0.68503  0.00879  1.0000
  C   C1025     1.0  0.00223  0.49482  0.50700  1.0000
  C   C1026     1.0  0.83956  0.48659  0.98917  1.0000
  N   N73       1.0  0.89776  0.53680  0.54409  1.0000
  S   S293      1.0  0.77855  0.54087  0.52822  1.0000
  S   S294      1.0  0.98207  0.70848  0.59889  1.0000
  Fe  Fe149     1.0  0.96770  0.70418  0.54951  1.0000
  Fe  Fe150     1.0  0.63397  0.58191  0.78625  1.0000
  S   S295      1.0  0.67549  0.58134  0.75489  1.0000
  S   S296      1.0  0.63393  0.57517  0.83872  1.0000
  Fe  Fe151     1.0  0.59114  0.59336  0.73267  1.0000
  S   S297      1.0  0.62981  0.59372  0.69689  1.0000
  S   S298      1.0  0.54328  0.60186  0.71647  1.0000
  Fe  Fe152     1.0  0.64656  0.57113  0.71980  1.0000
  S   S299      1.0  0.66878  0.55035  0.69660  1.0000
  Fe  Fe153     1.0  0.65566  0.60402  0.73469  1.0000
  S   S300      1.0  0.68778  0.62199  0.71950  1.0000
  S   S301      1.0  0.60611  0.56989  0.75285  1.0000
  S   S302      1.0  0.61592  0.60549  0.76875  1.0000
  Fe  Fe154     1.0  0.74377  0.69564  0.78828  1.0000
  S   S303      1.0  0.72599  0.71133  0.74799  1.0000
  S   S304      1.0  0.71980  0.67495  0.80656  1.0000
  S   S305      1.0  0.74747  0.71438  0.82209  1.0000
  S   S306      1.0  0.79252  0.69573  0.77175  1.0000
  H   H1746     1.0  0.98823  0.49069  0.52730  1.0000
  H   H1747     1.0  0.69113  0.63662  0.90328  1.0000
  C   C1027     1.0  0.82725  0.48980  0.95904  1.0000
  S   S307      1.0  0.74301  0.50954  0.98283  1.0000
  S   S308      1.0  0.69454  0.55546  0.54812  1.0000
  H   H1748     1.0  0.66524  0.54702  0.79506  1.0000
  C   C1028     1.0  0.88856  0.70967  0.75230  1.0000
  Fe  Fe155     1.0  0.74746  0.53304  0.96052  1.0000
  H   H1749     1.0  0.70438  0.64918  0.87240  1.0000
  S   S309      1.0  0.74727  0.53920  0.90758  1.0000
  H   H1750     1.0  0.94469  0.54477  0.99888  1.0000
  S   S310      1.0  0.79215  0.53528  0.98415  1.0000
  H   H1751     1.0  0.85740  0.52805  0.59674  1.0000
  C   C1029     1.0  0.69531  0.63707  0.74343  1.0000
  C   C1030     1.0  0.68106  0.63891  0.77297  1.0000
  C   C1031     1.0  0.68835  0.65078  0.79172  1.0000
  C   C1032     1.0  0.70981  0.66092  0.78114  1.0000
  C   C1033     1.0  0.72362  0.65926  0.75135  1.0000
  C   C1034     1.0  0.71645  0.64734  0.73263  1.0000
  H   H1752     1.0  0.66443  0.63120  0.78131  1.0000
  H   H1753     1.0  0.67710  0.65226  0.81441  1.0000
  H   H1754     1.0  0.74016  0.66701  0.74296  1.0000
  H   H1755     1.0  0.72745  0.64604  0.70975  1.0000
  C   C1035     1.0  0.66550  0.56497  0.85734  1.0000
  C   C1036     1.0  0.66257  0.55944  0.88893  1.0000
  C   C1037     1.0  0.68756  0.55169  0.90483  1.0000
  C   C1038     1.0  0.71568  0.54945  0.88920  1.0000
  C   C1039     1.0  0.71875  0.55521  0.85780  1.0000
  C   C1040     1.0  0.69373  0.56290  0.84186  1.0000
  H   H1756     1.0  0.64086  0.56113  0.90118  1.0000
  H   H1757     1.0  0.68498  0.54731  0.92906  1.0000
  H   H1758     1.0  0.74059  0.55364  0.84576  1.0000
  H   H1759     1.0  0.69642  0.56738  0.81779  1.0000
  C   C1041     1.0  0.67451  0.55125  0.65507  1.0000
  C   C1042     1.0  0.69632  0.54095  0.64135  1.0000
  C   C1043     1.0  0.70232  0.54191  0.60848  1.0000
  C   C1044     1.0  0.68619  0.55305  0.58906  1.0000
  C   C1045     1.0  0.66380  0.56305  0.60272  1.0000
  C   C1046     1.0  0.65815  0.56225  0.63560  1.0000
  H   H1760     1.0  0.70899  0.53236  0.65622  1.0000
  H   H1761     1.0  0.71958  0.53412  0.59821  1.0000
  H   H1762     1.0  0.65094  0.57155  0.58780  1.0000
  H   H1763     1.0  0.64092  0.57005  0.64581  1.0000
  H   H1764     1.0  0.97553  0.69922  0.75384  1.0000
  S   S311      1.0  0.00331  0.71764  0.52509  1.0000
  Fe  Fe156     1.0  0.79535  0.71560  0.80267  1.0000
  H   H1765     1.0  0.85658  0.51814  0.98286  1.0000
  H   H1766     1.0  0.91626  0.69120  0.65453  1.0000
  H   H1767     1.0  0.71377  0.60465  0.57991  1.0000
  H   H1768     1.0  0.91749  0.50607  0.92209  1.0000
  H   H1769     1.0  0.69650  0.60115  0.66838  1.0000
  H   H1770     1.0  0.69081  0.59802  0.81186  1.0000
  H   H1771     1.0  0.92759  0.64450  0.98130  1.0000
  H   H1772     1.0  0.64980  0.50410  0.79893  1.0000
  C   C1047     1.0  0.64536  0.51078  0.74925  1.0000
  S   S312      1.0  0.71876  0.54485  0.99780  1.0000
  N   N74       1.0  0.91459  0.66859  0.97187  1.0000
  H   H1773     1.0  0.94525  0.56531  0.56273  1.0000
  H   H1774     1.0  0.74301  0.58982  0.93969  1.0000
  H   H1775     1.0  0.88698  0.70698  0.77818  1.0000
  H   H1776     1.0  0.92511  0.53290  0.93733  1.0000
  H   H1777     1.0  0.95499  0.70882  0.72193  1.0000
  Fe  Fe157     1.0  0.01481  0.72377  0.57465  1.0000
  H   H1778     1.0  0.62952  0.54009  0.83228  1.0000
  H   H1779     1.0  0.95861  0.52351  0.57519  1.0000
  H   H1780     1.0  0.01305  0.68103  0.50868  1.0000
  H   H1781     1.0  0.93414  0.68036  0.68712  1.0000
  H   H1782     1.0  0.80601  0.49682  0.95625  1.0000
  C   C1048     1.0  0.87973  0.72264  0.92308  1.0000
  H   H1783     1.0  0.74250  0.53968  0.75773  1.0000
  C   C1049     1.0  0.86344  0.53735  0.54754  1.0000
  H   H1784     1.0  0.90904  0.54904  0.58497  1.0000
  H   H1785     1.0  0.87799  0.70361  0.69224  1.0000
  H   H1786     1.0  0.85608  0.68764  0.73100  1.0000
  S   S313      1.0  0.89370  0.72497  0.96155  1.0000
  H   H1787     1.0  0.86487  0.71336  0.74447  1.0000
  C   C1050     1.0  0.91369  0.51133  0.00580  1.0000
  C   C1051     1.0  0.93909  0.55621  0.54742  1.0000
  C   C1052     1.0  0.62613  0.53552  0.80871  1.0000
  H   H1788     1.0  0.71675  0.61342  0.92121  1.0000
  C   C1053     1.0  0.84807  0.72332  0.91830  1.0000
  H   H1789     1.0  0.62385  0.51805  0.75263  1.0000
  H   H1790     1.0  0.95641  0.51019  0.92084  1.0000
  Fe  Fe158     1.0  0.78198  0.51543  0.53559  1.0000
  H   H1791     1.0  0.94973  0.50552  0.56099  1.0000
  H   H1792     1.0  0.97877  0.67353  0.96904  1.0000
  Fe  Fe159     1.0  0.94452  0.72378  0.97171  1.0000
  H   H1793     1.0  0.84261  0.52315  0.92763  1.0000
  H   H1794     1.0  0.97316  0.68996  0.71791  1.0000
  H   H1795     1.0  0.79570  0.48303  0.52573  1.0000
  S   S314      1.0  0.95163  0.68171  0.53619  1.0000
  H   H1796     1.0  0.89453  0.67498  0.78898  1.0000
  Fe  Fe160     1.0  0.94761  0.72884  0.59495  1.0000
  H   H1797     1.0  0.92892  0.72165  0.76221  1.0000
  C   C1054     1.0  0.90808  0.55076  0.55870  1.0000
  H   H1798     1.0  0.74420  0.61608  0.61428  1.0000
  H   H1799     1.0  0.74573  0.58221  0.90163  1.0000
  C   C1055     1.0  0.83623  0.72127  0.88813  1.0000
  H   H1800     1.0  0.95130  0.52547  0.96653  1.0000
  S   S315      1.0  0.79142  0.71224  0.68296  1.0000
  H   H1801     1.0  0.91516  0.70920  0.69333  1.0000
  H   H1802     1.0  0.85445  0.52706  0.53836  1.0000
  H   H1803     1.0  0.83322  0.48670  0.90897  1.0000
  H   H1804     1.0  0.85972  0.48764  0.61052  1.0000
  H   H1805     1.0  0.61925  0.52379  0.81240  1.0000
  H   H1806     1.0  0.68854  0.62843  0.84448  1.0000
  N   N75       1.0  0.72431  0.59475  0.62716  1.0000
  C   C1056     1.0  0.87314  0.67863  0.77630  1.0000
  H   H1807     1.0  0.70587  0.57655  0.68450  1.0000
  H   H1808     1.0  0.72877  0.59406  0.79771  1.0000
  H   H1809     1.0  0.69821  0.62555  0.63503  1.0000
  C   C1057     1.0  0.84669  0.49488  0.56278  1.0000
  H   H1810     1.0  0.67935  0.71118  0.68537  1.0000
  C   C1058     1.0  0.93667  0.50862  0.93708  1.0000
  Fe  Fe161     1.0  0.72827  0.53861  0.52442  1.0000
  Fe  Fe162     1.0  0.77537  0.71324  0.73435  1.0000
  C   C1059     1.0  0.85523  0.49465  0.53081  1.0000
  H   H1811     1.0  0.89481  0.67821  0.67740  1.0000
  C   C1060     1.0  0.89949  0.71979  0.89744  1.0000
  H   H1812     1.0  0.71512  0.61333  0.80308  1.0000
  H   H1813     1.0  0.81185  0.72189  0.88472  1.0000
  H   H1814     1.0  0.73626  0.58459  0.54813  1.0000
  H   H1815     1.0  0.75075  0.61037  0.89869  1.0000
  H   H1816     1.0  0.72148  0.57034  0.63091  1.0000
  H   H1817     1.0  0.76552  0.62156  0.66098  1.0000
  H   H1818     1.0  0.90688  0.52291  0.58726  1.0000
  H   H1819     1.0  0.95427  0.52072  0.53333  1.0000
  H   H1820     1.0  0.69531  0.53125  0.83261  1.0000
  C   C1061     1.0  0.92107  0.65490  0.99459  1.0000
  H   H1821     1.0  0.86523  0.66784  0.97608  1.0000
  H   H1822     1.0  0.87975  0.52820  0.91621  1.0000
  H   H1823     1.0  0.73769  0.61091  0.67928  1.0000
  H   H1824     1.0  0.94336  0.49855  0.95307  1.0000
  H   H1825     1.0  0.73145  0.63751  0.89576  1.0000
  H   H1826     1.0  0.91530  0.49960  0.99704  1.0000
  H   H1827     1.0  0.88208  0.65785  0.94454  1.0000
  H   H1828     1.0  0.73345  0.53763  0.79892  1.0000
  H   H1829     1.0  0.73607  0.51101  0.81703  1.0000
  H   H1830     1.0  0.66779  0.60898  0.92537  1.0000
  H   H1831     1.0  0.67672  0.59288  0.63896  1.0000
  C   C1062     1.0  0.87332  0.68217  0.93516  1.0000
  H   H1832     1.0  0.85021  0.68075  0.92618  1.0000
  C   C1063     1.0  0.86319  0.52809  0.93624  1.0000
  H   H1833     1.0  0.74165  0.58440  0.69151  1.0000
  H   H1834     1.0  0.85241  0.54719  0.53314  1.0000
  H   H1835     1.0  0.74044  0.56467  0.68464  1.0000
  S   S316      1.0  0.98010  0.70680  0.95311  1.0000
  H   H1836     1.0  0.87896  0.50626  0.95785  1.0000
  H   H1837     1.0  0.01372  0.51326  0.53391  1.0000
  C   C1064     1.0  0.94541  0.51810  0.55737  1.0000
  H   H1838     1.0  0.69706  0.58737  0.58940  1.0000
  H   H1839     1.0  0.93209  0.69045  0.77415  1.0000
  H   H1840     1.0  0.82921  0.70649  0.62795  1.0000
  H   H1841     1.0  0.75877  0.57592  0.63564  1.0000
  S   S317      1.0  0.73152  0.51334  0.53573  1.0000
  H   H1842     1.0  0.85585  0.53989  0.94254  1.0000
  H   H1843     1.0  0.93606  0.67746  0.74341  1.0000
  H   H1844     1.0  0.82523  0.53911  0.58081  1.0000
  H   H1845     1.0  0.70986  0.55039  0.77249  1.0000
  H   H1846     1.0  0.65823  0.51551  0.72874  1.0000
  H   H1847     1.0  0.67579  0.61743  0.60532  1.0000
  C   C1065     1.0  0.93760  0.66736  0.94494  1.0000
  N   N76       1.0  0.90409  0.52289  0.97953  1.0000
  H   H1848     1.0  0.92388  0.71922  0.90074  1.0000
  H   H1849     1.0  0.87596  0.53963  0.00560  1.0000
  C   C1066     1.0  0.97142  0.66449  0.95449  1.0000
  C   C1067     1.0  0.86789  0.71991  0.63072  1.0000
  H   H1850     1.0  0.87154  0.69292  0.94773  1.0000
  S   S318      1.0  0.81167  0.50404  0.57443  1.0000
  H   H1851     1.0  0.93287  0.65795  0.92961  1.0000
  H   H1852     1.0  0.93615  0.67794  0.92921  1.0000
  N   N77       1.0  0.67800  0.52306  0.78955  1.0000
  H   H1853     1.0  0.63884  0.49943  0.74295  1.0000
  C   C1068     1.0  0.86617  0.48751  0.58570  1.0000
  C   C1069     1.0  0.67628  0.72381  0.68566  1.0000
  H   H1854     1.0  0.66919  0.51741  0.83924  1.0000
  C   C1070     1.0  0.85051  0.53841  0.58165  1.0000
  C   C1071     1.0  0.68839  0.52055  0.82336  1.0000
  H   H1855     1.0  0.70909  0.58508  0.92170  1.0000
  H   H1856     1.0  0.91958  0.69298  0.96992  1.0000
  N   N78       1.0  0.90099  0.69582  0.73532  1.0000
  C   C1072     1.0  0.90708  0.72375  0.74941  1.0000
  H   H1857     1.0  0.65330  0.72735  0.67610  1.0000
  C   C1073     1.0  0.73438  0.57909  0.64146  1.0000
  C   C1074     1.0  0.74913  0.60543  0.62935  1.0000
  H   H1858     1.0  0.83258  0.72545  0.93800  1.0000
  H   H1859     1.0  0.66097  0.62006  0.64432  1.0000
  C   C1075     1.0  0.91098  0.52239  0.56129  1.0000
  C   C1076     1.0  0.88341  0.66839  0.95770  1.0000
  C   C1077     1.0  0.70428  0.52601  0.76728  1.0000
  C   C1078     1.0  0.66439  0.50891  0.77977  1.0000
  C   C1079     1.0  0.72329  0.53921  0.77507  1.0000
  H   H1860     1.0  0.85910  0.66871  0.77712  1.0000
  H   H1861     1.0  0.72030  0.51563  0.76558  1.0000
  H   H1862     1.0  0.69604  0.52864  0.74275  1.0000
  C   C1080     1.0  0.90133  0.69960  0.70010  1.0000
  H   H1863     1.0  0.68261  0.49962  0.77588  1.0000
  H   H1864     1.0  0.85978  0.68759  0.78928  1.0000
  H   H1865     1.0  0.67917  0.59125  0.88051  1.0000
  C   C1081     1.0  0.87879  0.68375  0.74130  1.0000
  C   C1082     1.0  0.75727  0.60997  0.66268  1.0000
  C   C1083     1.0  0.68214  0.61688  0.63063  1.0000
  C   C1084     1.0  0.91241  0.68643  0.67905  1.0000
  C   C1085     1.0  0.91850  0.68323  0.98765  1.0000
  H   H1866     1.0  0.93765  0.56147  0.52292  1.0000
  C   C1086     1.0  0.71813  0.59326  0.59242  1.0000
  C   C1087     1.0  0.83975  0.71474  0.64125  1.0000
  C   C1088     1.0  0.73034  0.57631  0.67760  1.0000
  C   C1089     1.0  0.74353  0.58457  0.57319  1.0000
  H   H1867     1.0  0.95784  0.54708  0.54872  1.0000
  H   H1868     1.0  0.64816  0.53992  0.76276  1.0000
  H   H1869     1.0  0.76533  0.59000  0.57312  1.0000
  H   H1870     1.0  0.89890  0.51242  0.55516  1.0000
  C   C1090     1.0  0.69476  0.60076  0.64236  1.0000
  H   H1871     1.0  0.88665  0.67317  0.72932  1.0000
  C   C1091     1.0  0.93178  0.68980  0.74790  1.0000
  H   H1872     1.0  0.85667  0.54874  0.59302  1.0000
  H   H1873     1.0  0.71970  0.50718  0.85511  1.0000
  H   H1874     1.0  0.87888  0.71560  0.60954  1.0000
  H   H1875     1.0  0.88848  0.68327  0.91410  1.0000
  C   C1092     1.0  0.71471  0.50812  0.82934  1.0000
  C   C1093     1.0  0.65499  0.53671  0.78763  1.0000
  H   H1876     1.0  0.77080  0.60034  0.61906  1.0000
  H   H1877     1.0  0.77550  0.60188  0.67321  1.0000
  C   C1094     1.0  0.82573  0.71978  0.66940  1.0000
  H   H1878     1.0  0.97648  0.65325  0.96721  1.0000
  H   H1879     1.0  0.72885  0.62764  0.84417  1.0000
  H   H1880     1.0  0.53197  0.57607  0.76025  1.0000
  H   H1881     1.0  0.66512  0.60594  0.85324  1.0000
  H   H1882     1.0  0.60647  0.54220  0.79716  1.0000
  H   H1883     1.0  0.74722  0.57240  0.58143  1.0000
  C   C1095     1.0  0.95989  0.69754  0.73421  1.0000
  H   H1884     1.0  0.93562  0.65444  0.50968  1.0000
  H   H1885     1.0  0.00311  0.54620  0.98587  1.0000
  H   H1886     1.0  0.70864  0.49678  0.82263  1.0000
  N   N79       1.0  0.70984  0.60895  0.87179  1.0000
  C   C1096     1.0  0.72673  0.59947  0.84737  1.0000
  C   C1097     1.0  0.72742  0.60647  0.90227  1.0000
  C   C1098     1.0  0.70876  0.62549  0.85976  1.0000
  C   C1099     1.0  0.67813  0.60376  0.87556  1.0000
  C   C1100     1.0  0.71431  0.60153  0.81328  1.0000
  C   C1101     1.0  0.92958  0.52328  0.95523  1.0000
  C   C1102     1.0  0.70877  0.63771  0.88458  1.0000
  C   C1103     1.0  0.65782  0.61106  0.90148  1.0000
  H   H1887     1.0  0.75120  0.60188  0.84604  1.0000
  H   H1888     1.0  0.84076  0.50049  0.51304  1.0000
  C   C1104     1.0  0.73123  0.58991  0.91662  1.0000
  H   H1889     1.0  0.89129  0.56079  0.55384  1.0000
  S   S319      1.0  0.84284  0.71611  0.82368  1.0000
  H   H1890     1.0  0.72664  0.58713  0.85403  1.0000
  C   C1105     1.0  0.87552  0.51818  0.96514  1.0000
  H   H1891     1.0  0.89401  0.54727  0.97162  1.0000
  H   H1892     1.0  0.98597  0.66454  0.93275  1.0000
  H   H1893     1.0  0.65557  0.72895  0.76736  1.0000
  C   C1106     1.0  0.85602  0.71857  0.86241  1.0000
  C   C1107     1.0  0.88267  0.48680  0.52168  1.0000
  S   S320      1.0  0.93107  0.72357  0.54730  1.0000
  H   H1894     1.0  0.65242  0.62339  0.89604  1.0000
  Fe  Fe163     1.0  0.01028  0.72617  0.94722  1.0000
  H   H1895     1.0  0.90318  0.71575  0.84759  1.0000
  C   C1108     1.0  0.89767  0.53864  0.99167  1.0000
  H   H1896     1.0  0.63575  0.60575  0.90227  1.0000
  C   C1109     1.0  0.84273  0.48413  0.93227  1.0000
  C   C1110     1.0  0.97241  0.66903  0.51139  1.0000
  C   C1111     1.0  0.88767  0.71780  0.86731  1.0000
  H   H1897     1.0  0.72291  0.72319  0.66952  1.0000
  H   H1898     1.0  0.69577  0.72936  0.63996  1.0000
  H   H1899     1.0  0.67658  0.72683  0.71068  1.0000
  Fe  Fe164     1.0  0.99721  0.70424  0.00298  1.0000
  H   H1900     1.0  0.94105  0.68269  0.99922  1.0000
  H   H1901     1.0  0.51880  0.61170  0.81049  1.0000
  H   H1902     1.0  0.87657  0.64569  0.00449  1.0000
  H   H1903     1.0  0.91109  0.72787  0.72463  1.0000
  C   C1112     1.0  0.90520  0.53730  0.50911  1.0000
  Fe  Fe165     1.0  0.73196  0.73015  0.78048  1.0000
  C   C1113     1.0  0.90532  0.74675  0.06841  1.0000
  S   S321      1.0  0.77630  0.96382  0.30440  1.0000
  Fe  Fe166     1.0  0.69012  0.86534  0.29795  1.0000
  S   S322      1.0  0.67833  0.88563  0.26468  1.0000
  S   S323      1.0  0.67240  0.86277  0.34879  1.0000
  Fe  Fe167     1.0  0.73321  0.84966  0.24992  1.0000
  S   S324      1.0  0.72265  0.86835  0.21234  1.0000
  S   S325      1.0  0.76744  0.82933  0.24034  1.0000
  Fe  Fe168     1.0  0.72812  0.88419  0.25145  1.0000
  S   S326      1.0  0.76048  0.90226  0.23759  1.0000
  Fe  Fe169     1.0  0.67358  0.86822  0.22813  1.0000
  S   S327      1.0  0.63015  0.87380  0.19939  1.0000
  S   S328      1.0  0.74079  0.86545  0.28814  1.0000
  S   S329      1.0  0.68321  0.84798  0.26241  1.0000
  S   S330      1.0  0.57473  0.84380  0.08152  1.0000
  H   H1904     1.0  0.77986  0.97044  0.18531  1.0000
  H   H1905     1.0  0.95644  0.77996  0.37827  1.0000
  H   H1906     1.0  0.58260  0.89222  0.35072  1.0000
  S   S331      1.0  0.95546  0.75479  0.48502  1.0000
  C   C1114     1.0  0.72594  0.81410  0.30599  1.0000
  C   C1115     1.0  0.98438  0.74614  0.10546  1.0000
  Fe  Fe170     1.0  0.94894  0.80590  0.26908  1.0000
  S   S332      1.0  0.94968  0.78028  0.27434  1.0000
  S   S333      1.0  0.90807  0.82300  0.27952  1.0000
  Fe  Fe171     1.0  0.99265  0.78126  0.30210  1.0000
  C   C1116     1.0  0.60055  0.88482  0.45921  1.0000
  Fe  Fe172     1.0  0.97985  0.78029  0.23041  1.0000
  S   S334      1.0  0.97500  0.76208  0.19424  1.0000
  S   S335      1.0  0.99060  0.80698  0.29955  1.0000
  S   S336      1.0  0.97640  0.80587  0.22343  1.0000
  C   C1117     1.0  0.96961  0.75683  0.44543  1.0000
  H   H1907     1.0  0.64567  0.82387  0.37719  1.0000
  N   N80       1.0  0.73396  0.96480  0.17649  1.0000
  C   C1118     1.0  0.99218  0.76183  0.38262  1.0000
  C   C1119     1.0  0.96711  0.77093  0.39370  1.0000
  C   C1120     1.0  0.95600  0.76846  0.42494  1.0000
  H   H1908     1.0  0.59159  0.91211  0.34832  1.0000
  C   C1121     1.0  0.72949  0.97352  0.40499  1.0000
  H   H1909     1.0  0.93681  0.77571  0.43330  1.0000
  C   C1122     1.0  0.98768  0.75921  0.08585  1.0000
  H   H1910     1.0  0.98524  0.73512  0.09525  1.0000
  H   H1911     1.0  0.90159  0.74875  0.09397  1.0000
  C   C1123     1.0  0.97950  0.76148  0.15237  1.0000
  C   C1124     1.0  0.98219  0.77458  0.13269  1.0000
  H   H1912     1.0  0.55336  0.83180  0.20386  1.0000
  C   C1125     1.0  0.55211  0.89474  0.41079  1.0000
  H   H1913     1.0  0.84228  0.77605  0.01224  1.0000
  S   S337      1.0  0.99289  0.75847  0.04406  1.0000
  C   C1126     1.0  0.53649  0.83010  0.15683  1.0000
  C   C1127     1.0  0.80634  0.82738  0.25205  1.0000
  C   C1128     1.0  0.82658  0.81607  0.23908  1.0000
  C   C1129     1.0  0.85767  0.81433  0.24750  1.0000
  C   C1130     1.0  0.86884  0.82382  0.26931  1.0000
  C   C1131     1.0  0.84843  0.83490  0.28274  1.0000
  C   C1132     1.0  0.81748  0.83676  0.27404  1.0000
  H   H1914     1.0  0.81825  0.80869  0.22214  1.0000
  H   H1915     1.0  0.87303  0.80573  0.23698  1.0000
  H   H1916     1.0  0.85674  0.84220  0.29986  1.0000
  H   H1917     1.0  0.80229  0.84547  0.28435  1.0000
  C   C1133     1.0  0.61687  0.86565  0.16527  1.0000
  C   C1134     1.0  0.59169  0.87315  0.14927  1.0000
  C   C1135     1.0  0.57871  0.86666  0.12350  1.0000
  C   C1136     1.0  0.59100  0.85262  0.11319  1.0000
  C   C1137     1.0  0.61662  0.84525  0.12871  1.0000
  C   C1138     1.0  0.62946  0.85170  0.15472  1.0000
  H   H1918     1.0  0.58206  0.88405  0.15694  1.0000
  H   H1919     1.0  0.55938  0.87258  0.11144  1.0000
  H   H1920     1.0  0.62640  0.83443  0.12078  1.0000
  H   H1921     1.0  0.64885  0.84580  0.16675  1.0000
  C   C1139     1.0  0.77304  0.94619  0.28730  1.0000
  C   C1140     1.0  0.74979  0.93702  0.29763  1.0000
  C   C1141     1.0  0.74603  0.92324  0.28330  1.0000
  C   C1142     1.0  0.76553  0.91862  0.25853  1.0000
  C   C1143     1.0  0.78909  0.92765  0.24871  1.0000
  C   C1144     1.0  0.79299  0.94130  0.26317  1.0000
  H   H1922     1.0  0.73437  0.94069  0.31643  1.0000
  H   H1923     1.0  0.72774  0.91637  0.29096  1.0000
  H   H1924     1.0  0.80421  0.92416  0.22957  1.0000
  H   H1925     1.0  0.81126  0.94812  0.25539  1.0000
  C   C1145     1.0  0.57204  0.85594  0.37351  1.0000
  C   C1146     1.0  0.59386  0.85540  0.39730  1.0000
  C   C1147     1.0  0.62461  0.85724  0.38932  1.0000
  C   C1148     1.0  0.63379  0.85976  0.35757  1.0000
  C   C1149     1.0  0.61209  0.86004  0.33375  1.0000
  C   C1150     1.0  0.58140  0.85808  0.34172  1.0000
  H   H1926     1.0  0.58703  0.85349  0.42181  1.0000
  H   H1927     1.0  0.64130  0.85688  0.40789  1.0000
  H   H1928     1.0  0.61886  0.86192  0.30920  1.0000
  H   H1929     1.0  0.56472  0.85840  0.32314  1.0000
  H   H1930     1.0  0.75494  0.80113  0.35762  1.0000
  H   H1931     1.0  0.85030  0.78740  0.04537  1.0000
  H   H1932     1.0  0.69646  0.79553  0.29642  1.0000
  C   C1151     1.0  0.71173  0.94223  0.20883  1.0000
  C   C1152     1.0  0.00573  0.75015  0.40312  1.0000
  H   H1933     1.0  0.73198  0.94193  0.22381  1.0000
  S   S338      1.0  0.53297  0.85399  0.38221  1.0000
  H   H1934     1.0  0.56809  0.86760  0.24818  1.0000
  H   H1935     1.0  0.61293  0.88702  0.39809  1.0000
  H   H1936     1.0  0.00206  0.78050  0.46793  1.0000
  H   H1937     1.0  0.85434  0.76303  0.08065  1.0000
  H   H1938     1.0  0.78751  0.94996  0.14558  1.0000
  C   C1153     1.0  0.54457  0.83984  0.18426  1.0000
  C   C1154     1.0  0.60510  0.89915  0.39303  1.0000
  C   C1155     1.0  0.78364  0.94719  0.17113  1.0000
  Fe  Fe173     1.0  0.52728  0.85091  0.06239  1.0000
  C   C1156     1.0  0.54550  0.92791  0.43111  1.0000
  H   H1939     1.0  0.68494  0.97602  0.43062  1.0000
  C   C1157     1.0  0.70680  0.97848  0.12752  1.0000
  H   H1940     1.0  0.69961  0.95698  0.42456  1.0000
  H   H1941     1.0  0.85608  0.90813  0.22316  1.0000
  H   H1942     1.0  0.89032  0.86125  0.26634  1.0000
  H   H1943     1.0  0.60957  0.90847  0.45232  1.0000
  H   H1944     1.0  0.71894  0.96557  0.24381  1.0000
  H   H1945     1.0  0.00514  0.73858  0.44964  1.0000
  H   H1946     1.0  0.98061  0.78559  0.14293  1.0000
  C   C1158     1.0  0.57091  0.92094  0.40929  1.0000
  C   C1159     1.0  0.59022  0.90144  0.44834  1.0000
  H   H1947     1.0  0.93053  0.74507  0.06492  1.0000
  C   C1160     1.0  0.85459  0.90404  0.19906  1.0000
  H   H1948     1.0  0.75359  0.97961  0.14029  1.0000
  H   H1949     1.0  0.93345  0.77180  0.04960  1.0000
  S   S339      1.0  0.83131  0.97808  0.23306  1.0000
  C   C1161     1.0  0.76654  0.83046  0.34547  1.0000
  H   H1950     1.0  0.97934  0.96973  0.26324  1.0000
  C   C1162     1.0  0.00526  0.78773  0.48800  1.0000
  C   C1163     1.0  0.90878  0.77384  0.05536  1.0000
  C   C1164     1.0  0.85865  0.76249  0.05469  1.0000
  C   C1165     1.0  0.59902  0.90037  0.35721  1.0000
  H   H1951     1.0  0.97812  0.73708  0.15343  1.0000
  H   H1952     1.0  0.72154  0.84090  0.33548  1.0000
  H   H1953     1.0  0.69147  0.94675  0.22244  1.0000
  H   H1954     1.0  0.69125  0.78894  0.36213  1.0000
  H   H1955     1.0  0.62063  0.89699  0.34444  1.0000
  H   H1956     1.0  0.55614  0.82173  0.15214  1.0000
  C   C1166     1.0  0.70332  0.80644  0.28572  1.0000
  H   H1957     1.0  0.72212  0.78351  0.33478  1.0000
  H   H1958     1.0  0.80144  0.85033  0.18959  1.0000
  C   C1167     1.0  0.71626  0.78814  0.35814  1.0000
  H   H1959     1.0  0.72633  0.77969  0.37629  1.0000
  H   H1960     1.0  0.67104  0.81004  0.33580  1.0000
  H   H1961     1.0  0.56459  0.84581  0.17541  1.0000
  H   H1962     1.0  0.67859  0.83272  0.38735  1.0000
  H   H1963     1.0  0.72668  0.83308  0.37477  1.0000
  C   C1168     1.0  0.99443  0.74759  0.43425  1.0000
  C   C1169     1.0  0.67098  0.82222  0.37788  1.0000
  H   H1964     1.0  0.67490  0.82975  0.32868  1.0000
  C   C1170     1.0  0.72997  0.80343  0.36165  1.0000
  H   H1965     1.0  0.72729  0.80628  0.38694  1.0000
  C   C1171     1.0  0.90630  0.77862  0.08998  1.0000
  H   H1966     1.0  0.67683  0.81231  0.39452  1.0000
  H   H1967     1.0  0.80999  0.87883  0.25089  1.0000
  H   H1968     1.0  0.71427  0.80409  0.26239  1.0000
  H   H1969     1.0  0.79194  0.86135  0.22280  1.0000
  C   C1172     1.0  0.80534  0.86121  0.20037  1.0000
  N   N81       1.0  0.71735  0.81661  0.34029  1.0000
  H   H1970     1.0  0.77446  0.82764  0.32132  1.0000
  H   H1971     1.0  0.83951  0.88619  0.17292  1.0000
  H   H1972     1.0  0.68257  0.81420  0.28073  1.0000
  C   C1173     1.0  0.68321  0.81959  0.34399  1.0000
  C   C1174     1.0  0.71486  0.95136  0.17696  1.0000
  C   C1175     1.0  0.73154  0.83072  0.34955  1.0000
  H   H1973     1.0  0.62516  0.90567  0.39718  1.0000
  H   H1974     1.0  0.72037  0.97142  0.38128  1.0000
  H   H1975     1.0  0.57219  0.90514  0.46559  1.0000
  H   H1976     1.0  0.77368  0.84199  0.34946  1.0000
  C   C1176     1.0  0.73649  0.97095  0.14254  1.0000
  H   H1977     1.0  0.74853  0.80747  0.30403  1.0000
  H   H1978     1.0  0.57914  0.85104  0.22742  1.0000
  N   N82       1.0  0.57894  0.90404  0.41473  1.0000
  H   H1979     1.0  0.72886  0.82518  0.29287  1.0000
  H   H1980     1.0  0.79612  0.87056  0.18375  1.0000
  H   H1981     1.0  0.77855  0.82247  0.36316  1.0000
  H   H1982     1.0  0.70920  0.93008  0.20441  1.0000
  C   C1177     1.0  0.98036  0.74729  0.13847  1.0000
  C   C1178     1.0  0.83523  0.87711  0.25247  1.0000
  H   H1983     1.0  0.56390  0.92404  0.38463  1.0000
  H   H1984     1.0  0.71662  0.96699  0.45396  1.0000
  H   H1985     1.0  0.88236  0.78094  0.09802  1.0000
  H   H1986     1.0  0.89302  0.88496  0.22873  1.0000
  H   H1987     1.0  0.84194  0.88642  0.29813  1.0000
  N   N83       1.0  0.84944  0.87593  0.21988  1.0000
  C   C1179     1.0  0.53002  0.89982  0.38336  1.0000
  H   H1988     1.0  0.87775  0.90256  0.18827  1.0000
  H   H1989     1.0  0.82923  0.90055  0.26791  1.0000
  C   C1180     1.0  0.89870  0.86116  0.24146  1.0000
  H   H1990     1.0  0.84637  0.85140  0.22184  1.0000
  C   C1181     1.0  0.83803  0.88931  0.19815  1.0000
  H   H1991     1.0  0.85178  0.85958  0.18313  1.0000
  C   C1182     1.0  0.84437  0.88999  0.27266  1.0000
  H   H1992     1.0  0.62236  0.88070  0.44784  1.0000
  H   H1993     1.0  0.83887  0.86621  0.26682  1.0000
  C   C1183     1.0  0.83981  0.86162  0.20616  1.0000
  C   C1184     1.0  0.72472  0.97641  0.23180  1.0000
  H   H1994     1.0  0.86843  0.89250  0.26973  1.0000
  H   H1995     1.0  0.89563  0.84998  0.23167  1.0000
  H   H1996     1.0  0.56005  0.88261  0.40785  1.0000
  H   H1997     1.0  0.60466  0.88430  0.48513  1.0000
  H   H1998     1.0  0.74985  0.96529  0.40837  1.0000
  C   C1185     1.0  0.88384  0.87455  0.22056  1.0000
  H   H1999     1.0  0.59142  0.92730  0.41238  1.0000
  H   H2000     1.0  0.81344  0.89251  0.20276  1.0000
  H   H2001     1.0  0.92370  0.86207  0.24207  1.0000
  C   C1186     1.0  0.55911  0.85758  0.23782  1.0000
  H   H2002     1.0  0.84165  0.91324  0.18464  1.0000
  H   H2003     1.0  0.98874  0.78364  0.08474  1.0000
  H   H2004     1.0  0.89330  0.87339  0.19610  1.0000
  H   H2005     1.0  0.91577  0.73199  0.38219  1.0000
  H   H2006     1.0  0.78625  0.96988  0.37352  1.0000
  C   C1187     1.0  0.76600  0.96042  0.18777  1.0000
  C   C1188     1.0  0.98652  0.77343  0.09969  1.0000
  H   H2007     1.0  0.84678  0.75260  0.04746  1.0000
  C   C1189     1.0  0.84163  0.77665  0.03833  1.0000
  H   H2008     1.0  0.77224  0.93646  0.17459  1.0000
  H   H2009     1.0  0.80653  0.94504  0.18194  1.0000
  H   H2010     1.0  0.81722  0.77706  0.04568  1.0000
  H   H2011     1.0  0.53287  0.83716  0.13446  1.0000
  H   H2012     1.0  0.72283  0.94321  0.15875  1.0000
  C   C1190     1.0  0.71887  0.97735  0.19581  1.0000
  S   S340      1.0  0.00771  0.76456  0.34374  1.0000
  H   H2013     1.0  0.58285  0.87691  0.45543  1.0000
  H   H2014     1.0  0.74492  0.96181  0.12670  1.0000
  H   H2015     1.0  0.54924  0.85076  0.25762  1.0000
  H   H2016     1.0  0.54710  0.87066  0.19491  1.0000
  H   H2017     1.0  0.91756  0.78936  0.09169  1.0000
  H   H2018     1.0  0.53927  0.90702  0.36399  1.0000
  H   H2019     1.0  0.55403  0.92923  0.45528  1.0000
  H   H2020     1.0  0.91861  0.77016  0.10657  1.0000
  H   H2021     1.0  0.69113  0.95509  0.16974  1.0000
  H   H2022     1.0  0.76662  0.95712  0.21331  1.0000
  H   H2023     1.0  0.74872  0.97834  0.23683  1.0000
  H   H2024     1.0  0.98269  0.79390  0.49256  1.0000
  C   C1191     1.0  0.70624  0.96841  0.43015  1.0000
  Fe  Fe174     1.0  0.99019  0.73821  0.01262  1.0000
  H   H2025     1.0  0.53790  0.89471  0.43283  1.0000
  H   H2026     1.0  0.68892  0.97040  0.12646  1.0000
  C   C1192     1.0  0.53524  0.86330  0.21254  1.0000
  H   H2027     1.0  0.52536  0.92116  0.43296  1.0000
  H   H2028     1.0  0.90083  0.78409  0.04046  1.0000
  S   S341      1.0  0.52676  0.85881  0.47820  1.0000
  H   H2029     1.0  0.52302  0.88949  0.37237  1.0000
  H   H2030     1.0  0.93298  0.73298  0.41987  1.0000
  H   H2031     1.0  0.69370  0.97828  0.19274  1.0000
  N   N84       1.0  0.89236  0.76015  0.04769  1.0000
  H   H2032     1.0  0.53762  0.93952  0.42150  1.0000
  H   H2033     1.0  0.95616  0.73118  0.38424  1.0000
  C   C1193     1.0  0.89808  0.75632  0.01341  1.0000
  N   N85       1.0  0.51993  0.85117  0.19627  1.0000
  H   H2034     1.0  0.91147  0.98010  0.36056  1.0000
  H   H2035     1.0  0.91852  0.74809  0.01112  1.0000
  S   S342      1.0  0.51650  0.85778  0.01112  1.0000
  H   H2036     1.0  0.51647  0.82360  0.16199  1.0000
  H   H2037     1.0  0.51791  0.86514  0.15257  1.0000
  H   H2038     1.0  0.51819  0.87111  0.22462  1.0000
  H   H2039     1.0  0.86844  0.73124  0.07306  1.0000
  C   C1194     1.0  0.89202  0.73138  0.06339  1.0000
  S   S343      1.0  0.51646  0.90081  0.49646  1.0000
  H   H2040     1.0  0.92696  0.77363  0.99286  1.0000
  H   H2041     1.0  0.60552  0.79294  0.85807  1.0000
  H   H2042     1.0  0.56558  0.96012  0.96253  1.0000
  H   H2043     1.0  0.52256  0.76456  0.89129  1.0000
  H   H2044     1.0  0.55599  0.74535  0.86800  1.0000
  C   C1195     1.0  0.64364  0.74019  0.76545  1.0000
  C   C1196     1.0  0.59258  0.76720  0.88417  1.0000
  C   C1197     1.0  0.54622  0.78359  0.86800  1.0000
  H   H2045     1.0  0.82881  0.73466  0.70772  1.0000
  H   H2046     1.0  0.61727  0.93574  0.92380  1.0000
  C   C1198     1.0  0.59500  0.97021  0.92650  1.0000
  H   H2047     1.0  0.71158  0.77029  0.71738  1.0000
  H   H2048     1.0  0.59157  0.97075  0.86071  1.0000
  H   H2049     1.0  0.88657  0.77919  0.98960  1.0000
  C   C1199     1.0  0.59618  0.75637  0.75589  1.0000
  H   H2050     1.0  0.52368  0.86552  0.90307  1.0000
  H   H2051     1.0  0.54885  0.93578  0.67703  1.0000
  H   H2052     1.0  0.66599  0.95590  0.90053  1.0000
  H   H2053     1.0  0.90456  0.76515  0.96495  1.0000
  H   H2054     1.0  0.52640  0.88455  0.91682  1.0000
  H   H2055     1.0  0.87767  0.74426  0.68854  1.0000
  N   N86       1.0  0.57498  0.77484  0.85655  1.0000
  C   C1200     1.0  0.61247  0.74192  0.75755  1.0000
  S   S344      1.0  0.98142  0.74454  0.57374  1.0000
  H   H2056     1.0  0.59261  0.97158  0.97831  1.0000
  C   C1201     1.0  0.90417  0.76950  0.98918  1.0000
  H   H2057     1.0  0.57892  0.75926  0.89845  1.0000
  C   C1202     1.0  0.83948  0.73053  0.68625  1.0000
  H   H2058     1.0  0.56605  0.79233  0.79832  1.0000
  H   H2059     1.0  0.63315  0.75265  0.89770  1.0000
  H   H2060     1.0  0.60074  0.73194  0.75329  1.0000
  S   S345      1.0  0.53607  0.93970  0.91667  1.0000
  H   H2061     1.0  0.71052  0.74254  0.72101  1.0000
  H   H2062     1.0  0.74613  0.76130  0.73275  1.0000
  H   H2063     1.0  0.54081  0.77616  0.91823  1.0000
  C   C1203     1.0  0.54969  0.75017  0.84415  1.0000
  H   H2064     1.0  0.53003  0.78623  0.84813  1.0000
  C   C1204     1.0  0.72514  0.75312  0.64262  1.0000
  S   S346      1.0  0.52649  0.97691  0.86238  1.0000
  H   H2065     1.0  0.72954  0.76522  0.64477  1.0000
  C   C1205     1.0  0.56786  0.76364  0.83257  1.0000
  C   C1206     1.0  0.64292  0.76742  0.76941  1.0000
  C   C1207     1.0  0.61176  0.76916  0.76137  1.0000
  C   C1208     1.0  0.57927  0.79775  0.81592  1.0000
  H   H2066     1.0  0.52631  0.89404  0.98708  1.0000
  H   H2067     1.0  0.65465  0.77738  0.77392  1.0000
  H   H2068     1.0  0.59981  0.78038  0.75937  1.0000
  C   C1209     1.0  0.65902  0.75293  0.77173  1.0000
  H   H2069     1.0  0.77235  0.74549  0.65683  1.0000
  H   H2070     1.0  0.58885  0.75886  0.82047  1.0000
  C   C1210     1.0  0.64280  0.97979  0.94087  1.0000
  C   C1211     1.0  0.67442  0.77334  0.66208  1.0000
  S   S347      1.0  0.55642  0.75764  0.74771  1.0000
  S   S348      1.0  0.69797  0.75131  0.78314  1.0000
  H   H2071     1.0  0.65928  0.75153  0.65700  1.0000
  H   H2072     1.0  0.56412  0.80651  0.82763  1.0000
  H   H2073     1.0  0.61886  0.74850  0.86021  1.0000
  N   N87       1.0  0.62801  0.97089  0.91664  1.0000
  C   C1212     1.0  0.88193  0.73044  0.64793  1.0000
  H   H2074     1.0  0.01520  0.78661  0.53723  1.0000
  C   C1213     1.0  0.59502  0.78613  0.84034  1.0000
  H   H2075     1.0  0.65182  0.77878  0.66919  1.0000
  C   C1214     1.0  0.53677  0.93446  0.65447  1.0000
  H   H2076     1.0  0.59691  0.80390  0.80262  1.0000
  H   H2077     1.0  0.53734  0.94610  0.60668  1.0000
  H   H2078     1.0  0.55372  0.91057  0.94848  1.0000
  H   H2079     1.0  0.75501  0.73237  0.63239  1.0000
  H   H2080     1.0  0.62926  0.96242  0.84977  1.0000
  H   H2081     1.0  0.53351  0.92901  0.51833  1.0000
  S   S349      1.0  0.91858  0.73631  0.63755  1.0000
  H   H2082     1.0  0.55500  0.74064  0.82824  1.0000
  C   C1215     1.0  0.62702  0.94237  0.90353  1.0000
  C   C1216     1.0  0.52832  0.77620  0.89563  1.0000
  H   H2083     1.0  0.59812  0.77587  0.90096  1.0000
  S   S350      1.0  0.78042  0.73311  0.76396  1.0000
  H   H2084     1.0  0.64316  0.93413  0.89150  1.0000
  H   H2085     1.0  0.74614  0.76884  0.69283  1.0000
  C   C1217     1.0  0.73221  0.76297  0.71098  1.0000
  H   H2086     1.0  0.87892  0.75041  0.00421  1.0000
  C   C1218     1.0  0.01549  0.77835  0.51841  1.0000
  H   H2087     1.0  0.61441  0.78015  0.82752  1.0000
  C   C1219     1.0  0.58951  0.96320  0.96018  1.0000
  H   H2088     1.0  0.55444  0.76949  0.81282  1.0000
  H   H2089     1.0  0.67624  0.77493  0.63588  1.0000
  H   H2090     1.0  0.65276  0.95127  0.93960  1.0000
  H   H2091     1.0  0.71196  0.75289  0.62040  1.0000
  C   C1220     1.0  0.62267  0.75794  0.87561  1.0000
  H   H2092     1.0  0.74538  0.73978  0.70021  1.0000
  H   H2093     1.0  0.69195  0.77961  0.67281  1.0000
  C   C1221     1.0  0.67605  0.75621  0.67249  1.0000
  H   H2094     1.0  0.53662  0.86813  0.94189  1.0000
  S   S351      1.0  0.97308  0.74352  0.96275  1.0000
  H   H2095     1.0  0.58215  0.96385  0.91012  1.0000
  C   C1222     1.0  0.86724  0.73594  0.67535  1.0000
  S   S352      1.0  0.51677  0.80156  0.75114  1.0000
  H   H2096     1.0  0.63963  0.76519  0.86429  1.0000
  Fe  Fe175     1.0  0.51677  0.77602  0.75342  1.0000
  H   H2097     1.0  0.60884  0.94599  0.88639  1.0000
  C   C1223     1.0  0.72388  0.74735  0.70100  1.0000
  C   C1224     1.0  0.64496  0.95531  0.91541  1.0000
  H   H2098     1.0  0.57131  0.94664  0.62874  1.0000
  H   H2099     1.0  0.60441  0.95266  0.96551  1.0000
  H   H2100     1.0  0.66634  0.75519  0.69702  1.0000
  H   H2101     1.0  0.52478  0.75339  0.84329  1.0000
  N   N88       1.0  0.70680  0.74719  0.67044  1.0000
  Fe  Fe176     1.0  0.96773  0.73738  0.52590  1.0000
  H   H2102     1.0  0.54694  0.92367  0.64482  1.0000
  H   H2103     1.0  0.52429  0.83338  0.87983  1.0000
  H   H2104     1.0  0.53874  0.95878  0.63895  1.0000
  H   H2105     1.0  0.55139  0.79486  0.87644  1.0000
  C   C1225     1.0  0.53087  0.91419  0.95630  1.0000
  H   H2106     1.0  0.76746  0.74975  0.61554  1.0000
  C   C1226     1.0  0.75663  0.74453  0.63694  1.0000
  H   H2107     1.0  0.64304  0.97367  0.96461  1.0000
  H   H2108     1.0  0.89389  0.73323  0.76112  1.0000
  H   H2109     1.0  0.99701  0.77089  0.52554  1.0000
  C   C1227     1.0  0.54604  0.94729  0.63080  1.0000
  H   H2110     1.0  0.69092  0.97331  0.92763  1.0000
  C   C1228     1.0  0.61571  0.97292  0.85668  1.0000
  C   C1229     1.0  0.52019  0.87286  0.92351  1.0000
  C   C1230     1.0  0.51687  0.92826  0.94468  1.0000
  C   C1231     1.0  0.62975  0.97974  0.88518  1.0000
  H   H2111     1.0  0.53727  0.90451  0.67882  1.0000
  C   C1232     1.0  0.70165  0.73077  0.66513  1.0000
  H   H2112     1.0  0.54031  0.98036  0.73982  1.0000
