data_image0
_chemical_formula_structural       FeS2FeS2FeSFeS3FeS2FeS2FeSFeS3HFeSFeHSH5C6H4C6H5C3H3C6H4C2HSCH5CNCHC3HCH4CH2CHCH4CH4CSNC8HSH3NH8C2H10FeCSHCSHCH6C3HCH3CH4SCHNC8H20NC8H20SNC4H4CH7SHC2HCH4CHC2H5CHCH2CH5CH3FeS2FeS2FeSFeS3HCH3FeS2HCHCHC4FeCSC2HCH2C6H5CH8CHCHC3NH5CH7CH2CH3CH2CFeC2H4CH2NCH3CHCHCH2CH2SC2NH2C2HCH2CHCHC3H3CHCH2CH5FeH3SCH2NCH2CH2SCH3C2HCHCHCH2C2H3CH4CH2FeS2FeSCFeSFeS3HFeSFeS2FeS2FeSFeS3FeS2C2H2C6H4SHC6H4C6H4C2H2CH2C2H2CH3CH11NHCH6CH3CHC2HCS2H3C2H4SCHNC2H2C2HFeH5NC8H22C2H2CH4CNH7CH2FeNHCH2CSH9CH12SH2C3HCH6CHNC6SC2HC3HCH4CHSH2C2H3C2H3CH3C4HC2HC2H2SFeSHFeHC2SCH2FeS2FeS2FeSFeS3H2SHSH3SNCH2NC2NSC2H2C2H2CH2C6H6FeCH5CHC4HCHC4H2FeC2H5SC2H3CH2CH3CH2CH2C2HCH2CH5C2H8CSCH2C2H2CFeCHCHNH3CH3SFeS2FeS2FeSFeS3FeS2FeS2FeSFeS3FeS2H2FeSHCNHC2H2CH6CH3C6H6C7H4C2H2NHC6H7C3H5CH2C2H2C2H2CH7CH6NC4HC3H6CHC2H11CH2SHCHCH4C2HSNC4HC2H11CHNHC2H3CH4C2H8CHC2NC2H2CHCH2CHNH3CFeH4CH2C4H3CH2SCH2FeH6CHFeHCHSH3CH3C3HC2H3CHC2FeS2FeS2FeSFeS3H2S2CFeS2FeS2FeSFeS3H2SHC3H2CHC2H6NHC6H6CHC2H3SC3HCH2C6H7C6H4C3HSH3CHCHNH6SNFeH3CH2CH3C2H6CH3NC8H19C2H2CHCSH2CFeHCH2C2H8CHC5H2CSHFeS2FeS2FeSFeS3FeS2FeS2FeSFeS3FeS2CHC2H3SHC3HC4H4C6H5C4H2C6H4C5H2CH2C6H6CHCNC8H8CH11CHSH3CH2NH2CH2FeHCH3C2H7CH8CH3CHCH4CH4NC8H20NC2HC3H5CH7CNC4HC2H4CHNHCHC2H2FeH2CH3C2FeS2FeS2FeSFeS3HS2CFeS2FeS2FeSFeS3HCSCHCH3C6H2C6H5CSH5NH5CH3C7H4C6H5C4HCH2C2H2CH3NC8H21CHCH6C3H5C2HCH11CH2CHCHFeHC2H3NCH5CHCHNHC3H2C3H9C2HCHCH7CH2C2H2CNCH2CHCH4CSHCH4C3HCHCH2CHCH2NH2C2H4CH2NCH2FeHCHCH10C2H3FeH2CHCH2FeS2CHFeSFeSH3CFeS2FeS2FeHFeHS2C3H9C7H4C3H5C4H6CH2CH4SC2HSNC2H2CSHCH2SHC2H5CH3CSC7HCH4C2HCH2NH4CH3CH2NH2CHC2FeCH2FeHC2HCFeSFeS2Fe2HS2FeSHCFeS2FeS2FeSFeS3CFeHFeS2CH4CH4C2HCHC3H2CH2C6H5C7H5FeC6H4CH4CNH2CHSFeC2NSH2NC8H17SH4CH4SH3CHCHSCHNC2H2CH8C3HSCHNC2HC2HCHCH2C3H2CH2NH3CHCH3C2H15C2HC5H3NH4SH8CH2CH3CHC2NH3CH4CHCH2CHCH3CHC2H3C2H3CSH2SHSHCH2NH3CHCHCH2SH2FeSFeSCHSH3FeS2FeS2FeCFeHS2HCFeCH2C5HC7H4C3HCSH3SCH4NC6H4CH12CHC2HCSH3SHC2H2CH8FeHC2NCHNCSHSH4SFeSFeSFeS2FeSHFeS2FeS2FeSFeS3HCSFeS2H2CHCH2CHCHNHC6H4FeC7H9C7H4C2HC2HNH9CHSHSHFeSCHSCH3CH3NCH3FeHC6HC2H4CHC5H2C2H2SH2NC8H23CHNHSH4CHCH3SHCH2CH7FeSH4CH4CH3CHC4H2CH3SH4CHSH2CHCHCH2CH4C3HCHC3H7C
_chemical_formula_sum              "Fe128 S256 H1536 C896 N64"
_cell_length_a       83.4348
_cell_length_b       41.9029
_cell_length_c       47.7287
_cell_angle_alpha    90.1693
_cell_angle_beta     89.8068
_cell_angle_gamma    90.3607

_space_group_name_H-M_alt    "P 1"
_space_group_IT_number       1

loop_
  _space_group_symop_operation_xyz
  'x, y, z'

loop_
  _atom_site_type_symbol
  _atom_site_label
  _atom_site_symmetry_multiplicity
  _atom_site_fract_x
  _atom_site_fract_y
  _atom_site_fract_z
  _atom_site_occupancy
  Fe  Fe1       1.0  0.03643  0.14586  0.13281  1.0000
  S   S1        1.0  0.01626  0.17685  0.11710  1.0000
  S   S2        1.0  0.06068  0.16275  0.15257  1.0000
  Fe  Fe2       1.0  0.01484  0.08448  0.12895  1.0000
  S   S3        1.0  0.99377  0.11284  0.11402  1.0000
  S   S4        1.0  0.00621  0.03325  0.13669  1.0000
  Fe  Fe3       1.0  0.01091  0.13779  0.08487  1.0000
  S   S5        1.0  0.00729  0.13826  0.03630  1.0000
  Fe  Fe4       1.0  0.00063  0.14853  0.14732  1.0000
  S   S6        1.0  0.17143  0.34411  0.47524  1.0000
  S   S7        1.0  0.03215  0.10815  0.09906  1.0000
  S   S8        1.0  0.02066  0.11908  0.16372  1.0000
  Fe  Fe5       1.0  0.13461  0.29102  0.20287  1.0000
  S   S9        1.0  0.13147  0.31427  0.24534  1.0000
  S   S10       1.0  0.11298  0.27492  0.17524  1.0000
  Fe  Fe6       1.0  0.17177  0.30214  0.20438  1.0000
  S   S11       1.0  0.17075  0.32543  0.24649  1.0000
  S   S12       1.0  0.19542  0.29547  0.18010  1.0000
  Fe  Fe7       1.0  0.15329  0.28674  0.25783  1.0000
  S   S13       1.0  0.15701  0.26045  0.29850  1.0000
  Fe  Fe8       1.0  0.14916  0.35178  0.23081  1.0000
  S   S14       1.0  0.14780  0.40271  0.24801  1.0000
  S   S15       1.0  0.15557  0.26099  0.21657  1.0000
  S   S16       1.0  0.15107  0.33093  0.18735  1.0000
  H   H1        1.0  0.23379  0.37627  0.15869  1.0000
  Fe  Fe9       1.0  0.15071  0.32350  0.45120  1.0000
  S   S17       1.0  0.14490  0.34227  0.40805  1.0000
  Fe  Fe10      1.0  0.29416  0.30244  0.21842  1.0000
  H   H2        1.0  0.30276  0.29756  0.30286  1.0000
  S   S18       1.0  0.26714  0.30375  0.22938  1.0000
  H   H3        1.0  0.15273  0.44524  0.36251  1.0000
  H   H4        1.0  0.27782  0.44742  0.16928  1.0000
  H   H5        1.0  0.02889  0.19599  0.17780  1.0000
  H   H6        1.0  0.98482  0.09794  0.18961  1.0000
  H   H7        1.0  0.02929  0.25174  0.25378  1.0000
  C   C1        1.0  0.21532  0.29779  0.19411  1.0000
  C   C2        1.0  0.21824  0.30490  0.22233  1.0000
  C   C3        1.0  0.23412  0.30648  0.23256  1.0000
  C   C4        1.0  0.24739  0.30097  0.21488  1.0000
  C   C5        1.0  0.24450  0.29394  0.18662  1.0000
  C   C6        1.0  0.22860  0.29245  0.17635  1.0000
  H   H8        1.0  0.20825  0.30894  0.23635  1.0000
  H   H9        1.0  0.23613  0.31178  0.25446  1.0000
  H   H10       1.0  0.25450  0.28952  0.17269  1.0000
  H   H11       1.0  0.22656  0.28687  0.15451  1.0000
  C   C7        1.0  0.15245  0.28162  0.32940  1.0000
  C   C8        1.0  0.14306  0.30909  0.32855  1.0000
  C   C9        1.0  0.14015  0.32651  0.35319  1.0000
  C   C10       1.0  0.14693  0.31707  0.37868  1.0000
  C   C11       1.0  0.15608  0.28926  0.37971  1.0000
  C   C12       1.0  0.15875  0.27145  0.35510  1.0000
  H   H12       1.0  0.13801  0.31688  0.30890  1.0000
  H   H13       1.0  0.13270  0.34749  0.35245  1.0000
  H   H14       1.0  0.16131  0.28176  0.39931  1.0000
  H   H15       1.0  0.16595  0.25009  0.35585  1.0000
  H   H16       1.0  0.20253  0.39846  0.30125  1.0000
  C   C13       1.0  0.14363  0.46750  0.24434  1.0000
  C   C14       1.0  0.14486  0.43871  0.22924  1.0000
  C   C15       1.0  0.14395  0.43951  0.20000  1.0000
  H   H17       1.0  0.29380  0.36692  0.15084  1.0000
  H   H18       1.0  0.14402  0.46712  0.26696  1.0000
  H   H19       1.0  0.14479  0.41754  0.18813  1.0000
  C   C16       1.0  0.07512  0.19434  0.15841  1.0000
  C   C17       1.0  0.07449  0.22379  0.14459  1.0000
  C   C18       1.0  0.08601  0.24800  0.15027  1.0000
  C   C19       1.0  0.09832  0.24361  0.17009  1.0000
  C   C20       1.0  0.09885  0.21430  0.18417  1.0000
  C   C21       1.0  0.08743  0.18995  0.17825  1.0000
  H   H20       1.0  0.06517  0.22787  0.12933  1.0000
  H   H21       1.0  0.08538  0.27039  0.13910  1.0000
  H   H22       1.0  0.10812  0.21025  0.19951  1.0000
  H   H23       1.0  0.08811  0.16748  0.18928  1.0000
  C   C22       1.0  0.02685  0.12361  0.45798  1.0000
  C   C23       1.0  0.98950  0.14028  0.25916  1.0000
  H   H24       1.0  0.03933  0.01346  0.12515  1.0000
  S   S19       1.0  0.30792  0.30978  0.17805  1.0000
  C   C24       1.0  0.99170  0.14599  0.23025  1.0000
  H   H25       1.0  0.00300  0.14024  0.22034  1.0000
  H   H26       1.0  0.05186  0.22121  0.19042  1.0000
  H   H27       1.0  0.19499  0.27151  0.42652  1.0000
  H   H28       1.0  0.01992  0.26695  0.22408  1.0000
  H   H29       1.0  0.17903  0.32233  0.30832  1.0000
  C   C25       1.0  0.99261  0.14060  0.00856  1.0000
  N   N1        1.0  0.03109  0.22052  0.21777  1.0000
  C   C26       1.0  0.00481  0.04628  0.20914  1.0000
  H   H30       1.0  0.19079  0.45102  0.29389  1.0000
  C   C27       1.0  0.03525  0.19247  0.23599  1.0000
  C   C28       1.0  0.02200  0.24417  0.23544  1.0000
  C   C29       1.0  0.00511  0.15810  0.42093  1.0000
  H   H31       1.0  0.28629  0.28869  0.34563  1.0000
  C   C30       1.0  0.04594  0.16697  0.22222  1.0000
  H   H32       1.0  0.27440  0.37893  0.13990  1.0000
  H   H33       1.0  0.99765  0.25256  0.25070  1.0000
  H   H34       1.0  0.06366  0.22580  0.23931  1.0000
  H   H35       1.0  0.28754  0.35801  0.40329  1.0000
  C   C31       1.0  0.98961  0.05541  0.22577  1.0000
  H   H36       1.0  0.04119  0.20045  0.25567  1.0000
  H   H37       1.0  0.02415  0.17986  0.24302  1.0000
  C   C32       1.0  0.03192  0.99239  0.12774  1.0000
  H   H38       1.0  0.25377  0.47422  0.18613  1.0000
  C   C33       1.0  0.04591  0.23663  0.20624  1.0000
  H   H39       1.0  0.01226  0.19075  0.19985  1.0000
  H   H40       1.0  0.06909  0.25737  0.21633  1.0000
  H   H41       1.0  0.28582  0.44355  0.20312  1.0000
  H   H42       1.0  0.25911  0.46737  0.22240  1.0000
  C   C34       1.0  0.14172  0.46881  0.18609  1.0000
  H   H43       1.0  0.04801  0.14741  0.23740  1.0000
  H   H44       1.0  0.05787  0.17651  0.21615  1.0000
  H   H45       1.0  0.04011  0.15611  0.20367  1.0000
  H   H46       1.0  0.06470  0.18788  0.44111  1.0000
  C   C35       1.0  0.02124  0.20887  0.19327  1.0000
  S   S20       1.0  0.13248  0.33393  0.48449  1.0000
  N   N2        1.0  0.17374  0.40250  0.32824  1.0000
  C   C36       1.0  0.16133  0.39703  0.35094  1.0000
  C   C37       1.0  0.17352  0.37301  0.30993  1.0000
  C   C38       1.0  0.16837  0.43093  0.31144  1.0000
  C   C39       1.0  0.18974  0.40852  0.34192  1.0000
  C   C40       1.0  0.26382  0.47026  0.20085  1.0000
  C   C41       1.0  0.18087  0.34271  0.32294  1.0000
  C   C42       1.0  0.17911  0.44147  0.28672  1.0000
  C   C43       1.0  0.20487  0.40581  0.32311  1.0000
  H   H47       1.0  0.01532  0.04743  0.22333  1.0000
  S   S21       1.0  0.30618  0.34377  0.24039  1.0000
  H   H48       1.0  0.17976  0.37668  0.28973  1.0000
  H   H49       1.0  0.16100  0.36700  0.30349  1.0000
  H   H50       1.0  0.15612  0.42652  0.30294  1.0000
  N   N3        1.0  0.02672  0.15965  0.46005  1.0000
  H   H51       1.0  0.03836  0.16519  0.41984  1.0000
  H   H52       1.0  0.19141  0.39178  0.35980  1.0000
  H   H53       1.0  0.28580  0.39818  0.24243  1.0000
  H   H54       1.0  0.05438  0.26473  0.24271  1.0000
  H   H55       1.0  0.15137  0.41121  0.47469  1.0000
  H   H56       1.0  0.00110  0.16493  0.46491  1.0000
  H   H57       1.0  0.17516  0.33580  0.34296  1.0000
  H   H58       1.0  0.05940  0.16915  0.47252  1.0000
  C   C44       1.0  0.14806  0.46217  0.47122  1.0000
  C   C45       1.0  0.01554  0.99559  0.13321  1.0000
  H   H59       1.0  0.21135  0.42905  0.32248  1.0000
  H   H60       1.0  0.00423  0.02158  0.20081  1.0000
  H   H61       1.0  0.03643  0.21975  0.48393  1.0000
  H   H62       1.0  0.00731  0.06310  0.19184  1.0000
  H   H63       1.0  0.14941  0.39160  0.34152  1.0000
  H   H64       1.0  0.00288  0.24648  0.18963  1.0000
  H   H65       1.0  0.27510  0.36028  0.19026  1.0000
  H   H66       1.0  0.99920  0.13035  0.27124  1.0000
  H   H67       1.0  0.26969  0.40101  0.26686  1.0000
  H   H68       1.0  0.28983  0.40828  0.14779  1.0000
  Fe  Fe11      1.0  0.30482  0.29603  0.44687  1.0000
  C   C46       1.0  0.03827  0.10555  0.47770  1.0000
  S   S22       1.0  0.29416  0.28702  0.40403  1.0000
  H   H69       1.0  0.99331  0.16877  0.41582  1.0000
  C   C47       1.0  0.27423  0.41003  0.24644  1.0000
  S   S23       1.0  0.98180  0.16831  0.17801  1.0000
  H   H70       1.0  0.98907  0.07987  0.48412  1.0000
  C   C48       1.0  0.97653  0.07791  0.18440  1.0000
  H   H71       1.0  0.29046  0.38817  0.19758  1.0000
  H   H72       1.0  0.03844  0.07996  0.47157  1.0000
  H   H73       1.0  0.25062  0.41554  0.22892  1.0000
  H   H74       1.0  0.97966  0.01429  0.18486  1.0000
  H   H75       1.0  0.15041  0.41572  0.38884  1.0000
  H   H76       1.0  0.98246  0.06497  0.16691  1.0000
  C   C49       1.0  0.05712  0.16831  0.44975  1.0000
  C   C50       1.0  0.97799  0.15668  0.01144  1.0000
  C   C51       1.0  0.00591  0.23211  0.24785  1.0000
  H   H77       1.0  0.06141  0.14530  0.44097  1.0000
  C   C52       1.0  0.01230  0.23488  0.17680  1.0000
  H   H78       1.0  0.24309  0.42444  0.18247  1.0000
  H   H79       1.0  0.19395  0.34501  0.32605  1.0000
  H   H80       1.0  0.00311  0.13189  0.42118  1.0000
  C   C53       1.0  0.28440  0.38520  0.15413  1.0000
  H   H81       1.0  0.14082  0.46915  0.16349  1.0000
  H   H82       1.0  0.99205  0.07901  0.23565  1.0000
  H   H83       1.0  0.25863  0.37672  0.22592  1.0000
  H   H84       1.0  0.27638  0.43602  0.24892  1.0000
  S   S24       1.0  0.15448  0.27341  0.46603  1.0000
  C   C54       1.0  0.15868  0.42444  0.37216  1.0000
  H   H85       1.0  0.14852  0.46184  0.44861  1.0000
  N   N4        1.0  0.14715  0.22595  0.12904  1.0000
  C   C55       1.0  0.15547  0.25504  0.14111  1.0000
  C   C56       1.0  0.14166  0.20585  0.15353  1.0000
  C   C57       1.0  0.13294  0.23749  0.11234  1.0000
  C   C58       1.0  0.15896  0.20878  0.11050  1.0000
  C   C59       1.0  0.16080  0.28086  0.11996  1.0000
  C   C60       1.0  0.15507  0.18970  0.17051  1.0000
  C   C61       1.0  0.11922  0.21348  0.10657  1.0000
  C   C62       1.0  0.15377  0.17593  0.09883  1.0000
  H   H86       1.0  0.14751  0.26718  0.15655  1.0000
  H   H87       1.0  0.16647  0.24847  0.15280  1.0000
  H   H88       1.0  0.13349  0.18626  0.14712  1.0000
  H   H89       1.0  0.13439  0.22045  0.16835  1.0000
  H   H90       1.0  0.12711  0.25806  0.12308  1.0000
  H   H91       1.0  0.13689  0.24680  0.09160  1.0000
  H   H92       1.0  0.16196  0.22348  0.09182  1.0000
  H   H93       1.0  0.17073  0.20592  0.12116  1.0000
  H   H94       1.0  0.15052  0.29144  0.10873  1.0000
  H   H95       1.0  0.16669  0.30066  0.13171  1.0000
  H   H96       1.0  0.16984  0.27188  0.10487  1.0000
  H   H97       1.0  0.16162  0.17179  0.15780  1.0000
  H   H98       1.0  0.16373  0.20694  0.17955  1.0000
  H   H99       1.0  0.14955  0.17677  0.18844  1.0000
  H   H100      1.0  0.11251  0.20749  0.12597  1.0000
  H   H101      1.0  0.12325  0.19140  0.09615  1.0000
  H   H102      1.0  0.11038  0.22483  0.09242  1.0000
  H   H103      1.0  0.14820  0.17845  0.07785  1.0000
  H   H104      1.0  0.14551  0.16255  0.11267  1.0000
  H   H105      1.0  0.16449  0.16049  0.09667  1.0000
  N   N5        1.0  0.23524  0.29058  0.41089  1.0000
  C   C63       1.0  0.22070  0.27080  0.41889  1.0000
  C   C64       1.0  0.24904  0.26784  0.40704  1.0000
  C   C65       1.0  0.23155  0.30714  0.38357  1.0000
  C   C66       1.0  0.23815  0.31454  0.43401  1.0000
  C   C67       1.0  0.20458  0.28876  0.42056  1.0000
  C   C68       1.0  0.25487  0.25091  0.43373  1.0000
  C   C69       1.0  0.24591  0.31828  0.36550  1.0000
  C   C70       1.0  0.25374  0.33444  0.43260  1.0000
  H   H106      1.0  0.21896  0.25065  0.40387  1.0000
  H   H107      1.0  0.22227  0.25955  0.43975  1.0000
  H   H108      1.0  0.25980  0.27977  0.39823  1.0000
  H   H109      1.0  0.24593  0.24912  0.39129  1.0000
  H   H110      1.0  0.22440  0.29110  0.36960  1.0000
  H   H111      1.0  0.22391  0.32844  0.38734  1.0000
  H   H112      1.0  0.22825  0.33215  0.43502  1.0000
  H   H113      1.0  0.23762  0.30310  0.45496  1.0000
  H   H114      1.0  0.20100  0.29913  0.40019  1.0000
  H   H115      1.0  0.18077  0.42266  0.27066  1.0000
  H   H116      1.0  0.21330  0.38821  0.33214  1.0000
  H   H117      1.0  0.24556  0.23517  0.44299  1.0000
  H   H118      1.0  0.26520  0.23550  0.42817  1.0000
  H   H119      1.0  0.25931  0.26823  0.44954  1.0000
  H   H120      1.0  0.24145  0.33347  0.34818  1.0000
  H   H121      1.0  0.25199  0.29765  0.35546  1.0000
  H   H122      1.0  0.25480  0.33253  0.37731  1.0000
  H   H123      1.0  0.25191  0.35685  0.42072  1.0000
  H   H124      1.0  0.26407  0.32143  0.42379  1.0000
  H   H125      1.0  0.25746  0.34076  0.45429  1.0000
  S   S25       1.0  0.30064  0.26218  0.48262  1.0000
  N   N6        1.0  0.26697  0.40935  0.19376  1.0000
  C   C71       1.0  0.26178  0.40246  0.22347  1.0000
  C   C72       1.0  0.25248  0.40766  0.17505  1.0000
  C   C73       1.0  0.27440  0.44214  0.19131  1.0000
  C   C74       1.0  0.27929  0.38492  0.18527  1.0000
  H   H126      1.0  0.03786  0.20047  0.43924  1.0000
  H   H127      1.0  0.28701  0.39603  0.41941  1.0000
  H   H128      1.0  0.16440  0.37594  0.36385  1.0000
  H   H129      1.0  0.28820  0.39227  0.38166  1.0000
  C   C75       1.0  0.24420  0.37469  0.17307  1.0000
  H   H130      1.0  0.25551  0.41560  0.15342  1.0000
  H   H131      1.0  0.02958  0.11580  0.43616  1.0000
  H   H132      1.0  0.30561  0.43992  0.42873  1.0000
  H   H133      1.0  0.17316  0.46150  0.27577  1.0000
  H   H134      1.0  0.04271  0.25866  0.19463  1.0000
  H   H135      1.0  0.17757  0.47195  0.15969  1.0000
  H   H136      1.0  0.20464  0.30742  0.43708  1.0000
  S   S26       1.0  0.29471  0.33845  0.46924  1.0000
  H   H137      1.0  0.00776  0.22030  0.26840  1.0000
  C   C76       1.0  0.29249  0.38262  0.40173  1.0000
  C   C77       1.0  0.03951  0.17426  0.44166  1.0000
  H   H138      1.0  0.16988  0.43185  0.38282  1.0000
  C   C78       1.0  0.30626  0.29231  0.37406  1.0000
  H   H139      1.0  0.25222  0.35614  0.16438  1.0000
  H   H140      1.0  0.00596  0.22361  0.15888  1.0000
  H   H141      1.0  0.02061  0.25308  0.16810  1.0000
  H   H142      1.0  0.19003  0.43276  0.35150  1.0000
  C   C79       1.0  0.01067  0.17115  0.44966  1.0000
  H   H143      1.0  0.99945  0.21524  0.23399  1.0000
  C   C80       1.0  0.05880  0.24648  0.22777  1.0000
  C   C81       1.0  0.14973  0.43340  0.48599  1.0000
  H   H144      1.0  0.16744  0.45248  0.32491  1.0000
  H   H145      1.0  0.05075  0.11444  0.47682  1.0000
  H   H146      1.0  0.23943  0.36674  0.19362  1.0000
  H   H147      1.0  0.22849  0.23717  0.48880  1.0000
  H   H148      1.0  0.01344  0.16458  0.40372  1.0000
  C   C82       1.0  0.30839  0.29727  0.32325  1.0000
  H   H149      1.0  0.11473  0.47189  0.39711  1.0000
  C   C83       1.0  0.29909  0.29232  0.34749  1.0000
  H   H150      1.0  0.30241  0.47488  0.40800  1.0000
  H   H151      1.0  0.98882  0.03805  0.24331  1.0000
  C   C84       1.0  0.98496  0.10382  0.48838  1.0000
  H   H152      1.0  0.01046  0.19763  0.44795  1.0000
  H   H153      1.0  0.01473  0.11365  0.46279  1.0000
  H   H154      1.0  0.30232  0.40458  0.33590  1.0000
  H   H155      1.0  0.30183  0.36362  0.34899  1.0000
  H   H156      1.0  0.13413  0.48292  0.40922  1.0000
  C   C85       1.0  0.97938  0.15935  0.21437  1.0000
  H   H157      1.0  0.30177  0.43504  0.37346  1.0000
  H   H158      1.0  0.99740  0.12618  0.89410  1.0000
  H   H159      1.0  0.03956  0.16184  0.49981  1.0000
  Fe  Fe12      1.0  0.01760  0.12787  0.63407  1.0000
  S   S27       1.0  0.04267  0.11141  0.62332  1.0000
  S   S28       1.0  0.00441  0.11265  0.67441  1.0000
  Fe  Fe13      1.0  0.01196  0.15042  0.57379  1.0000
  S   S29       1.0  0.03630  0.13555  0.55871  1.0000
  S   S30       1.0  0.99423  0.17423  0.54480  1.0000
  Fe  Fe14      1.0  0.03189  0.09109  0.58404  1.0000
  S   S31       1.0  0.03817  0.04412  0.56285  1.0000
  Fe  Fe15      1.0  0.04548  0.15726  0.59857  1.0000
  S   S32       1.0  0.06929  0.18546  0.60080  1.0000
  S   S33       1.0  0.00680  0.10437  0.59575  1.0000
  S   S34       1.0  0.02118  0.17540  0.61255  1.0000
  H   H160      1.0  0.08009  0.04002  0.63035  1.0000
  C   C86       1.0  0.08077  0.11256  0.56739  1.0000
  H   H161      1.0  0.28601  0.18218  0.57169  1.0000
  H   H162      1.0  0.09034  0.33193  0.59209  1.0000
  H   H163      1.0  0.11390  0.09756  0.53515  1.0000
  Fe  Fe16      1.0  0.15343  0.35106  0.50971  1.0000
  S   S35       1.0  0.15165  0.39748  0.53434  1.0000
  S   S36       1.0  0.15742  0.30275  0.52967  1.0000
  H   H164      1.0  0.12279  0.37436  0.57320  1.0000
  C   C87       1.0  0.98899  0.10929  0.72547  1.0000
  H   H165      1.0  0.98829  0.11783  0.93963  1.0000
  C   C88       1.0  0.02345  0.19849  0.91953  1.0000
  H   H166      1.0  0.08585  0.08889  0.52674  1.0000
  C   C89       1.0  0.09112  0.10131  0.61444  1.0000
  C   C90       1.0  0.24958  0.29885  0.51787  1.0000
  C   C91       1.0  0.99906  0.02803  0.53467  1.0000
  C   C92       1.0  0.99069  0.12032  0.51203  1.0000
  Fe  Fe17      1.0  0.29207  0.30552  0.50582  1.0000
  C   C93       1.0  0.98541  0.12920  0.95928  1.0000
  S   S37       1.0  0.26893  0.30842  0.53134  1.0000
  C   C94       1.0  0.14713  0.46239  0.52962  1.0000
  C   C95       1.0  0.14935  0.43336  0.51527  1.0000
  H   H167      1.0  0.08607  0.38021  0.52869  1.0000
  C   C96       1.0  0.08075  0.31434  0.53121  1.0000
  H   H168      1.0  0.30526  0.19126  0.60765  1.0000
  H   H169      1.0  0.30645  0.41082  0.51915  1.0000
  C   C97       1.0  0.08179  0.20386  0.57477  1.0000
  C   C98       1.0  0.09610  0.21909  0.58321  1.0000
  C   C99       1.0  0.10650  0.23374  0.56353  1.0000
  C   C100      1.0  0.10273  0.23351  0.53496  1.0000
  C   C101      1.0  0.08846  0.21806  0.52649  1.0000
  C   C102      1.0  0.07807  0.20334  0.54618  1.0000
  H   H170      1.0  0.09921  0.21953  0.60520  1.0000
  H   H171      1.0  0.11747  0.24504  0.57048  1.0000
  H   H172      1.0  0.00074  0.04485  0.55249  1.0000
  H   H173      1.0  0.06715  0.19178  0.53924  1.0000
  H   H174      1.0  0.08047  0.29192  0.51868  1.0000
  C   C103      1.0  0.98574  0.15160  0.51727  1.0000
  H   H175      1.0  0.06515  0.08630  0.53809  1.0000
  H   H176      1.0  0.27791  0.23713  0.53085  1.0000
  H   H177      1.0  0.99344  0.23873  0.86208  1.0000
  H   H178      1.0  0.11547  0.12180  0.61285  1.0000
  H   H179      1.0  0.03317  0.03066  0.62219  1.0000
  H   H180      1.0  0.11780  0.41422  0.54055  1.0000
  H   H181      1.0  0.06965  0.12137  0.57770  1.0000
  H   H182      1.0  0.30433  0.30946  0.58472  1.0000
  C   C104      1.0  0.22088  0.31112  0.51460  1.0000
  H   H183      1.0  0.01511  0.21550  0.49170  1.0000
  C   C105      1.0  0.00937  0.13424  0.88679  1.0000
  H   H184      1.0  0.01421  0.23741  0.89482  1.0000
  C   C106      1.0  0.99815  0.12872  0.70738  1.0000
  C   C107      1.0  0.00210  0.15970  0.71620  1.0000
  C   C108      1.0  0.99713  0.17076  0.74287  1.0000
  N   N7        1.0  0.29931  0.22662  0.57652  1.0000
  H   H185      1.0  0.01441  0.18676  0.93306  1.0000
  H   H186      1.0  0.00915  0.17495  0.70261  1.0000
  H   H187      1.0  0.01929  0.23275  0.83605  1.0000
  H   H188      1.0  0.26873  0.19865  0.53229  1.0000
  H   H189      1.0  0.99237  0.23350  0.92418  1.0000
  C   C109      1.0  0.30312  0.21738  0.60621  1.0000
  H   H190      1.0  0.12781  0.09358  0.56274  1.0000
  H   H191      1.0  0.09982  0.14993  0.60359  1.0000
  H   H192      1.0  0.09898  0.43007  0.53026  1.0000
  H   H193      1.0  0.00040  0.19461  0.74951  1.0000
  H   H194      1.0  0.28926  0.20178  0.52196  1.0000
  H   H195      1.0  0.28188  0.20352  0.63088  1.0000
  H   H196      1.0  0.99202  0.17300  0.91580  1.0000
  C   C110      1.0  0.98805  0.15118  0.76098  1.0000
  H   H197      1.0  0.18251  0.46441  0.52496  1.0000
  H   H198      1.0  0.01977  0.16480  0.85563  1.0000
  C   C111      1.0  0.07543  0.37106  0.57929  1.0000
  H   H199      1.0  0.12616  0.30182  0.56875  1.0000
  H   H200      1.0  0.02810  0.21865  0.93239  1.0000
  H   H201      1.0  0.30650  0.28188  0.61274  1.0000
  C   C112      1.0  0.28009  0.21185  0.53627  1.0000
  H   H202      1.0  0.10600  0.31674  0.52250  1.0000
  H   H203      1.0  0.28251  0.24538  0.62297  1.0000
  C   C113      1.0  0.24652  0.26932  0.50513  1.0000
  Fe  Fe18      1.0  0.17419  0.29476  0.49288  1.0000
  C   C114      1.0  0.12522  0.32441  0.58083  1.0000
  C   C115      1.0  0.08148  0.03292  0.60806  1.0000
  H   H204      1.0  0.11756  0.32081  0.59957  1.0000
  H   H205      1.0  0.07948  0.10931  0.62354  1.0000
  H   H206      1.0  0.07636  0.39689  0.57455  1.0000
  H   H207      1.0  0.08538  0.21766  0.50449  1.0000
  C   C116      1.0  0.23664  0.31959  0.52271  1.0000
  H   H208      1.0  0.00222  0.23392  0.81364  1.0000
  H   H209      1.0  0.21107  0.32732  0.51846  1.0000
  N   N8        1.0  0.10170  0.35168  0.55501  1.0000
  C   C117      1.0  0.09806  0.32012  0.54106  1.0000
  H   H210      1.0  0.20525  0.48986  0.53903  1.0000
  H   H211      1.0  0.08827  0.13424  0.56501  1.0000
  H   H212      1.0  0.27400  0.21550  0.57975  1.0000
  C   C118      1.0  0.09212  0.35551  0.58173  1.0000
  H   H213      1.0  0.13753  0.33013  0.58823  1.0000
  C   C119      1.0  0.00834  0.21945  0.82983  1.0000
  H   H214      1.0  0.09582  0.08294  0.62894  1.0000
  C   C120      1.0  0.03791  0.00831  0.58237  1.0000
  H   H215      1.0  0.07302  0.12296  0.52495  1.0000
  H   H216      1.0  0.09880  0.37024  0.59735  1.0000
  C   C121      1.0  0.98395  0.12039  0.75203  1.0000
  H   H217      1.0  0.14672  0.46255  0.55227  1.0000
  H   H218      1.0  0.10140  0.05627  0.55738  1.0000
  S   S38       1.0  0.98218  0.16609  0.79453  1.0000
  C   C122      1.0  0.21782  0.28129  0.50238  1.0000
  C   C123      1.0  0.03520  0.00835  0.61129  1.0000
  N   N9        1.0  0.00286  0.19429  0.87856  1.0000
  H   H219      1.0  0.10173  0.41692  0.56574  1.0000
  H   H220      1.0  0.28349  0.26767  0.58120  1.0000
  C   C124      1.0  0.07605  0.10163  0.53762  1.0000
  C   C125      1.0  0.01687  0.21162  0.89165  1.0000
  H   H221      1.0  0.23878  0.34221  0.53308  1.0000
  C   C126      1.0  0.11512  0.09961  0.55825  1.0000
  H   H222      1.0  0.12672  0.35141  0.54270  1.0000
  H   H223      1.0  0.98895  0.03727  0.52215  1.0000
  C   C127      1.0  0.09891  0.37815  0.53425  1.0000
  H   H224      1.0  0.06489  0.06896  0.59521  1.0000
  C   C128      1.0  0.10467  0.41163  0.54356  1.0000
  H   H225      1.0  0.09376  0.02403  0.60411  1.0000
  C   C129      1.0  0.00797  0.16256  0.86642  1.0000
  C   C130      1.0  0.02728  0.20613  0.49588  1.0000
  C   C131      1.0  0.11933  0.35193  0.56214  1.0000
  H   H226      1.0  0.07467  0.04867  0.56741  1.0000
  H   H227      1.0  0.10061  0.29991  0.55533  1.0000
  H   H228      1.0  0.02725  0.21197  0.87696  1.0000
  C   C132      1.0  0.10299  0.12945  0.61700  1.0000
  H   H229      1.0  0.99936  0.15450  0.84995  1.0000
  C   C133      1.0  0.28469  0.20811  0.56733  1.0000
  H   H230      1.0  0.11360  0.12479  0.56454  1.0000
  H   H231      1.0  0.06766  0.35954  0.56349  1.0000
  C   C134      1.0  0.30751  0.28438  0.58968  1.0000
  H   H232      1.0  0.11124  0.06330  0.58979  1.0000
  H   H233      1.0  0.10268  0.13849  0.63891  1.0000
  H   H234      1.0  0.99918  0.10910  0.52591  1.0000
  H   H235      1.0  0.07260  0.31023  0.54927  1.0000
  H   H236      1.0  0.98588  0.08528  0.71899  1.0000
  Fe  Fe19      1.0  0.13742  0.28484  0.50162  1.0000
  H   H237      1.0  0.10511  0.37281  0.51402  1.0000
  H   H238      1.0  0.03347  0.18170  0.91566  1.0000
  H   H239      1.0  0.98545  0.20388  0.84600  1.0000
  S   S39       1.0  0.19828  0.26857  0.49219  1.0000
  C   C135      1.0  0.10404  0.07517  0.57324  1.0000
  H   H240      1.0  0.01468  0.11365  0.87544  1.0000
  H   H241      1.0  0.01871  0.15835  0.50306  1.0000
  N   N10       1.0  0.08857  0.08765  0.58548  1.0000
  C   C136      1.0  0.07680  0.06023  0.58811  1.0000
  H   H242      1.0  0.00735  0.11441  0.97945  1.0000
  H   H243      1.0  0.06916  0.36904  0.59979  1.0000
  C   C137      1.0  0.02824  0.16996  0.49024  1.0000
  H   H244      1.0  0.01026  0.02896  0.52217  1.0000
  H   H245      1.0  0.01164  0.19668  0.81946  1.0000
  S   S40       1.0  0.11511  0.25242  0.50899  1.0000
  C   C138      1.0  0.30580  0.46242  0.52132  1.0000
  H   H246      1.0  0.97709  0.10489  0.76571  1.0000
  H   H247      1.0  0.29563  0.23025  0.64865  1.0000
  H   H248      1.0  0.29604  0.26933  0.55178  1.0000
  C   C139      1.0  0.28995  0.22450  0.62820  1.0000
  C   C140      1.0  0.98908  0.18967  0.89870  1.0000
  H   H249      1.0  0.01708  0.13927  0.90502  1.0000
  C   C141      1.0  0.99670  0.21442  0.85472  1.0000
  H   H250      1.0  0.07622  0.33340  0.51740  1.0000
  C   C142      1.0  0.29586  0.26183  0.57411  1.0000
  H   H251      1.0  0.02957  0.21052  0.51851  1.0000
  C   C143      1.0  0.99618  0.12704  0.98215  1.0000
  H   H252      1.0  0.25621  0.25281  0.50167  1.0000
  H   H253      1.0  0.18023  0.48612  0.49260  1.0000
  C   C144      1.0  0.98279  0.22024  0.91301  1.0000
  C   C145      1.0  0.99574  0.99434  0.54648  1.0000
  H   H254      1.0  0.97657  0.23604  0.89803  1.0000
  H   H255      1.0  0.98530  0.99601  0.56099  1.0000
  H   H256      1.0  0.29668  0.46281  0.53748  1.0000
  C   C146      1.0  0.23074  0.26046  0.49785  1.0000
  H   H257      1.0  0.07311  0.01249  0.60474  1.0000
  H   H258      1.0  0.03386  0.10638  0.49968  1.0000
  H   H259      1.0  0.30826  0.16867  0.54750  1.0000
  H   H260      1.0  0.97879  0.17800  0.88786  1.0000
  C   C147      1.0  0.18897  0.47532  0.50694  1.0000
  H   H261      1.0  0.19436  0.45493  0.49544  1.0000
  H   H262      1.0  0.98491  0.99679  0.49013  1.0000
  Fe  Fe20      1.0  0.00688  0.80352  0.08720  1.0000
  S   S41       1.0  0.03297  0.81057  0.09877  1.0000
  S   S42       1.0  0.00314  0.80023  0.03864  1.0000
  Fe  Fe21      1.0  0.99708  0.80835  0.15049  1.0000
  S   S43       1.0  0.02241  0.81670  0.16520  1.0000
  C   C148      1.0  0.21226  0.63909  0.48262  1.0000
  Fe  Fe22      1.0  0.02432  0.84936  0.12777  1.0000
  S   S44       1.0  0.03831  0.89612  0.12624  1.0000
  Fe  Fe23      1.0  0.02938  0.77722  0.13524  1.0000
  S   S45       1.0  0.04512  0.73389  0.14775  1.0000
  S   S46       1.0  0.99864  0.84402  0.11489  1.0000
  S   S47       1.0  0.00368  0.76706  0.12195  1.0000
  H   H263      1.0  0.13094  0.49475  0.35887  1.0000
  Fe  Fe24      1.0  0.15133  0.64172  0.44889  1.0000
  S   S48       1.0  0.15872  0.65939  0.40592  1.0000
  Fe  Fe25      1.0  0.13906  0.58254  0.20430  1.0000
  S   S49       1.0  0.15165  0.62305  0.18198  1.0000
  S   S50       1.0  0.13788  0.53393  0.18286  1.0000
  Fe  Fe26      1.0  0.13245  0.62357  0.25575  1.0000
  S   S51       1.0  0.14517  0.66605  0.23780  1.0000
  S   S52       1.0  0.11897  0.62584  0.29691  1.0000
  Fe  Fe27      1.0  0.13131  0.65419  0.19827  1.0000
  S   S53       1.0  0.11829  0.69577  0.17600  1.0000
  Fe  Fe28      1.0  0.16426  0.63148  0.22322  1.0000
  S   S54       1.0  0.19109  0.63109  0.23523  1.0000
  S   S55       1.0  0.11801  0.61276  0.21710  1.0000
  S   S56       1.0  0.15217  0.58974  0.24462  1.0000
  Fe  Fe29      1.0  0.28688  0.63368  0.20612  1.0000
  S   S57       1.0  0.28742  0.60925  0.24769  1.0000
  S   S58       1.0  0.26258  0.64439  0.18544  1.0000
  C   C149      1.0  0.01637  0.89018  0.05781  1.0000
  C   C150      1.0  0.01216  0.94130  0.03258  1.0000
  H   H264      1.0  0.14053  0.51867  0.24234  1.0000
  H   H265      1.0  0.15705  0.51561  0.37138  1.0000
  C   C151      1.0  0.21080  0.63570  0.22086  1.0000
  C   C152      1.0  0.22392  0.62397  0.23614  1.0000
  C   C153      1.0  0.23978  0.62657  0.22580  1.0000
  C   C154      1.0  0.24280  0.64087  0.19981  1.0000
  C   C155      1.0  0.22965  0.65235  0.18440  1.0000
  C   C156      1.0  0.21380  0.65001  0.19488  1.0000
  H   H266      1.0  0.22174  0.61257  0.25608  1.0000
  H   H267      1.0  0.24967  0.61738  0.23785  1.0000
  H   H268      1.0  0.23179  0.66356  0.16432  1.0000
  H   H269      1.0  0.20395  0.65962  0.18299  1.0000
  S   S59       1.0  0.26060  0.64272  0.46923  1.0000
  H   H270      1.0  0.22853  0.64447  0.44778  1.0000
  C   C157      1.0  0.14722  0.65199  0.37568  1.0000
  C   C158      1.0  0.15497  0.65082  0.34955  1.0000
  C   C159      1.0  0.14631  0.64384  0.32506  1.0000
  C   C160      1.0  0.12979  0.63848  0.32655  1.0000
  C   C161      1.0  0.12191  0.64084  0.35251  1.0000
  C   C162      1.0  0.13062  0.64735  0.37708  1.0000
  H   H271      1.0  0.16778  0.65480  0.34832  1.0000
  H   H272      1.0  0.15248  0.64210  0.30513  1.0000
  H   H273      1.0  0.10910  0.63700  0.35369  1.0000
  H   H274      1.0  0.12453  0.64880  0.39710  1.0000
  C   C163      1.0  0.06560  0.72399  0.15533  1.0000
  C   C164      1.0  0.07823  0.74602  0.15306  1.0000
  C   C165      1.0  0.09417  0.73683  0.15918  1.0000
  C   C166      1.0  0.09784  0.70555  0.16786  1.0000
  C   C167      1.0  0.08521  0.68346  0.17004  1.0000
  C   C168      1.0  0.06929  0.69261  0.16376  1.0000
  H   H275      1.0  0.07575  0.77020  0.14655  1.0000
  H   H276      1.0  0.10375  0.75421  0.15727  1.0000
  H   H277      1.0  0.08771  0.65928  0.17651  1.0000
  H   H278      1.0  0.05972  0.67520  0.16559  1.0000
  C   C169      1.0  0.02929  0.93413  0.12934  1.0000
  C   C170      1.0  0.01287  0.93737  0.13452  1.0000
  H   H279      1.0  0.21055  0.58035  0.19064  1.0000
  H   H280      1.0  0.25436  0.62543  0.29430  1.0000
  C   C171      1.0  0.12515  0.51151  0.37384  1.0000
  H   H281      1.0  0.00546  0.91633  0.13722  1.0000
  H   H282      1.0  0.17970  0.53616  0.46724  1.0000
  C   C172      1.0  0.00607  0.96796  0.13660  1.0000
  C   C173      1.0  0.07321  0.74822  0.46814  1.0000
  H   H283      1.0  0.28191  0.63623  0.36426  1.0000
  H   H284      1.0  0.99564  0.79776  0.22596  1.0000
  C   C174      1.0  0.02235  0.72948  0.05299  1.0000
  H   H285      1.0  0.00014  0.93583  0.47271  1.0000
  H   H286      1.0  0.26820  0.68441  0.37935  1.0000
  H   H287      1.0  0.98997  0.79182  0.27692  1.0000
  C   C175      1.0  0.98963  0.80079  0.00904  1.0000
  H   H288      1.0  0.23894  0.64110  0.39309  1.0000
  H   H289      1.0  0.97609  0.85819  0.32058  1.0000
  H   H290      1.0  0.03440  0.66562  0.03685  1.0000
  H   H291      1.0  0.12216  0.56004  0.33975  1.0000
  H   H292      1.0  0.98913  0.89010  0.31098  1.0000
  H   H293      1.0  0.16238  0.57364  0.40899  1.0000
  H   H294      1.0  0.02169  0.67252  0.07971  1.0000
  H   H295      1.0  0.27125  0.49241  0.20080  1.0000
  H   H296      1.0  0.00097  0.86493  0.01525  1.0000
  H   H297      1.0  0.02993  0.69303  0.99639  1.0000
  H   H298      1.0  0.05446  0.67956  0.04066  1.0000
  N   N11       1.0  0.00541  0.90858  0.03880  1.0000
  H   H299      1.0  0.18569  0.61041  0.17102  1.0000
  C   C176      1.0  0.27664  0.60409  0.33024  1.0000
  H   H300      1.0  0.06556  0.77070  0.05980  1.0000
  H   H301      1.0  0.04069  0.87358  0.06391  1.0000
  H   H302      1.0  0.19620  0.50952  0.45893  1.0000
  H   H303      1.0  0.98867  0.87130  0.26703  1.0000
  H   H304      1.0  0.05436  0.68138  0.10832  1.0000
  H   H305      1.0  0.06289  0.74365  0.03145  1.0000
  C   C177      1.0  0.03829  0.76612  0.46474  1.0000
  H   H306      1.0  0.00073  0.70257  0.06530  1.0000
  H   H307      1.0  0.28561  0.58730  0.33889  1.0000
  H   H308      1.0  0.24016  0.61878  0.34912  1.0000
  C   C178      1.0  0.04107  0.70122  0.00695  1.0000
  H   H309      1.0  0.06731  0.74020  0.44855  1.0000
  C   C179      1.0  0.19280  0.53442  0.46396  1.0000
  C   C180      1.0  0.97740  0.88472  0.32103  1.0000
  H   H310      1.0  0.03999  0.90978  0.04467  1.0000
  C   C181      1.0  0.05653  0.75540  0.04905  1.0000
  S   S60       1.0  0.30680  0.67250  0.29941  1.0000
  S   S61       1.0  0.12904  0.61524  0.46135  1.0000
  H   H311      1.0  0.15771  0.54419  0.32928  1.0000
  H   H312      1.0  0.04640  0.74438  0.08923  1.0000
  H   H313      1.0  0.28280  0.61694  0.31305  1.0000
  C   C182      1.0  0.22759  0.64091  0.47013  1.0000
  C   C183      1.0  0.00681  0.71103  0.04594  1.0000
  H   H314      1.0  0.03932  0.65218  0.11433  1.0000
  H   H315      1.0  0.03616  0.74003  0.46218  1.0000
  H   H316      1.0  0.23588  0.64731  0.29289  1.0000
  H   H317      1.0  0.23424  0.65775  0.33942  1.0000
  S   S62       1.0  0.30492  0.67192  0.21844  1.0000
  C   C184      1.0  0.05011  0.73079  0.07023  1.0000
  H   H318      1.0  0.23592  0.60685  0.30344  1.0000
  N   N12       1.0  0.13475  0.54201  0.37617  1.0000
  C   C185      1.0  0.24282  0.62954  0.30503  1.0000
  C   C186      1.0  0.14160  0.49679  0.23044  1.0000
  H   H319      1.0  0.19560  0.54895  0.44511  1.0000
  H   H320      1.0  0.98508  0.91338  0.26010  1.0000
  C   C187      1.0  0.26770  0.67462  0.32524  1.0000
  C   C188      1.0  0.25792  0.70398  0.31627  1.0000
  H   H321      1.0  0.24703  0.67219  0.41456  1.0000
  Fe  Fe30      1.0  0.28625  0.62971  0.48211  1.0000
  H   H322      1.0  0.27114  0.66204  0.30574  1.0000
  H   H323      1.0  0.27925  0.68378  0.33379  1.0000
  H   H324      1.0  0.25768  0.72242  0.33300  1.0000
  H   H325      1.0  0.18462  0.57426  0.20587  1.0000
  H   H326      1.0  0.24552  0.69774  0.31005  1.0000
  N   N13       1.0  0.09000  0.71708  0.25529  1.0000
  C   C189      1.0  0.09641  0.68384  0.25047  1.0000
  C   C190      1.0  0.10196  0.74021  0.24277  1.0000
  C   C191      1.0  0.07403  0.71938  0.24049  1.0000
  C   C192      1.0  0.08799  0.72174  0.28642  1.0000
  C   C193      1.0  0.08510  0.65603  0.25877  1.0000
  C   C194      1.0  0.11856  0.74142  0.25684  1.0000
  C   C195      1.0  0.06841  0.75277  0.23135  1.0000
  C   C196      1.0  0.08301  0.75524  0.29650  1.0000
  H   H327      1.0  0.09961  0.68029  0.22799  1.0000
  H   H328      1.0  0.10768  0.67997  0.26232  1.0000
  H   H329      1.0  0.09756  0.76508  0.24298  1.0000
  H   H330      1.0  0.10385  0.73474  0.22018  1.0000
  H   H331      1.0  0.07413  0.70502  0.22087  1.0000
  H   H332      1.0  0.06425  0.70886  0.25354  1.0000
  H   H333      1.0  0.07862  0.70530  0.29473  1.0000
  H   H334      1.0  0.09893  0.71447  0.29811  1.0000
  H   H335      1.0  0.07363  0.65628  0.24710  1.0000
  H   H336      1.0  0.09101  0.63311  0.25350  1.0000
  H   H337      1.0  0.08281  0.65538  0.28164  1.0000
  H   H338      1.0  0.11780  0.74874  0.27914  1.0000
  H   H339      1.0  0.12498  0.71851  0.25500  1.0000
  H   H340      1.0  0.12611  0.75947  0.24591  1.0000
  H   H341      1.0  0.05599  0.75082  0.22311  1.0000
  H   H342      1.0  0.07586  0.76204  0.21381  1.0000
  H   H343      1.0  0.06823  0.77025  0.24870  1.0000
  H   H344      1.0  0.06976  0.75770  0.29635  1.0000
  H   H345      1.0  0.08850  0.77488  0.28436  1.0000
  H   H346      1.0  0.08736  0.75892  0.31825  1.0000
  H   H347      1.0  0.20360  0.60974  0.14971  1.0000
  H   H348      1.0  0.15149  0.52285  0.40608  1.0000
  C   C197      1.0  0.98346  0.79946  0.23367  1.0000
  C   C198      1.0  0.25686  0.67256  0.37239  1.0000
  H   H349      1.0  0.20344  0.50822  0.14514  1.0000
  H   H350      1.0  0.21528  0.54408  0.48250  1.0000
  C   C199      1.0  0.27099  0.62629  0.35402  1.0000
  H   H351      1.0  0.07929  0.77147  0.46471  1.0000
  H   H352      1.0  0.02117  0.93342  0.47900  1.0000
  H   H353      1.0  0.98393  0.91977  0.35350  1.0000
  H   H354      1.0  0.98197  0.93011  0.04216  1.0000
  C   C200      1.0  0.25006  0.65453  0.39797  1.0000
  N   N14       1.0  0.03659  0.70931  0.06063  1.0000
  H   H355      1.0  0.10200  0.55064  0.39776  1.0000
  H   H356      1.0  0.02687  0.95095  0.07019  1.0000
  H   H357      1.0  0.24825  0.69214  0.36827  1.0000
  H   H358      1.0  0.13420  0.58737  0.39791  1.0000
  H   H359      1.0  0.20163  0.64123  0.46984  1.0000
  H   H360      1.0  0.98592  0.85914  0.05356  1.0000
  H   H361      1.0  0.02280  0.80889  0.46659  1.0000
  C   C201      1.0  0.04194  0.68768  0.03707  1.0000
  H   H362      1.0  0.16123  0.58185  0.37224  1.0000
  H   H363      1.0  0.01526  0.89049  0.99984  1.0000
  Fe  Fe31      1.0  0.14551  0.57864  0.48001  1.0000
  N   N15       1.0  0.25971  0.65286  0.34627  1.0000
  H   H364      1.0  0.25908  0.63842  0.40732  1.0000
  C   C202      1.0  0.24385  0.63970  0.33622  1.0000
  H   H365      1.0  0.26540  0.61010  0.36973  1.0000
  H   H366      1.0  0.18442  0.61424  0.13381  1.0000
  C   C203      1.0  0.03167  0.68900  0.08538  1.0000
  S   S63       1.0  0.30661  0.52786  0.24399  1.0000
  H   H367      1.0  0.99120  0.92253  0.07482  1.0000
  H   H368      1.0  0.22185  0.56781  0.14111  1.0000
  H   H369      1.0  0.06073  0.71670  0.07653  1.0000
  H   H370      1.0  0.97762  0.88286  0.23708  1.0000
  H   H371      1.0  0.10708  0.58207  0.37325  1.0000
  H   H372      1.0  0.17572  0.55466  0.38417  1.0000
  H   H373      1.0  0.17008  0.55224  0.18794  1.0000
  H   H374      1.0  0.04213  0.72741  0.00521  1.0000
  H   H375      1.0  0.99831  0.72742  0.03544  1.0000
  C   C204      1.0  0.14056  0.49758  0.20121  1.0000
  H   H376      1.0  0.01332  0.77241  0.47854  1.0000
  H   H377      1.0  0.00337  0.95576  0.02069  1.0000
  H   H378      1.0  0.17639  0.56075  0.14209  1.0000
  H   H379      1.0  0.02485  0.74527  0.03495  1.0000
  H   H380      1.0  0.00893  0.69063  0.03164  1.0000
  H   H381      1.0  0.17809  0.50225  0.21182  1.0000
  H   H382      1.0  0.26668  0.58920  0.32205  1.0000
  H   H383      1.0  0.22758  0.52927  0.15494  1.0000
  H   H384      1.0  0.19496  0.52265  0.22813  1.0000
  H   H385      1.0  0.97877  0.90234  0.99991  1.0000
  H   H386      1.0  0.17482  0.53354  0.23640  1.0000
  H   H387      1.0  0.01658  0.77885  0.44212  1.0000
  S   S64       1.0  0.14408  0.52662  0.46556  1.0000
  H   H388      1.0  0.21450  0.54065  0.20008  1.0000
  H   H389      1.0  0.19592  0.55887  0.12790  1.0000
  C   C205      1.0  0.12271  0.49267  0.40130  1.0000
  C   C206      1.0  0.17880  0.49704  0.15247  1.0000
  C   C207      1.0  0.05473  0.80684  0.48788  1.0000
  H   H390      1.0  0.01947  0.74624  0.07039  1.0000
  C   C208      1.0  0.24163  0.63853  0.48627  1.0000
  H   H391      1.0  0.12923  0.55482  0.41924  1.0000
  H   H392      1.0  0.26385  0.71514  0.29780  1.0000
  H   H393      1.0  0.11308  0.51615  0.36488  1.0000
  H   H394      1.0  0.04498  0.77301  0.44544  1.0000
  H   H395      1.0  0.14279  0.55607  0.30491  1.0000
  H   H396      1.0  0.23538  0.56529  0.16974  1.0000
  C   C209      1.0  0.16325  0.56279  0.38779  1.0000
  H   H397      1.0  0.10625  0.59007  0.40994  1.0000
  N   N16       1.0  0.19436  0.54578  0.17189  1.0000
  C   C210      1.0  0.21075  0.55565  0.18212  1.0000
  C   C211      1.0  0.18260  0.55076  0.19562  1.0000
  C   C212      1.0  0.18921  0.56558  0.14722  1.0000
  C   C213      1.0  0.97957  0.89479  0.35184  1.0000
  C   C214      1.0  0.22447  0.55421  0.16040  1.0000
  C   C215      1.0  0.18284  0.52561  0.21915  1.0000
  S   S65       1.0  0.29519  0.58415  0.46280  1.0000
  C   C216      1.0  0.13458  0.55831  0.34803  1.0000
  C   C217      1.0  0.20258  0.54759  0.48877  1.0000
  H   H398      1.0  0.05147  0.95944  0.12189  1.0000
  C   C218      1.0  0.10971  0.57187  0.39409  1.0000
  C   C219      1.0  0.03877  0.96175  0.12596  1.0000
  C   C220      1.0  0.15157  0.53415  0.38504  1.0000
  H   H399      1.0  0.02694  0.70420  0.10273  1.0000
  C   C221      1.0  0.03384  0.88653  0.04762  1.0000
  H   H400      1.0  0.05012  0.65128  0.08193  1.0000
  H   H401      1.0  0.13870  0.58337  0.34987  1.0000
  H   H402      1.0  0.14111  0.51760  0.32065  1.0000
  H   H403      1.0  0.03458  0.87205  0.02819  1.0000
  C   C222      1.0  0.04479  0.66742  0.09781  1.0000
  H   H404      1.0  0.98891  0.87953  0.36140  1.0000
  S   S66       1.0  0.16762  0.60352  0.46447  1.0000
  H   H405      1.0  0.99339  0.97022  0.14088  1.0000
  H   H406      1.0  0.02287  0.93978  0.01867  1.0000
  C   C223      1.0  0.00371  0.89055  0.01155  1.0000
  C   C224      1.0  0.14470  0.54268  0.32470  1.0000
  H   H407      1.0  0.30623  0.69103  0.35731  1.0000
  H   H408      1.0  0.17818  0.49750  0.12922  1.0000
  H   H409      1.0  0.01665  0.90092  0.07913  1.0000
  C   C225      1.0  0.01688  0.96166  0.05831  1.0000
  C   C226      1.0  0.98947  0.91241  0.05341  1.0000
  H   H410      1.0  0.97880  0.94200  0.30036  1.0000
  H   H411      1.0  0.06001  0.81087  0.46673  1.0000
  H   H412      1.0  0.04714  0.77175  0.04136  1.0000
  C   C227      1.0  0.97985  0.88902  0.25942  1.0000
  H   H413      1.0  0.98937  0.86249  0.47462  1.0000
  H   H414      1.0  0.05106  0.69109  0.99436  1.0000
  H   H415      1.0  0.01181  0.86553  0.06106  1.0000
  C   C228      1.0  0.12764  0.56419  0.39771  1.0000
  C   C229      1.0  0.19487  0.51135  0.16282  1.0000
  C   C230      1.0  0.98587  0.83839  0.48007  1.0000
  C   C231      1.0  0.97930  0.88159  0.05686  1.0000
  H   H416      1.0  0.08272  0.73058  0.47296  1.0000
  C   C232      1.0  0.02188  0.78276  0.46319  1.0000
  C   C233      1.0  0.19089  0.60200  0.15097  1.0000
  H   H417      1.0  0.00661  0.96604  0.07257  1.0000
  C   C234      1.0  0.99104  0.90330  0.99103  1.0000
  C   C235      1.0  0.98019  0.79602  0.26260  1.0000
  H   H418      1.0  0.19978  0.49582  0.17959  1.0000
  H   H419      1.0  0.16817  0.50964  0.16061  1.0000
  S   S67       1.0  0.30770  0.65895  0.46756  1.0000
  Fe  Fe32      1.0  0.30658  0.64463  0.25877  1.0000
  S   S68       1.0  0.30619  0.60252  0.18661  1.0000
  H   H420      1.0  0.11689  0.50696  0.41800  1.0000
  Fe  Fe33      1.0  0.30738  0.57973  0.22930  1.0000
  H   H421      1.0  0.02117  0.98543  0.05113  1.0000
  C   C236      1.0  0.14591  0.49123  0.48549  1.0000
  C   C237      1.0  0.97535  0.82139  0.46245  1.0000
  S   S69       1.0  0.15263  0.67088  0.48866  1.0000
  C   C238      1.0  0.98598  0.79956  0.95760  1.0000
  H   H422      1.0  0.23511  0.55659  0.55009  1.0000
  H   H423      1.0  0.99554  0.69026  0.76423  1.0000
  Fe  Fe34      1.0  0.01635  0.83003  0.56626  1.0000
  S   S70       1.0  0.04185  0.84613  0.57161  1.0000
  S   S71       1.0  0.00572  0.84634  0.52501  1.0000
  Fe  Fe35      1.0  0.01408  0.80647  0.62740  1.0000
  S   S72       1.0  0.03975  0.82028  0.63616  1.0000
  S   S73       1.0  0.99390  0.79181  0.65796  1.0000
  Fe  Fe36      1.0  0.03404  0.86565  0.61304  1.0000
  S   S74       1.0  0.03833  0.91463  0.63227  1.0000
  Fe  Fe37      1.0  0.04568  0.79897  0.59336  1.0000
  S   S75       1.0  0.06994  0.77620  0.58059  1.0000
  S   S76       1.0  0.00833  0.85284  0.60633  1.0000
  S   S77       1.0  0.02019  0.78190  0.58598  1.0000
  H   H424      1.0  0.14342  0.51337  0.52595  1.0000
  H   H425      1.0  0.98138  0.92847  0.71394  1.0000
  S   S78       1.0  0.10655  0.65816  0.52136  1.0000
  H   H426      1.0  0.03906  0.91103  0.69921  1.0000
  S   S79       1.0  0.19158  0.63279  0.52828  1.0000
  H   H427      1.0  0.04553  0.77616  0.53561  1.0000
  H   H428      1.0  0.99097  0.88782  0.97207  1.0000
  H   H429      1.0  0.06333  0.81461  0.53122  1.0000
  S   S80       1.0  0.14625  0.60289  0.52211  1.0000
  N   N17       1.0  0.00440  0.90666  0.70408  1.0000
  C   C239      1.0  0.99194  0.82436  0.50449  1.0000
  H   H430      1.0  0.00626  0.96946  0.72960  1.0000
  H   H431      1.0  0.01139  0.91637  0.54990  1.0000
  N   N18       1.0  0.99326  0.96823  0.52505  1.0000
  C   C240      1.0  0.21072  0.63532  0.51161  1.0000
  C   C241      1.0  0.06131  0.74923  0.49290  1.0000
  N   N19       1.0  0.19919  0.53323  0.51716  1.0000
  S   S81       1.0  0.98367  0.79707  0.79120  1.0000
  C   C242      1.0  0.24011  0.63414  0.51523  1.0000
  C   C243      1.0  0.22474  0.63283  0.52781  1.0000
  H   H432      1.0  0.25075  0.63254  0.52801  1.0000
  H   H433      1.0  0.22373  0.63004  0.55027  1.0000
  C   C244      1.0  0.03778  0.95022  0.61241  1.0000
  C   C245      1.0  0.98792  0.93833  0.54000  1.0000
  H   H434      1.0  0.01902  0.93562  0.67629  1.0000
  H   H435      1.0  0.04309  0.97906  0.54632  1.0000
  C   C246      1.0  0.04028  0.95017  0.58341  1.0000
  H   H436      1.0  0.06833  0.75314  0.51233  1.0000
  H   H437      1.0  0.04242  0.92785  0.57260  1.0000
  C   C247      1.0  0.07990  0.74275  0.56463  1.0000
  C   C248      1.0  0.09619  0.74574  0.55694  1.0000
  C   C249      1.0  0.10452  0.72042  0.54367  1.0000
  C   C250      1.0  0.09672  0.69143  0.53791  1.0000
  C   C251      1.0  0.08041  0.68849  0.54552  1.0000
  C   C252      1.0  0.07207  0.71380  0.55877  1.0000
  H   H438      1.0  0.10246  0.76787  0.56130  1.0000
  H   H439      1.0  0.11702  0.72328  0.53810  1.0000
  H   H440      1.0  0.07420  0.66623  0.54139  1.0000
  H   H441      1.0  0.05967  0.71072  0.56478  1.0000
  H   H442      1.0  0.02798  0.72429  0.50342  1.0000
  H   H443      1.0  0.04257  0.87714  0.72073  1.0000
  Fe  Fe38      1.0  0.13100  0.64193  0.50271  1.0000
  C   C253      1.0  0.98734  0.79319  0.51134  1.0000
  H   H444      1.0  0.99111  0.91080  0.64338  1.0000
  H   H445      1.0  0.97950  0.67989  0.80566  1.0000
  H   H446      1.0  0.20706  0.57487  0.54070  1.0000
  H   H447      1.0  0.01199  0.79755  0.75670  1.0000
  H   H448      1.0  0.01971  0.90463  0.74079  1.0000
  C   C254      1.0  0.98621  0.79853  0.75402  1.0000
  H   H449      1.0  0.02653  0.95470  0.72517  1.0000
  C   C255      1.0  0.00885  0.96299  0.50968  1.0000
  C   C256      1.0  0.99143  0.79607  0.69499  1.0000
  C   C257      1.0  0.00445  0.79706  0.71342  1.0000
  C   C258      1.0  0.00183  0.79787  0.74270  1.0000
  H   H450      1.0  0.18028  0.56746  0.52434  1.0000
  C   C259      1.0  0.99600  0.79936  0.98161  1.0000
  H   H451      1.0  0.01653  0.79607  0.70515  1.0000
  C   C260      1.0  0.00015  0.92380  0.56043  1.0000
  C   C261      1.0  0.01567  0.96305  0.71415  1.0000
  C   C262      1.0  0.03390  0.88783  0.70591  1.0000
  C   C263      1.0  0.99174  0.71054  0.77762  1.0000
  H   H452      1.0  0.16415  0.53401  0.55800  1.0000
  H   H453      1.0  0.02902  0.79118  0.51757  1.0000
  Fe  Fe39      1.0  0.16767  0.63021  0.50487  1.0000
  C   C264      1.0  0.02932  0.73952  0.52220  1.0000
  C   C265      1.0  0.01757  0.89140  0.72088  1.0000
  H   H454      1.0  0.99804  0.86008  0.68679  1.0000
  H   H455      1.0  0.99948  0.95003  0.68118  1.0000
  H   H456      1.0  0.99121  0.79816  0.93687  1.0000
  H   H457      1.0  0.99192  0.78220  0.53014  1.0000
  H   H458      1.0  0.05633  0.72465  0.49509  1.0000
  S   S82       1.0  0.29742  0.61952  0.52395  1.0000
  C   C266      1.0  0.21022  0.54930  0.53804  1.0000
  C   C267      1.0  0.18224  0.54122  0.52568  1.0000
  H   H459      1.0  0.03582  0.72556  0.53827  1.0000
  H   H460      1.0  0.01700  0.74408  0.53005  1.0000
  H   H461      1.0  0.98438  0.91933  0.52480  1.0000
  C   C268      1.0  0.00036  0.88498  0.67984  1.0000
  H   H462      1.0  0.03321  0.87141  0.68769  1.0000
  H   H463      1.0  0.01397  0.86691  0.72747  1.0000
  C   C269      1.0  0.03534  0.97945  0.62627  1.0000
  H   H464      1.0  0.20878  0.53860  0.55922  1.0000
  H   H465      1.0  0.21345  0.49255  0.50471  1.0000
  H   H466      1.0  0.01087  0.88247  0.66563  1.0000
  C   C270      1.0  0.06765  0.81670  0.50939  1.0000
  H   H467      1.0  0.00169  0.71526  0.79253  1.0000
  H   H468      1.0  0.03356  0.97981  0.64872  1.0000
  C   C271      1.0  0.03802  0.77167  0.51678  1.0000
  H   H469      1.0  0.07886  0.80288  0.50696  1.0000
  H   H470      1.0  0.23249  0.52349  0.52676  1.0000
  C   C272      1.0  0.97699  0.77598  0.49346  1.0000
  C   C273      1.0  0.00956  0.93851  0.69247  1.0000
  H   H471      1.0  0.17325  0.53105  0.51117  1.0000
  C   C274      1.0  0.17729  0.53095  0.55550  1.0000
  H   H472      1.0  0.97841  0.70151  0.72787  1.0000
  H   H473      1.0  0.99052  0.73246  0.76500  1.0000
  C   C275      1.0  0.04061  0.97918  0.56856  1.0000
  H   H474      1.0  0.99479  0.90185  0.56956  1.0000
  H   H475      1.0  0.00780  0.91116  0.50058  1.0000
  H   H476      1.0  0.99395  0.92350  0.74304  1.0000
  H   H477      1.0  0.30627  0.60348  0.58525  1.0000
  H   H478      1.0  0.00298  0.94000  0.57817  1.0000
  C   C276      1.0  0.14536  0.49123  0.51478  1.0000
  C   C277      1.0  0.22835  0.54800  0.53149  1.0000
  H   H479      1.0  0.07086  0.84219  0.50613  1.0000
  H   H480      1.0  0.18298  0.54645  0.57159  1.0000
  H   H481      1.0  0.01888  0.96008  0.52469  1.0000
  H   H482      1.0  0.01209  0.98428  0.49694  1.0000
  H   H483      1.0  0.01907  0.98537  0.70303  1.0000
  H   H484      1.0  0.23168  0.56435  0.51412  1.0000
  H   H485      1.0  0.00885  0.79787  0.97883  1.0000
  H   H486      1.0  0.97659  0.66045  0.71944  1.0000
  C   C278      1.0  0.99017  0.91168  0.72318  1.0000
  S   S83       1.0  0.30547  0.52787  0.52601  1.0000
  C   C279      1.0  0.98648  0.89577  0.66081  1.0000
  H   H487      1.0  0.97696  0.94291  0.55268  1.0000
  H   H488      1.0  0.98878  0.86441  0.74317  1.0000
  C   C280      1.0  0.98061  0.97719  0.50404  1.0000
  C   C281      1.0  0.20252  0.49782  0.51730  1.0000
  H   H489      1.0  0.18006  0.50560  0.55971  1.0000
  H   H490      1.0  0.97703  0.90905  0.67203  1.0000
  C   C282      1.0  0.98097  0.88128  0.73189  1.0000
  Fe  Fe40      1.0  0.30769  0.57554  0.50342  1.0000
  C   C283      1.0  0.97651  0.70226  0.79447  1.0000
  H   H491      1.0  0.98045  0.87431  0.65189  1.0000
  C   C284      1.0  0.97582  0.79719  0.70630  1.0000
  H   H492      1.0  0.99388  0.92789  0.98401  1.0000
  N   N20       1.0  0.04809  0.77337  0.49055  1.0000
  H   H493      1.0  0.97528  0.86916  0.71375  1.0000
  H   H494      1.0  0.00610  0.98884  0.56021  1.0000
  H   H495      1.0  0.97798  0.95684  0.48971  1.0000
  C   C285      1.0  0.00926  0.93417  0.48945  1.0000
  H   H496      1.0  0.20073  0.57391  0.48950  1.0000
  H   H497      1.0  0.04494  0.82467  0.48984  1.0000
  H   H498      1.0  0.40515  0.21496  0.02281  1.0000
  S   S84       1.0  0.61494  0.27258  0.42557  1.0000
  Fe  Fe41      1.0  0.54630  0.13079  0.37681  1.0000
  S   S85       1.0  0.52088  0.14947  0.37979  1.0000
  S   S86       1.0  0.56890  0.15160  0.39882  1.0000
  Fe  Fe42      1.0  0.53432  0.06506  0.35456  1.0000
  S   S87       1.0  0.50867  0.07986  0.35699  1.0000
  S   S88       1.0  0.53709  0.01535  0.33594  1.0000
  Fe  Fe43      1.0  0.51684  0.12565  0.33727  1.0000
  S   S89       1.0  0.49908  0.14344  0.30391  1.0000
  Fe  Fe44      1.0  0.51464  0.10172  0.39849  1.0000
  S   S90       1.0  0.50058  0.08484  0.43663  1.0000
  S   S91       1.0  0.54264  0.11011  0.33298  1.0000
  S   S92       1.0  0.53988  0.08375  0.39736  1.0000
  Fe  Fe45      1.0  0.42960  0.14803  0.13441  1.0000
  S   S93       1.0  0.45480  0.16446  0.12334  1.0000
  S   S94       1.0  0.41302  0.18789  0.15206  1.0000
  Fe  Fe46      1.0  0.43799  0.07891  0.11784  1.0000
  S   S95       1.0  0.46339  0.09122  0.10648  1.0000
  S   S96       1.0  0.42834  0.02979  0.10575  1.0000
  Fe  Fe47      1.0  0.46325  0.12074  0.14635  1.0000
  S   S97       1.0  0.48647  0.11917  0.17248  1.0000
  Fe  Fe48      1.0  0.45330  0.13376  0.08420  1.0000
  S   S98       1.0  0.46022  0.15354  0.04010  1.0000
  S   S99       1.0  0.43831  0.10540  0.15923  1.0000
  S   S100      1.0  0.42760  0.12036  0.09389  1.0000
  Fe  Fe49      1.0  0.32745  0.27781  0.19568  1.0000
  S   S101      1.0  0.34076  0.31870  0.21558  1.0000
  S   S102      1.0  0.34038  0.23635  0.17239  1.0000
  H   H499      1.0  0.49512  0.02330  0.39798  1.0000
  H   H500      1.0  0.34058  0.35890  0.41595  1.0000
  Fe  Fe50      1.0  0.32509  0.30933  0.25319  1.0000
  S   S103      1.0  0.33693  0.30940  0.29581  1.0000
  H   H501      1.0  0.51507  0.99379  0.29507  1.0000
  C   C286      1.0  0.33214  0.30150  0.35203  1.0000
  N   N21       1.0  0.35769  0.21087  0.25733  1.0000
  H   H502      1.0  0.37578  0.20135  0.22512  1.0000
  C   C287      1.0  0.32494  0.30203  0.32552  1.0000
  C   C288      1.0  0.61342  0.45311  0.42683  1.0000
  H   H503      1.0  0.35532  0.14261  0.24081  1.0000
  H   H504      1.0  0.51654  0.01599  0.39838  1.0000
  C   C289      1.0  0.32282  0.29682  0.37626  1.0000
  H   H505      1.0  0.47348  0.03028  0.29386  1.0000
  H   H506      1.0  0.51047  0.11517  0.04500  1.0000
  H   H507      1.0  0.32847  0.29651  0.39660  1.0000
  H   H508      1.0  0.35610  0.19330  0.21482  1.0000
  H   H509      1.0  0.61033  0.47096  0.44323  1.0000
  H   H510      1.0  0.33545  0.41889  0.42273  1.0000
  C   C290      1.0  0.49891  0.04557  0.28711  1.0000
  H   H511      1.0  0.31885  0.20516  0.28653  1.0000
  H   H512      1.0  0.51853  0.19891  0.47172  1.0000
  H   H513      1.0  0.30955  0.46359  0.26279  1.0000
  C   C291      1.0  0.39267  0.20097  0.15697  1.0000
  C   C292      1.0  0.38983  0.23109  0.16931  1.0000
  C   C293      1.0  0.37406  0.24263  0.17359  1.0000
  C   C294      1.0  0.36073  0.22419  0.16574  1.0000
  C   C295      1.0  0.36358  0.19423  0.15311  1.0000
  C   C296      1.0  0.37935  0.18271  0.14876  1.0000
  H   H514      1.0  0.39993  0.24569  0.17563  1.0000
  H   H515      1.0  0.37221  0.26584  0.18301  1.0000
  H   H516      1.0  0.35347  0.17958  0.14692  1.0000
  H   H517      1.0  0.38117  0.15955  0.13924  1.0000
  H   H518      1.0  0.52058  0.02768  0.44112  1.0000
  H   H519      1.0  0.44193  0.01182  0.15978  1.0000
  C   C297      1.0  0.60067  0.36406  0.42804  1.0000
  C   C298      1.0  0.49586  0.13589  0.26737  1.0000
  C   C299      1.0  0.48057  0.14141  0.25593  1.0000
  C   C300      1.0  0.47743  0.13627  0.22714  1.0000
  C   C301      1.0  0.48965  0.12605  0.20912  1.0000
  C   C302      1.0  0.50499  0.12076  0.22050  1.0000
  C   C303      1.0  0.50805  0.12536  0.24939  1.0000
  H   H520      1.0  0.47105  0.14977  0.26947  1.0000
  H   H521      1.0  0.46559  0.14057  0.21887  1.0000
  H   H522      1.0  0.51459  0.11304  0.20684  1.0000
  H   H523      1.0  0.51993  0.12138  0.25767  1.0000
  C   C304      1.0  0.48931  0.10763  0.46083  1.0000
  C   C305      1.0  0.48739  0.14060  0.45804  1.0000
  H   H524      1.0  0.49238  0.15270  0.44003  1.0000
  H   H525      1.0  0.42284  0.16021  0.46787  1.0000
  N   N22       1.0  0.50224  0.02160  0.26423  1.0000
  H   H526      1.0  0.55121  0.20670  0.47722  1.0000
  C   C306      1.0  0.60222  0.23855  0.41880  1.0000
  C   C307      1.0  0.60470  0.20863  0.43104  1.0000
  C   C308      1.0  0.59451  0.18247  0.42446  1.0000
  C   C309      1.0  0.58157  0.18566  0.40571  1.0000
  C   C310      1.0  0.57893  0.21570  0.39382  1.0000
  C   C311      1.0  0.58921  0.24178  0.40021  1.0000
  H   H527      1.0  0.61461  0.20551  0.44531  1.0000
  H   H528      1.0  0.59674  0.15950  0.43388  1.0000
  H   H529      1.0  0.56908  0.21879  0.37944  1.0000
  H   H530      1.0  0.58709  0.26465  0.39051  1.0000
  H   H531      1.0  0.51424  0.19052  0.43572  1.0000
  H   H532      1.0  0.38960  0.18263  0.29214  1.0000
  H   H533      1.0  0.39034  0.20791  0.26218  1.0000
  C   C312      1.0  0.48079  0.11361  0.00847  1.0000
  C   C313      1.0  0.47158  0.14151  0.00950  1.0000
  C   C314      1.0  0.34728  0.37842  0.40546  1.0000
  H   H534      1.0  0.48100  0.09802  0.02646  1.0000
  H   H535      1.0  0.61328  0.36208  0.36394  1.0000
  H   H536      1.0  0.47960  0.06401  0.31294  1.0000
  H   H537      1.0  0.60288  0.34231  0.41511  1.0000
  H   H538      1.0  0.33335  0.20582  0.24176  1.0000
  C   C315      1.0  0.33121  0.21520  0.28621  1.0000
  H   H539      1.0  0.45086  0.22077  0.06546  1.0000
  H   H540      1.0  0.35138  0.24881  0.22887  1.0000
  C   C316      1.0  0.51312  0.10549  0.10060  1.0000
  C   C317      1.0  0.31600  0.43472  0.22703  1.0000
  H   H541      1.0  0.58743  0.36753  0.42797  1.0000
  H   H542      1.0  0.50252  0.05773  0.10080  1.0000
  C   C318      1.0  0.31915  0.46330  0.18343  1.0000
  C   C319      1.0  0.52128  0.01085  0.45876  1.0000
  H   H543      1.0  0.50767  0.10675  0.12194  1.0000
  H   H544      1.0  0.51244  0.06751  0.06866  1.0000
  C   C320      1.0  0.37402  0.26263  0.24698  1.0000
  H   H545      1.0  0.49858  0.07033  0.27886  1.0000
  H   H546      1.0  0.41028  0.15510  0.04918  1.0000
  H   H547      1.0  0.54137  0.04687  0.24691  1.0000
  H   H548      1.0  0.41953  0.26152  0.45636  1.0000
  H   H549      1.0  0.37450  0.15115  0.25696  1.0000
  H   H550      1.0  0.35083  0.26004  0.26455  1.0000
  H   H551      1.0  0.36303  0.22447  0.29996  1.0000
  C   C321      1.0  0.36428  0.19165  0.23314  1.0000
  H   H552      1.0  0.31373  0.37399  0.31951  1.0000
  H   H553      1.0  0.49302  0.08408  0.07661  1.0000
  H   H554      1.0  0.35244  0.36981  0.38538  1.0000
  H   H555      1.0  0.43462  0.23106  0.45509  1.0000
  H   H556      1.0  0.31323  0.38585  0.42780  1.0000
  H   H557      1.0  0.35755  0.38453  0.41927  1.0000
  N   N23       1.0  0.51223  0.13748  0.08610  1.0000
  C   C322      1.0  0.32409  0.38960  0.35882  1.0000
  C   C323      1.0  0.52348  0.15994  0.10119  1.0000
  C   C324      1.0  0.51802  0.13292  0.05634  1.0000
  C   C325      1.0  0.49508  0.14877  0.08683  1.0000
  H   H558      1.0  0.32981  0.24136  0.28468  1.0000
  C   C326      1.0  0.52068  0.16282  0.13314  1.0000
  C   C327      1.0  0.51800  0.16245  0.03726  1.0000
  C   C328      1.0  0.49226  0.18521  0.08574  1.0000
  H   H559      1.0  0.36261  0.18274  0.29418  1.0000
  H   H560      1.0  0.38988  0.23642  0.03921  1.0000
  H   H561      1.0  0.52301  0.18440  0.09244  1.0000
  H   H562      1.0  0.53615  0.15234  0.09813  1.0000
  H   H563      1.0  0.53041  0.12308  0.05622  1.0000
  H   H564      1.0  0.33926  0.46069  0.46505  1.0000
  C   C329      1.0  0.50473  0.07732  0.08559  1.0000
  H   H565      1.0  0.48886  0.14059  0.10623  1.0000
  C   C330      1.0  0.35764  0.24564  0.24923  1.0000
  C   C331      1.0  0.33697  0.40856  0.40142  1.0000
  H   H566      1.0  0.33021  0.36627  0.36052  1.0000
  H   H567      1.0  0.52713  0.18415  0.14131  1.0000
  H   H568      1.0  0.50783  0.16534  0.13866  1.0000
  H   H569      1.0  0.52548  0.14177  0.14435  1.0000
  H   H570      1.0  0.50558  0.16886  0.03126  1.0000
  H   H571      1.0  0.52421  0.15639  0.01732  1.0000
  H   H572      1.0  0.53671  0.01538  0.27067  1.0000
  H   H573      1.0  0.49562  0.19704  0.10570  1.0000
  H   H574      1.0  0.47928  0.18962  0.08276  1.0000
  H   H575      1.0  0.49848  0.19726  0.06827  1.0000
  H   H576      1.0  0.37299  0.14525  0.22005  1.0000
  C   C332      1.0  0.36682  0.15574  0.23856  1.0000
  H   H577      1.0  0.53217  0.21147  0.44406  1.0000
  H   H578      1.0  0.34495  0.30503  0.35385  1.0000
  S   S104      1.0  0.33020  0.30666  0.45919  1.0000
  H   H579      1.0  0.39179  0.16966  0.03426  1.0000
  C   C333      1.0  0.34039  0.20061  0.26107  1.0000
  H   H580      1.0  0.39004  0.22485  0.29654  1.0000
  C   C334      1.0  0.31346  0.43614  0.38426  1.0000
  H   H581      1.0  0.52584  0.09841  0.10390  1.0000
  H   H582      1.0  0.58000  0.16284  0.48575  1.0000
  H   H583      1.0  0.48657  0.02538  0.32377  1.0000
  H   H584      1.0  0.32183  0.46330  0.16123  1.0000
  C   C335      1.0  0.60535  0.35488  0.45815  1.0000
  C   C336      1.0  0.43438  0.99276  0.12006  1.0000
  H   H585      1.0  0.37213  0.28686  0.23824  1.0000
  S   S105      1.0  0.32348  0.39827  0.18024  1.0000
  N   N24       1.0  0.40856  0.22001  0.06746  1.0000
  C   C337      1.0  0.39789  0.19197  0.07487  1.0000
  C   C338      1.0  0.40706  0.24422  0.09080  1.0000
  C   C339      1.0  0.42560  0.20795  0.06555  1.0000
  C   C340      1.0  0.40310  0.23291  0.03966  1.0000
  H   H586      1.0  0.42254  0.25800  0.01747  1.0000
  C   C341      1.0  0.39018  0.25804  0.09584  1.0000
  C   C342      1.0  0.51603  0.03425  0.24681  1.0000
  H   H587      1.0  0.52338  0.14110  0.45299  1.0000
  H   H588      1.0  0.40113  0.18235  0.09582  1.0000
  H   H589      1.0  0.47891  0.06629  0.24582  1.0000
  H   H590      1.0  0.41515  0.26497  0.08777  1.0000
  H   H591      1.0  0.41110  0.23369  0.11088  1.0000
  H   H592      1.0  0.42767  0.18889  0.08133  1.0000
  H   H593      1.0  0.42794  0.19657  0.04480  1.0000
  H   H594      1.0  0.50906  0.04646  0.30213  1.0000
  H   H595      1.0  0.59393  0.42329  0.44084  1.0000
  H   H596      1.0  0.34439  0.42622  0.38959  1.0000
  H   H597      1.0  0.56134  0.18405  0.45140  1.0000
  C   C343      1.0  0.60692  0.42027  0.43597  1.0000
  H   H598      1.0  0.51818  0.01855  0.22828  1.0000
  N   N25       1.0  0.60923  0.39280  0.41584  1.0000
  H   H599      1.0  0.31636  0.41278  0.23882  1.0000
  C   C344      1.0  0.47885  0.15785  0.47858  1.0000
  C   C345      1.0  0.55675  0.18301  0.47329  1.0000
  H   H600      1.0  0.39849  0.27921  0.47752  1.0000
  H   H601      1.0  0.43984  0.23942  0.09296  1.0000
  H   H602      1.0  0.33671  0.20913  0.30660  1.0000
  C   C346      1.0  0.43081  0.25328  0.46581  1.0000
  H   H603      1.0  0.33945  0.17441  0.26408  1.0000
  H   H604      1.0  0.59252  0.35382  0.37232  1.0000
  H   H605      1.0  0.48380  0.06653  0.48627  1.0000
  H   H606      1.0  0.38254  0.25053  0.23276  1.0000
  C   C347      1.0  0.32975  0.46104  0.48048  1.0000
  C   C348      1.0  0.38506  0.20534  0.28329  1.0000
  H   H607      1.0  0.53164  0.05635  0.27905  1.0000
  H   H608      1.0  0.63298  0.38713  0.43313  1.0000
  H   H609      1.0  0.39140  0.14328  0.06350  1.0000
  H   H610      1.0  0.48819  0.13777  0.06938  1.0000
  H   H611      1.0  0.51324  0.05817  0.23819  1.0000
  H   H612      1.0  0.53898  0.15650  0.43233  1.0000
  H   H613      1.0  0.32216  0.46579  0.41929  1.0000
  H   H614      1.0  0.37943  0.26628  0.26793  1.0000
  C   C349      1.0  0.36648  0.20572  0.28448  1.0000
  H   H615      1.0  0.38513  0.19917  0.07657  1.0000
  C   C350      1.0  0.53275  0.15987  0.45279  1.0000
  C   C351      1.0  0.31941  0.43438  0.19832  1.0000
  N   N26       1.0  0.32091  0.40361  0.38745  1.0000
  C   C352      1.0  0.48821  0.01685  0.24474  1.0000
  C   C353      1.0  0.41132  0.26364  0.02902  1.0000
  H   H616      1.0  0.60036  0.33085  0.46302  1.0000
  H   H617      1.0  0.53320  0.09378  0.45966  1.0000
  C   C354      1.0  0.30943  0.38293  0.34017  1.0000
  H   H618      1.0  0.60807  0.46170  0.40707  1.0000
  C   C355      1.0  0.53223  0.03821  0.26210  1.0000
  H   H619      1.0  0.60032  0.37168  0.47385  1.0000
  H   H620      1.0  0.33240  0.40535  0.34670  1.0000
  C   C356      1.0  0.54307  0.09447  0.47505  1.0000
  H   H621      1.0  0.59754  0.38224  0.34592  1.0000
  N   N27       1.0  0.54454  0.15642  0.47648  1.0000
  H   H622      1.0  0.49140  0.99962  0.22779  1.0000
  H   H623      1.0  0.38177  0.24005  0.10463  1.0000
  H   H624      1.0  0.54995  0.00408  0.39185  1.0000
  C   C357      1.0  0.62678  0.38493  0.41260  1.0000
  Fe  Fe51      1.0  0.31970  0.34708  0.48447  1.0000
  H   H625      1.0  0.60664  0.42121  0.37788  1.0000
  H   H626      1.0  0.58849  0.40701  0.39194  1.0000
  H   H627      1.0  0.38509  0.26883  0.07669  1.0000
  H   H628      1.0  0.41387  0.28134  0.04562  1.0000
  C   C358      1.0  0.60127  0.37281  0.36662  1.0000
  H   H629      1.0  0.62813  0.35949  0.40616  1.0000
  H   H630      1.0  0.47059  0.04135  0.21916  1.0000
  C   C359      1.0  0.50470  0.00610  0.39265  1.0000
  C   C360      1.0  0.60124  0.40020  0.38834  1.0000
  C   C361      1.0  0.48184  0.04723  0.23051  1.0000
  C   C362      1.0  0.43924  0.23230  0.07054  1.0000
  H   H631      1.0  0.40305  0.27609  0.01454  1.0000
  H   H632      1.0  0.31461  0.35602  0.40157  1.0000
  H   H633      1.0  0.39103  0.27729  0.11185  1.0000
  C   C363      1.0  0.39804  0.16367  0.05402  1.0000
  H   H634      1.0  0.52442  0.18319  0.04637  1.0000
  H   H635      1.0  0.43831  0.25373  0.05725  1.0000
  S   S106      1.0  0.31246  0.26705  0.23438  1.0000
  C   C364      1.0  0.48381  0.04040  0.30528  1.0000
  H   H636      1.0  0.43753  0.18663  0.48286  1.0000
  H   H637      1.0  0.61849  0.35353  0.46066  1.0000
  Fe  Fe52      1.0  0.32050  0.34980  0.20111  1.0000
  H   H638      1.0  0.61289  0.41541  0.45633  1.0000
  H   H639      1.0  0.55981  0.12454  0.45284  1.0000
  H   H640      1.0  0.47779  0.00573  0.25541  1.0000
  H   H641      1.0  0.49195  0.01951  0.44412  1.0000
  H   H642      1.0  0.49033  0.05647  0.21451  1.0000
  H   H643      1.0  0.44012  0.27157  0.46108  1.0000
  C   C365      1.0  0.31219  0.46360  0.24059  1.0000
  H   H644      1.0  0.40901  0.20895  0.46850  1.0000
  Fe  Fe53      1.0  0.63641  0.28470  0.45452  1.0000
  H   H645      1.0  0.47748  0.18337  0.47643  1.0000
  C   C366      1.0  0.52402  0.19218  0.45140  1.0000
  H   H646      1.0  0.63178  0.42816  0.38562  1.0000
  S   S107      1.0  0.33166  0.39558  0.47850  1.0000
  H   H647      1.0  0.63842  0.39043  0.37145  1.0000
  H   H648      1.0  0.32106  0.45146  0.37043  1.0000
  H   H649      1.0  0.62666  0.45327  0.42555  1.0000
  C   C367      1.0  0.63659  0.40449  0.39095  1.0000
  H   H650      1.0  0.50478  0.00380  0.36945  1.0000
  H   H651      1.0  0.53391  0.01108  0.46601  1.0000
  H   H652      1.0  0.46383  0.01149  0.44522  1.0000
  C   C368      1.0  0.48242  0.09203  0.48397  1.0000
  C   C369      1.0  0.55326  0.12516  0.47325  1.0000
  C   C370      1.0  0.31079  0.45486  0.41181  1.0000
  H   H653      1.0  0.48764  0.99274  0.47168  1.0000
  C   C371      1.0  0.48828  0.99452  0.44839  1.0000
  C   C372      1.0  0.42554  0.17570  0.48620  1.0000
  H   H654      1.0  0.55084  0.07375  0.47010  1.0000
  H   H655      1.0  0.38843  0.24044  0.47391  1.0000
  H   H656      1.0  0.51385  0.02007  0.47634  1.0000
  C   C373      1.0  0.31092  0.38118  0.40518  1.0000
  H   H657      1.0  0.47050  0.99202  0.41407  1.0000
  C   C374      1.0  0.39199  0.25981  0.48848  1.0000
  C   C375      1.0  0.47102  0.99111  0.43725  1.0000
  Fe  Fe54      1.0  0.53460  0.14731  0.83955  1.0000
  S   S108      1.0  0.51027  0.16529  0.85388  1.0000
  S   S109      1.0  0.55449  0.18652  0.83511  1.0000
  Fe  Fe55      1.0  0.52118  0.07820  0.83496  1.0000
  S   S110      1.0  0.49641  0.09304  0.84806  1.0000
  S   S111      1.0  0.52305  0.02727  0.81771  1.0000
  Fe  Fe56      1.0  0.50017  0.13448  0.81887  1.0000
  S   S112      1.0  0.48102  0.15294  0.78840  1.0000
  Fe  Fe57      1.0  0.50842  0.12200  0.88226  1.0000
  S   S113      1.0  0.50067  0.11307  0.92899  1.0000
  S   S114      1.0  0.52428  0.11844  0.80387  1.0000
  S   S115      1.0  0.53340  0.10545  0.86984  1.0000
  H   H658      1.0  0.45617  0.17285  0.75054  1.0000
  H   H659      1.0  0.49110  0.02397  0.84774  1.0000
  S   S116      1.0  0.62710  0.33029  0.73721  1.0000
  S   S117      1.0  0.61587  0.24038  0.76541  1.0000
  C   C376      1.0  0.50427  0.02700  0.89923  1.0000
  Fe  Fe58      1.0  0.44608  0.12117  0.62533  1.0000
  S   S118      1.0  0.42093  0.10116  0.62040  1.0000
  S   S119      1.0  0.46353  0.11160  0.66200  1.0000
  Fe  Fe59      1.0  0.44775  0.13878  0.56188  1.0000
  S   S120      1.0  0.42315  0.11942  0.55306  1.0000
  S   S121      1.0  0.46169  0.16460  0.52755  1.0000
  Fe  Fe60      1.0  0.41586  0.14438  0.59275  1.0000
  S   S122      1.0  0.39456  0.17949  0.59522  1.0000
  Fe  Fe61      1.0  0.43010  0.07812  0.58071  1.0000
  S   S123      1.0  0.42975  0.02695  0.56412  1.0000
  S   S124      1.0  0.44046  0.16570  0.60070  1.0000
  S   S125      1.0  0.45526  0.09622  0.58653  1.0000
  H   H660      1.0  0.52635  0.01779  0.92309  1.0000
  H   H661      1.0  0.44721  0.04907  0.68007  1.0000
  S   S126      1.0  0.34355  0.23514  0.50688  1.0000
  H   H662      1.0  0.47208  0.04490  0.69686  1.0000
  C   C377      1.0  0.63782  0.31967  0.60361  1.0000
  C   C378      1.0  0.48970  0.10567  0.98401  1.0000
  C   C379      1.0  0.31361  0.21922  0.55825  1.0000
  H   H663      1.0  0.40414  0.26962  0.52676  1.0000
  H   H664      1.0  0.46928  0.02077  0.96146  1.0000
  C   C380      1.0  0.47856  0.00863  0.92017  1.0000
  H   H665      1.0  0.47119  0.01971  0.86258  1.0000
  C   C381      1.0  0.63879  0.45988  0.49356  1.0000
  C   C382      1.0  0.52005  0.14364  0.50887  1.0000
  H   H666      1.0  0.60753  0.48654  0.79085  1.0000
  H   H667      1.0  0.49017  0.02403  0.68983  1.0000
  H   H668      1.0  0.40131  0.18784  0.49761  1.0000
  H   H669      1.0  0.61873  0.45054  0.55891  1.0000
  H   H670      1.0  0.39262  0.23410  0.52700  1.0000
  H   H671      1.0  0.46851  0.09687  0.52204  1.0000
  N   N28       1.0  0.49358  0.99842  0.90506  1.0000
  H   H672      1.0  0.64062  0.19846  0.80347  1.0000
  C   C383      1.0  0.38035  0.19431  0.57035  1.0000
  C   C384      1.0  0.37178  0.22236  0.57667  1.0000
  C   C385      1.0  0.36060  0.23534  0.55762  1.0000
  C   C386      1.0  0.35762  0.22020  0.53193  1.0000
  C   C387      1.0  0.36606  0.19194  0.52573  1.0000
  C   C388      1.0  0.37736  0.17915  0.54466  1.0000
  H   H673      1.0  0.37392  0.23434  0.59644  1.0000
  H   H674      1.0  0.35432  0.25707  0.56284  1.0000
  H   H675      1.0  0.36384  0.17981  0.50607  1.0000
  H   H676      1.0  0.38366  0.15742  0.53947  1.0000
  H   H677      1.0  0.49677  0.08415  0.98379  1.0000
  H   H678      1.0  0.40596  0.01099  0.60755  1.0000
  C   C389      1.0  0.46902  0.99988  0.67341  1.0000
  H   H679      1.0  0.54484  0.14914  0.52139  1.0000
  C   C390      1.0  0.63266  0.41447  0.58134  1.0000
  C   C391      1.0  0.46676  0.01014  0.60952  1.0000
  H   H680      1.0  0.54048  0.00746  0.86812  1.0000
  H   H681      1.0  0.32822  0.18143  0.54052  1.0000
  H   H682      1.0  0.51137  0.02341  0.87976  1.0000
  S   S127      1.0  0.63116  0.30454  0.49749  1.0000
  C   C392      1.0  0.47376  0.10918  0.50431  1.0000
  C   C393      1.0  0.42488  0.02674  0.66967  1.0000
  C   C394      1.0  0.48943  0.12503  0.95978  1.0000
  H   H683      1.0  0.42903  0.22687  0.57896  1.0000
  C   C395      1.0  0.48025  0.15293  0.96089  1.0000
  H   H684      1.0  0.42337  0.03727  0.64862  1.0000
  H   H685      1.0  0.47984  0.16829  0.94273  1.0000
  C   C396      1.0  0.57142  0.20103  0.81502  1.0000
  C   C397      1.0  0.57786  0.23153  0.82106  1.0000
  C   C398      1.0  0.59121  0.24409  0.80607  1.0000
  C   C399      1.0  0.59855  0.22627  0.78473  1.0000
  C   C400      1.0  0.59209  0.19579  0.77862  1.0000
  C   C401      1.0  0.57866  0.18334  0.79347  1.0000
  H   H686      1.0  0.57250  0.24562  0.83760  1.0000
  H   H687      1.0  0.59589  0.26749  0.81124  1.0000
  H   H688      1.0  0.59754  0.18160  0.76225  1.0000
  H   H689      1.0  0.57402  0.15986  0.78842  1.0000
  H   H690      1.0  0.57821  0.20461  0.49108  1.0000
  H   H691      1.0  0.51050  0.16196  0.50788  1.0000
  H   H692      1.0  0.45824  0.04860  0.63579  1.0000
  C   C402      1.0  0.47638  0.14120  0.75321  1.0000
  C   C403      1.0  0.48551  0.11882  0.73843  1.0000
  C   C404      1.0  0.48159  0.11078  0.71047  1.0000
  C   C405      1.0  0.46829  0.12438  0.69691  1.0000
  C   C406      1.0  0.45923  0.14699  0.71160  1.0000
  C   C407      1.0  0.46332  0.15542  0.73945  1.0000
  H   H693      1.0  0.49560  0.10763  0.74854  1.0000
  H   H694      1.0  0.48893  0.09378  0.69932  1.0000
  H   H695      1.0  0.44901  0.15783  0.70161  1.0000
  H   H696      1.0  0.51713  0.12404  0.49425  1.0000
  C   C408      1.0  0.61967  0.44045  0.58033  1.0000
  C   C409      1.0  0.45505  0.02316  0.63179  1.0000
  C   C410      1.0  0.53682  0.15917  0.50506  1.0000
  H   H697      1.0  0.43280  0.20182  0.53497  1.0000
  S   S128      1.0  0.63923  0.33562  0.65900  1.0000
  H   H698      1.0  0.63730  0.30913  0.55940  1.0000
  H   H699      1.0  0.63236  0.40289  0.56035  1.0000
  H   H700      1.0  0.63003  0.34000  0.60177  1.0000
  C   C411      1.0  0.31817  0.18366  0.55572  1.0000
  H   H701      1.0  0.55306  0.21082  0.76112  1.0000
  C   C412      1.0  0.63694  0.43522  0.74270  1.0000
  H   H702      1.0  0.32012  0.28085  0.58301  1.0000
  N   N29       1.0  0.41618  0.22831  0.50896  1.0000
  H   H703      1.0  0.47166  0.03045  0.59720  1.0000
  H   H704      1.0  0.51141  0.04026  0.94253  1.0000
  H   H705      1.0  0.62137  0.45996  0.59563  1.0000
  H   H706      1.0  0.62719  0.46552  0.71056  1.0000
  H   H707      1.0  0.47828  0.99265  0.83648  1.0000
  H   H708      1.0  0.41873  0.04289  0.68470  1.0000
  S   S129      1.0  0.31673  0.31718  0.52340  1.0000
  N   N30       1.0  0.45325  0.00471  0.65873  1.0000
  Fe  Fe62      1.0  0.63369  0.28221  0.75513  1.0000
  H   H709      1.0  0.49696  0.04866  0.89531  1.0000
  H   H710      1.0  0.41147  0.24739  0.56870  1.0000
  H   H711      1.0  0.52281  0.05862  0.91541  1.0000
  C   C413      1.0  0.51679  0.03602  0.92167  1.0000
  H   H712      1.0  0.44161  0.23916  0.50424  1.0000
  H   H713      1.0  0.44334  0.02495  0.62099  1.0000
  C   C414      1.0  0.47840  0.03055  0.68074  1.0000
  H   H714      1.0  0.41854  0.00341  0.67060  1.0000
  H   H715      1.0  0.43099  0.25928  0.55490  1.0000
  H   H716      1.0  0.53525  0.18480  0.51070  1.0000
  C   C415      1.0  0.31132  0.43290  0.51096  1.0000
  C   C416      1.0  0.42974  0.24887  0.49789  1.0000
  H   H717      1.0  0.51913  0.13345  0.53029  1.0000
  H   H718      1.0  0.53841  0.09062  0.49656  1.0000
  H   H719      1.0  0.31469  0.22803  0.61334  1.0000
  H   H720      1.0  0.48087  0.04542  0.66202  1.0000
  H   H721      1.0  0.47737  0.99815  0.61816  1.0000
  H   H722      1.0  0.63542  0.41347  0.73066  1.0000
  C   C417      1.0  0.63235  0.46477  0.73131  1.0000
  H   H723      1.0  0.60792  0.42957  0.58594  1.0000
  H   H724      1.0  0.55737  0.23617  0.73244  1.0000
  H   H725      1.0  0.47226  0.02725  0.90793  1.0000
  N   N31       1.0  0.52010  0.20771  0.75267  1.0000
  C   C418      1.0  0.50313  0.21877  0.74767  1.0000
  C   C419      1.0  0.52229  0.20589  0.78397  1.0000
  C   C420      1.0  0.52167  0.17460  0.74049  1.0000
  C   C421      1.0  0.53155  0.23083  0.73870  1.0000
  C   C422      1.0  0.49720  0.21782  0.71707  1.0000
  C   C423      1.0  0.51985  0.23736  0.80021  1.0000
  C   C424      1.0  0.53829  0.15895  0.74238  1.0000
  C   C425      1.0  0.54892  0.23235  0.75017  1.0000
  H   H726      1.0  0.49444  0.20445  0.76020  1.0000
  H   H727      1.0  0.50155  0.24381  0.75496  1.0000
  H   H728      1.0  0.53423  0.19691  0.78969  1.0000
  H   H729      1.0  0.51380  0.18809  0.79314  1.0000
  H   H730      1.0  0.51284  0.15816  0.75060  1.0000
  H   H731      1.0  0.51882  0.17433  0.71777  1.0000
  H   H732      1.0  0.53230  0.22576  0.71582  1.0000
  H   H733      1.0  0.52688  0.25561  0.74055  1.0000
  H   H734      1.0  0.50587  0.22880  0.70230  1.0000
  H   H735      1.0  0.49427  0.19302  0.71040  1.0000
  H   H736      1.0  0.48582  0.23136  0.71560  1.0000
  H   H737      1.0  0.50694  0.24326  0.80197  1.0000
  H   H738      1.0  0.52437  0.23434  0.82193  1.0000
  H   H739      1.0  0.52648  0.25763  0.79077  1.0000
  H   H740      1.0  0.54710  0.17109  0.72852  1.0000
  H   H741      1.0  0.53729  0.13390  0.73483  1.0000
  H   H742      1.0  0.54295  0.15774  0.76403  1.0000
  H   H743      1.0  0.55058  0.25337  0.76413  1.0000
  H   H744      1.0  0.56818  0.17819  0.51491  1.0000
  C   C426      1.0  0.42326  0.23882  0.56094  1.0000
  C   C427      1.0  0.44270  0.02406  0.67813  1.0000
  H   H745      1.0  0.63078  0.41803  0.63871  1.0000
  H   H746      1.0  0.41241  0.19615  0.54403  1.0000
  C   C428      1.0  0.48067  0.02342  0.94951  1.0000
  H   H747      1.0  0.62833  0.39525  0.59557  1.0000
  C   C429      1.0  0.42119  0.21455  0.53681  1.0000
  S   S130      1.0  0.63895  0.39490  0.49926  1.0000
  H   H748      1.0  0.32258  0.17393  0.57581  1.0000
  H   H749      1.0  0.48363  0.04923  0.94788  1.0000
  C   C430      1.0  0.32389  0.49056  0.49024  1.0000
  Fe  Fe63      1.0  0.32565  0.27578  0.49721  1.0000
  H   H750      1.0  0.42932  0.27314  0.50740  1.0000
  C   C431      1.0  0.57152  0.18164  0.49263  1.0000
  H   H751      1.0  0.32449  0.23186  0.56602  1.0000
  H   H752      1.0  0.42616  0.15988  0.50470  1.0000
  C   C432      1.0  0.40131  0.24792  0.51417  1.0000
  C   C433      1.0  0.47203  0.14220  0.50181  1.0000
  H   H753      1.0  0.44287  0.01407  0.69976  1.0000
  H   H754      1.0  0.48973  0.01135  0.96244  1.0000
  H   H755      1.0  0.63449  0.23989  0.83598  1.0000
  H   H756      1.0  0.63994  0.48547  0.56464  1.0000
  H   H757      1.0  0.38057  0.27050  0.49598  1.0000
  H   H758      1.0  0.46044  0.99386  0.59477  1.0000
  H   H759      1.0  0.63093  0.45964  0.51159  1.0000
  H   H760      1.0  0.31191  0.22843  0.53662  1.0000
  C   C434      1.0  0.47153  0.16111  0.98548  1.0000
  H   H761      1.0  0.46457  0.18279  0.98574  1.0000
  C   C435      1.0  0.48193  0.00673  0.85519  1.0000
  C   C436      1.0  0.64187  0.30208  0.57959  1.0000
  C   C437      1.0  0.41218  0.20072  0.48982  1.0000
  C   C438      1.0  0.32349  0.43208  0.49074  1.0000
  C   C439      1.0  0.42379  0.99069  0.58024  1.0000
  H   H762      1.0  0.56251  0.12243  0.48975  1.0000
  H   H763      1.0  0.38345  0.83124  0.20499  1.0000
  C   C440      1.0  0.53934  0.98045  0.35633  1.0000
  S   S131      1.0  0.61865  0.67523  0.46768  1.0000
  H   H764      1.0  0.52957  0.94974  0.32423  1.0000
  Fe  Fe64      1.0  0.54713  0.77081  0.38186  1.0000
  S   S132      1.0  0.52187  0.75638  0.36948  1.0000
  S   S133      1.0  0.56850  0.73589  0.38019  1.0000
  Fe  Fe65      1.0  0.53706  0.84024  0.39154  1.0000
  S   S134      1.0  0.51137  0.83068  0.38109  1.0000
  S   S135      1.0  0.54574  0.88858  0.40741  1.0000
  Fe  Fe66      1.0  0.51412  0.78619  0.40650  1.0000
  S   S136      1.0  0.49374  0.76660  0.43326  1.0000
  Fe  Fe67      1.0  0.52066  0.80189  0.34441  1.0000
  S   S137      1.0  0.50719  0.81507  0.30389  1.0000
  S   S138      1.0  0.53925  0.79774  0.42028  1.0000
  S   S139      1.0  0.54653  0.81439  0.35365  1.0000
  Fe  Fe68      1.0  0.45978  0.78267  0.15863  1.0000
  S   S140      1.0  0.43696  0.80607  0.17210  1.0000
  S   S141      1.0  0.47658  0.75846  0.19031  1.0000
  Fe  Fe69      1.0  0.45377  0.79711  0.09536  1.0000
  S   S142      1.0  0.43028  0.82167  0.10590  1.0000
  S   S143      1.0  0.46514  0.79900  0.05027  1.0000
  Fe  Fe70      1.0  0.44360  0.84485  0.14157  1.0000
  S   S144      1.0  0.44261  0.89479  0.16060  1.0000
  Fe  Fe71      1.0  0.42503  0.78074  0.13600  1.0000
  S   S145      1.0  0.39850  0.76504  0.14372  1.0000
  S   S146      1.0  0.46720  0.82285  0.13004  1.0000
  S   S147      1.0  0.44777  0.75473  0.12342  1.0000
  Fe  Fe72      1.0  0.32439  0.63918  0.20270  1.0000
  S   S148      1.0  0.32662  0.61354  0.24419  1.0000
  S   S149      1.0  0.34934  0.65342  0.18393  1.0000
  C   C441      1.0  0.47818  0.78033  0.35431  1.0000
  H   H765      1.0  0.53791  0.70700  0.11765  1.0000
  C   C442      1.0  0.47410  0.77303  0.47931  1.0000
  C   C443      1.0  0.45702  0.75883  0.38382  1.0000
  H   H766      1.0  0.48506  0.97758  0.29975  1.0000
  H   H767      1.0  0.40171  0.81793  0.18839  1.0000
  H   H768      1.0  0.50079  0.88750  0.44401  1.0000
  S   S150      1.0  0.32869  0.60090  0.40939  1.0000
  H   H769      1.0  0.36225  0.83664  0.17090  1.0000
  C   C444      1.0  0.37220  0.88604  0.16539  1.0000
  C   C445      1.0  0.49416  0.81442  0.47356  1.0000
  C   C446      1.0  0.31877  0.62121  0.32840  1.0000
  H   H770      1.0  0.39544  0.88878  0.20198  1.0000
  C   C447      1.0  0.32366  0.60573  0.35297  1.0000
  C   C448      1.0  0.32188  0.62056  0.37919  1.0000
  C   C449      1.0  0.39610  0.83740  0.20076  1.0000
  C   C450      1.0  0.47243  0.75950  0.00410  1.0000
  H   H771      1.0  0.46580  0.82216  0.37177  1.0000
  H   H772      1.0  0.42749  0.96626  0.08319  1.0000
  H   H773      1.0  0.49982  0.76738  0.04382  1.0000
  H   H774      1.0  0.41146  0.87212  0.18227  1.0000
  C   C451      1.0  0.38517  0.73363  0.15550  1.0000
  C   C452      1.0  0.39033  0.70251  0.16106  1.0000
  C   C453      1.0  0.37923  0.67853  0.16946  1.0000
  C   C454      1.0  0.36275  0.68508  0.17289  1.0000
  C   C455      1.0  0.35764  0.71637  0.16782  1.0000
  C   C456      1.0  0.36871  0.74025  0.15910  1.0000
  H   H775      1.0  0.40286  0.69669  0.15838  1.0000
  H   H776      1.0  0.38345  0.65456  0.17319  1.0000
  H   H777      1.0  0.34507  0.72203  0.17003  1.0000
  H   H778      1.0  0.36441  0.76402  0.15478  1.0000
  H   H779      1.0  0.34808  0.86725  0.17161  1.0000
  C   C457      1.0  0.44319  0.96021  0.15913  1.0000
  C   C458      1.0  0.44067  0.93210  0.14352  1.0000
  C   C459      1.0  0.43542  0.93447  0.11581  1.0000
  C   C460      1.0  0.43207  0.96465  0.10431  1.0000
  H   H780      1.0  0.44716  0.95859  0.18062  1.0000
  H   H781      1.0  0.43341  0.91306  0.10357  1.0000
  C   C461      1.0  0.49867  0.79828  0.27270  1.0000
  C   C462      1.0  0.48922  0.81785  0.25547  1.0000
  C   C463      1.0  0.48226  0.80606  0.23048  1.0000
  C   C464      1.0  0.48470  0.77439  0.22217  1.0000
  C   C465      1.0  0.49409  0.75471  0.23946  1.0000
  C   C466      1.0  0.50101  0.76650  0.26453  1.0000
  H   H782      1.0  0.48732  0.84248  0.26141  1.0000
  H   H783      1.0  0.47513  0.82160  0.21751  1.0000
  H   H784      1.0  0.49612  0.73020  0.23332  1.0000
  H   H785      1.0  0.50828  0.75108  0.27736  1.0000
  C   C467      1.0  0.54330  0.92350  0.38716  1.0000
  C   C468      1.0  0.54828  0.95303  0.39824  1.0000
  C   C469      1.0  0.54608  0.98147  0.38311  1.0000
  C   C470      1.0  0.53463  0.95083  0.34504  1.0000
  C   C471      1.0  0.53643  0.92249  0.36050  1.0000
  H   H786      1.0  0.55381  0.95395  0.41870  1.0000
  H   H787      1.0  0.53264  0.89987  0.35165  1.0000
  C   C472      1.0  0.48698  0.78617  0.46404  1.0000
  H   H788      1.0  0.31413  0.66289  0.40083  1.0000
  H   H789      1.0  0.50410  0.82471  0.46203  1.0000
  C   C473      1.0  0.58184  0.71831  0.40524  1.0000
  C   C474      1.0  0.59358  0.69669  0.39579  1.0000
  C   C475      1.0  0.60480  0.68305  0.41442  1.0000
  C   C476      1.0  0.60457  0.69099  0.44295  1.0000
  C   C477      1.0  0.59281  0.71262  0.45242  1.0000
  C   C478      1.0  0.58150  0.72604  0.43383  1.0000
  H   H790      1.0  0.59406  0.69045  0.37379  1.0000
  H   H791      1.0  0.61371  0.66657  0.40663  1.0000
  H   H792      1.0  0.59244  0.71906  0.47437  1.0000
  H   H793      1.0  0.57257  0.74246  0.44162  1.0000
  H   H794      1.0  0.46730  0.74027  0.01632  1.0000
  H   H795      1.0  0.51180  0.95769  0.39779  1.0000
  C   C479      1.0  0.47273  0.79048  0.01538  1.0000
  H   H796      1.0  0.52624  0.96636  0.43781  1.0000
  C   C480      1.0  0.51644  0.97631  0.45090  1.0000
  N   N32       1.0  0.50485  0.75383  0.10175  1.0000
  C   C481      1.0  0.50472  0.78554  0.08676  1.0000
  C   C482      1.0  0.50108  0.76030  0.13217  1.0000
  C   C483      1.0  0.49188  0.73309  0.08890  1.0000
  C   C484      1.0  0.52115  0.73921  0.09764  1.0000
  C   C485      1.0  0.50786  0.78433  0.05485  1.0000
  C   C486      1.0  0.51312  0.78170  0.14811  1.0000
  C   C487      1.0  0.48508  0.70563  0.10695  1.0000
  C   C488      1.0  0.52480  0.70837  0.11393  1.0000
  H   H797      1.0  0.49302  0.79777  0.09003  1.0000
  H   H798      1.0  0.51398  0.80206  0.09527  1.0000
  H   H799      1.0  0.49995  0.73811  0.14458  1.0000
  H   H800      1.0  0.48909  0.77150  0.13406  1.0000
  H   H801      1.0  0.48125  0.74775  0.08318  1.0000
  H   H802      1.0  0.49607  0.72220  0.06889  1.0000
  H   H803      1.0  0.52302  0.73296  0.07518  1.0000
  H   H804      1.0  0.53092  0.75679  0.10191  1.0000
  C   C489      1.0  0.49458  0.93794  0.44435  1.0000
  H   H805      1.0  0.32000  0.60938  0.30834  1.0000
  H   H806      1.0  0.49084  0.96304  0.39534  1.0000
  H   H807      1.0  0.52554  0.77264  0.14673  1.0000
  H   H808      1.0  0.51259  0.80689  0.14115  1.0000
  H   H809      1.0  0.50978  0.78188  0.17069  1.0000
  H   H810      1.0  0.47796  0.71483  0.12492  1.0000
  H   H811      1.0  0.49441  0.68936  0.11471  1.0000
  H   H812      1.0  0.47668  0.69116  0.09401  1.0000
  H   H813      1.0  0.52106  0.68696  0.10175  1.0000
  H   H814      1.0  0.51939  0.70739  0.13505  1.0000
  H   H815      1.0  0.32875  0.58208  0.35170  1.0000
  C   C490      1.0  0.48767  0.71137  0.33924  1.0000
  H   H816      1.0  0.50551  0.80830  0.04587  1.0000
  S   S151      1.0  0.63361  0.58864  0.48740  1.0000
  H   H817      1.0  0.43753  0.74097  0.40990  1.0000
  H   H818      1.0  0.44534  0.76402  0.33528  1.0000
  H   H819      1.0  0.60880  0.85681  0.41825  1.0000
  C   C491      1.0  0.44584  0.73156  0.39365  1.0000
  H   H820      1.0  0.50782  0.90807  0.41374  1.0000
  H   H821      1.0  0.44917  0.77989  0.38073  1.0000
  N   N33       1.0  0.46693  0.75234  0.35785  1.0000
  H   H822      1.0  0.59621  0.78786  0.41984  1.0000
  H   H823      1.0  0.47588  0.75099  0.30159  1.0000
  C   C492      1.0  0.31544  0.49228  0.19706  1.0000
  H   H824      1.0  0.48061  0.70211  0.32128  1.0000
  H   H825      1.0  0.48643  0.78200  0.37257  1.0000
  Fe  Fe73      1.0  0.31713  0.61228  0.45115  1.0000
  H   H826      1.0  0.38800  0.86441  0.09823  1.0000
  C   C493      1.0  0.47666  0.72273  0.36319  1.0000
  H   H827      1.0  0.61694  0.88538  0.37929  1.0000
  H   H828      1.0  0.38428  0.82497  0.15195  1.0000
  H   H829      1.0  0.46487  0.76512  0.40190  1.0000
  C   C494      1.0  0.61989  0.85959  0.37815  1.0000
  C   C495      1.0  0.31536  0.65118  0.38071  1.0000
  H   H830      1.0  0.46876  0.70192  0.36766  1.0000
  H   H831      1.0  0.43842  0.72174  0.37642  1.0000
  H   H832      1.0  0.57645  0.79436  0.40741  1.0000
  H   H833      1.0  0.48426  0.72610  0.38220  1.0000
  H   H834      1.0  0.40237  0.83884  0.13768  1.0000
  H   H835      1.0  0.45961  0.77842  0.29621  1.0000
  H   H836      1.0  0.31528  0.51438  0.18539  1.0000
  C   C496      1.0  0.47016  0.81321  0.35122  1.0000
  H   H837      1.0  0.36646  0.89618  0.14637  1.0000
  H   H838      1.0  0.52052  0.77855  0.05000  1.0000
  H   H839      1.0  0.45270  0.71219  0.40384  1.0000
  H   H840      1.0  0.61981  0.78897  0.36825  1.0000
  H   H841      1.0  0.38166  0.82411  0.10259  1.0000
  H   H842      1.0  0.48309  0.93213  0.43365  1.0000
  H   H843      1.0  0.61791  0.82112  0.40823  1.0000
  H   H844      1.0  0.40894  0.93013  0.17722  1.0000
  C   C497      1.0  0.45580  0.74775  0.33322  1.0000
  H   H845      1.0  0.47922  0.83073  0.34360  1.0000
  H   H846      1.0  0.46022  0.81289  0.33594  1.0000
  H   H847      1.0  0.40943  0.89361  0.13576  1.0000
  C   C498      1.0  0.36048  0.86139  0.17820  1.0000
  H   H848      1.0  0.37224  0.90642  0.18035  1.0000
  C   C499      1.0  0.46283  0.75420  0.30365  1.0000
  H   H849      1.0  0.46850  0.75115  0.47213  1.0000
  H   H850      1.0  0.45075  0.72308  0.33318  1.0000
  H   H851      1.0  0.49627  0.72989  0.33211  1.0000
  H   H852      1.0  0.36873  0.85521  0.11446  1.0000
  C   C500      1.0  0.38146  0.84811  0.11260  1.0000
  H   H853      1.0  0.36093  0.86210  0.20145  1.0000
  H   H854      1.0  0.49499  0.69115  0.34692  1.0000
  H   H855      1.0  0.48624  0.77735  0.33613  1.0000
  H   H856      1.0  0.39067  0.90848  0.12439  1.0000
  N   N34       1.0  0.35921  0.68638  0.27449  1.0000
  C   C501      1.0  0.35715  0.66419  0.29920  1.0000
  C   C502      1.0  0.36501  0.66651  0.25012  1.0000
  C   C503      1.0  0.34284  0.69940  0.26777  1.0000
  C   C504      1.0  0.37076  0.71279  0.28224  1.0000
  C   C505      1.0  0.35198  0.67980  0.32718  1.0000
  C   C506      1.0  0.38112  0.64930  0.25418  1.0000
  C   C507      1.0  0.34163  0.72236  0.24282  1.0000
  C   C508      1.0  0.37935  0.73043  0.25785  1.0000
  H   H857      1.0  0.34826  0.64494  0.29428  1.0000
  H   H858      1.0  0.36852  0.65179  0.30410  1.0000
  H   H859      1.0  0.36626  0.68072  0.23082  1.0000
  H   H860      1.0  0.35599  0.64789  0.24468  1.0000
  H   H861      1.0  0.33432  0.67944  0.26354  1.0000
  H   H862      1.0  0.33776  0.71277  0.28579  1.0000
  H   H863      1.0  0.36457  0.73105  0.29533  1.0000
  H   H864      1.0  0.38049  0.70300  0.29559  1.0000
  H   H865      1.0  0.35106  0.66093  0.34345  1.0000
  H   H866      1.0  0.36087  0.69756  0.33475  1.0000
  H   H867      1.0  0.34000  0.69088  0.32613  1.0000
  H   H868      1.0  0.39046  0.66494  0.26339  1.0000
  H   H869      1.0  0.37959  0.62753  0.26715  1.0000
  H   H870      1.0  0.38555  0.64112  0.23338  1.0000
  H   H871      1.0  0.34570  0.71138  0.22299  1.0000
  H   H872      1.0  0.34796  0.74519  0.24694  1.0000
  H   H873      1.0  0.32881  0.72840  0.23971  1.0000
  H   H874      1.0  0.38045  0.75615  0.26326  1.0000
  H   H875      1.0  0.37331  0.72934  0.23730  1.0000
  H   H876      1.0  0.39183  0.72177  0.25536  1.0000
  N   N35       1.0  0.59403  0.82777  0.39099  1.0000
  C   C509      1.0  0.59507  0.80718  0.36503  1.0000
  C   C510      1.0  0.58229  0.85463  0.38669  1.0000
  H   H877      1.0  0.59396  0.83530  0.45193  1.0000
  C   C511      1.0  0.60738  0.77987  0.36603  1.0000
  C   C512      1.0  0.58230  0.87152  0.35801  1.0000
  C   C513      1.0  0.58757  0.80691  0.41428  1.0000
  H   H878      1.0  0.59810  0.82117  0.34608  1.0000
  H   H879      1.0  0.58312  0.79641  0.36028  1.0000
  H   H880      1.0  0.56981  0.84569  0.38948  1.0000
  H   H881      1.0  0.58388  0.87353  0.40294  1.0000
  H   H882      1.0  0.45723  0.73744  0.28841  1.0000
  C   C514      1.0  0.61015  0.84049  0.39999  1.0000
  H   H883      1.0  0.60681  0.76634  0.34598  1.0000
  H   H884      1.0  0.40240  0.83802  0.22122  1.0000
  H   H885      1.0  0.57740  0.85573  0.34135  1.0000
  H   H886      1.0  0.59421  0.88064  0.35173  1.0000
  H   H887      1.0  0.57416  0.89240  0.35923  1.0000
  H   H888      1.0  0.61835  0.85102  0.35642  1.0000
  H   H889      1.0  0.38913  0.94404  0.16756  1.0000
  C   C515      1.0  0.58335  0.82399  0.44206  1.0000
  N   N36       1.0  0.38911  0.87542  0.15941  1.0000
  C   C516      1.0  0.39750  0.90181  0.14345  1.0000
  C   C517      1.0  0.38969  0.84587  0.14138  1.0000
  C   C518      1.0  0.39830  0.87000  0.18621  1.0000
  C   C519      1.0  0.40037  0.93327  0.15974  1.0000
  H   H890      1.0  0.51794  0.91281  0.44699  1.0000
  C   C520      1.0  0.31193  0.49253  0.22574  1.0000
  C   C521      1.0  0.31247  0.65198  0.32989  1.0000
  H   H891      1.0  0.57368  0.84180  0.43943  1.0000
  H   H892      1.0  0.48772  0.95619  0.26703  1.0000
  H   H893      1.0  0.49940  0.94638  0.29695  1.0000
  H   H894      1.0  0.60473  0.76241  0.38278  1.0000
  C   C522      1.0  0.47953  0.81492  0.99871  1.0000
  H   H895      1.0  0.40585  0.95106  0.14534  1.0000
  N   N37       1.0  0.50034  0.97115  0.43695  1.0000
  H   H896      1.0  0.51705  0.96300  0.47107  1.0000
  C   C523      1.0  0.50181  0.97290  0.40544  1.0000
  H   H897      1.0  0.57871  0.80592  0.45709  1.0000
  C   C524      1.0  0.50609  0.91042  0.43671  1.0000
  C   C525      1.0  0.31092  0.66705  0.35605  1.0000
  H   H898      1.0  0.63800  0.51121  0.48917  1.0000
  H   H899      1.0  0.47995  0.83900  0.00693  1.0000
  Fe  Fe74      1.0  0.63925  0.63844  0.47196  1.0000
  H   H900      1.0  0.63288  0.85676  0.38250  1.0000
  H   H901      1.0  0.46507  0.96910  0.44505  1.0000
  C   C526      1.0  0.49392  0.96662  0.28551  1.0000
  H   H902      1.0  0.51481  0.97643  0.26118  1.0000
  H   H903      1.0  0.49202  0.93620  0.46726  1.0000
  H   H904      1.0  0.32884  0.51266  0.48223  1.0000
  C   C527      1.0  0.50731  0.98999  0.27646  1.0000
  C   C528      1.0  0.44024  0.99042  0.14738  1.0000
  Fe  Fe75      1.0  0.52360  0.84359  0.85865  1.0000
  S   S152      1.0  0.49741  0.83333  0.86475  1.0000
  S   S153      1.0  0.53507  0.89066  0.87252  1.0000
  Fe  Fe76      1.0  0.53109  0.77518  0.83797  1.0000
  S   S154      1.0  0.50496  0.76057  0.84353  1.0000
  S   S155      1.0  0.55007  0.74479  0.81381  1.0000
  Fe  Fe77      1.0  0.49885  0.80740  0.82296  1.0000
  S   S156      1.0  0.47922  0.81945  0.79064  1.0000
  Fe  Fe78      1.0  0.50527  0.78770  0.88518  1.0000
  S   S157      1.0  0.49296  0.76748  0.92561  1.0000
  S   S158      1.0  0.52466  0.82112  0.81586  1.0000
  S   S159      1.0  0.53178  0.79886  0.88070  1.0000
  H   H905      1.0  0.37007  0.79513  0.61092  1.0000
  S   S160      1.0  0.62536  0.62294  0.73227  1.0000
  S   S161      1.0  0.61737  0.66864  0.80537  1.0000
  C   C529      1.0  0.48812  0.79912  0.62605  1.0000
  Fe  Fe79      1.0  0.44170  0.79459  0.63238  1.0000
  S   S162      1.0  0.41491  0.80110  0.62722  1.0000
  S   S163      1.0  0.45572  0.77182  0.66885  1.0000
  Fe  Fe80      1.0  0.44862  0.81938  0.57261  1.0000
  S   S164      1.0  0.42266  0.82854  0.56364  1.0000
  S   S165      1.0  0.46919  0.83570  0.54442  1.0000
  Fe  Fe81      1.0  0.42178  0.84840  0.60740  1.0000
  S   S166      1.0  0.40897  0.89443  0.61907  1.0000
  Fe  Fe82      1.0  0.41758  0.78052  0.58352  1.0000
  S   S167      1.0  0.40244  0.74401  0.55801  1.0000
  S   S168      1.0  0.44807  0.84286  0.61515  1.0000
  S   S169      1.0  0.44398  0.77046  0.58997  1.0000
  H   H906      1.0  0.50704  0.98222  0.94146  1.0000
  C   C530      1.0  0.60171  0.60139  0.53883  1.0000
  S   S170      1.0  0.33286  0.67876  0.53973  1.0000
  C   C531      1.0  0.38165  0.87378  0.55896  1.0000
  H   H907      1.0  0.41746  0.80693  0.85260  1.0000
  C   C532      1.0  0.49717  0.75288  0.55756  1.0000
  H   H908      1.0  0.43546  0.77128  0.92646  1.0000
  H   H909      1.0  0.35205  0.63748  0.57303  1.0000
  H   H910      1.0  0.45770  0.73430  0.88668  1.0000
  C   C533      1.0  0.44839  0.77753  0.92638  1.0000
  C   C534      1.0  0.41475  0.93123  0.60375  1.0000
  C   C535      1.0  0.40725  0.95961  0.61239  1.0000
  C   C536      1.0  0.38103  0.81388  0.52744  1.0000
  C   C537      1.0  0.43104  0.96221  0.57131  1.0000
  C   C538      1.0  0.42668  0.93268  0.58316  1.0000
  H   H911      1.0  0.39793  0.95868  0.62820  1.0000
  H   H912      1.0  0.43248  0.91102  0.57621  1.0000
  C   C539      1.0  0.38304  0.72572  0.55364  1.0000
  C   C540      1.0  0.37055  0.72954  0.57304  1.0000
  C   C541      1.0  0.35538  0.71518  0.56829  1.0000
  C   C542      1.0  0.35237  0.69652  0.54419  1.0000
  C   C543      1.0  0.36493  0.69221  0.52502  1.0000
  C   C544      1.0  0.38009  0.70672  0.52972  1.0000
  H   H913      1.0  0.37263  0.74327  0.59186  1.0000
  H   H914      1.0  0.34588  0.71849  0.58348  1.0000
  H   H915      1.0  0.60369  0.57355  0.75528  1.0000
  H   H916      1.0  0.38959  0.70331  0.51456  1.0000
  H   H917      1.0  0.45379  0.85145  0.83195  1.0000
  C   C545      1.0  0.47559  0.81625  0.51337  1.0000
  S   S171      1.0  0.62769  0.52961  0.73206  1.0000
  H   H918      1.0  0.46211  0.95036  0.62384  1.0000
  H   H919      1.0  0.36951  0.57491  0.55612  1.0000
  H   H920      1.0  0.45849  0.77764  0.51543  1.0000
  H   H921      1.0  0.43833  0.84347  0.85690  1.0000
  H   H922      1.0  0.51732  0.91069  0.82278  1.0000
  N   N38       1.0  0.60291  0.63270  0.55452  1.0000
  H   H923      1.0  0.42249  0.81265  0.88914  1.0000
  H   H924      1.0  0.36075  0.55148  0.59930  1.0000
  H   H925      1.0  0.44679  0.82015  0.90239  1.0000
  H   H926      1.0  0.61013  0.64400  0.62648  1.0000
  H   H927      1.0  0.44016  0.96301  0.55515  1.0000
  C   C546      1.0  0.48554  0.77751  0.96029  1.0000
  H   H928      1.0  0.56829  0.52480  0.77615  1.0000
  H   H929      1.0  0.59398  0.61439  0.59412  1.0000
  H   H930      1.0  0.61454  0.60632  0.58769  1.0000
  C   C547      1.0  0.32999  0.59337  0.56841  1.0000
  C   C548      1.0  0.56864  0.72294  0.81213  1.0000
  C   C549      1.0  0.57409  0.71112  0.78607  1.0000
  C   C550      1.0  0.58883  0.69459  0.78349  1.0000
  C   C551      1.0  0.59849  0.68945  0.80703  1.0000
  C   C552      1.0  0.59300  0.70116  0.83310  1.0000
  C   C553      1.0  0.57827  0.71771  0.83568  1.0000
  H   H931      1.0  0.56688  0.71499  0.76760  1.0000
  H   H932      1.0  0.59277  0.68608  0.76321  1.0000
  H   H933      1.0  0.60024  0.69744  0.85156  1.0000
  H   H934      1.0  0.57439  0.72639  0.85593  1.0000
  C   C554      1.0  0.47366  0.80641  0.75614  1.0000
  C   C555      1.0  0.47853  0.77712  0.74485  1.0000
  C   C556      1.0  0.47292  0.76705  0.71826  1.0000
  C   C557      1.0  0.46264  0.78628  0.70216  1.0000
  C   C558      1.0  0.45801  0.81583  0.71323  1.0000
  C   C559      1.0  0.46335  0.82559  0.74008  1.0000
  H   H935      1.0  0.48630  0.76186  0.75690  1.0000
  H   H936      1.0  0.47644  0.74395  0.71030  1.0000
  H   H937      1.0  0.45006  0.83090  0.70136  1.0000
  H   H938      1.0  0.45939  0.84821  0.74852  1.0000
  H   H939      1.0  0.47730  0.98476  0.66109  1.0000
  C   C560      1.0  0.53788  0.95602  0.86987  1.0000
  C   C561      1.0  0.53135  0.92847  0.85727  1.0000
  C   C562      1.0  0.52233  0.93167  0.83282  1.0000
  C   C563      1.0  0.52001  0.96209  0.82100  1.0000
  H   H940      1.0  0.54501  0.95376  0.88864  1.0000
  C   C564      1.0  0.56365  0.54126  0.79230  1.0000
  H   H941      1.0  0.44757  0.92427  0.63864  1.0000
  H   H942      1.0  0.37823  0.91197  0.59071  1.0000
  C   C565      1.0  0.53528  0.98651  0.85836  1.0000
  C   C566      1.0  0.60514  0.62485  0.58510  1.0000
  H   H943      1.0  0.43065  0.74917  0.88291  1.0000
  H   H944      1.0  0.45878  0.85067  0.86816  1.0000
  C   C567      1.0  0.46194  0.73497  0.84244  1.0000
  H   H945      1.0  0.46830  0.80291  0.84543  1.0000
  H   H946      1.0  0.58587  0.55163  0.75282  1.0000
  H   H947      1.0  0.46612  0.80388  0.90259  1.0000
  N   N39       1.0  0.57910  0.83323  0.82991  1.0000
  C   C568      1.0  0.57635  0.80778  0.85181  1.0000
  C   C569      1.0  0.57877  0.81702  0.80160  1.0000
  C   C570      1.0  0.56562  0.85718  0.83241  1.0000
  C   C571      1.0  0.59507  0.84887  0.83570  1.0000
  C   C572      1.0  0.57484  0.81966  0.88241  1.0000
  C   C573      1.0  0.59228  0.79285  0.79565  1.0000
  C   C574      1.0  0.56022  0.87444  0.80551  1.0000
  C   C575      1.0  0.60067  0.87409  0.81441  1.0000
  H   H948      1.0  0.56523  0.79394  0.84705  1.0000
  H   H949      1.0  0.58621  0.79009  0.85190  1.0000
  H   H950      1.0  0.57953  0.83451  0.78426  1.0000
  H   H951      1.0  0.56710  0.80437  0.79861  1.0000
  H   H952      1.0  0.55450  0.84546  0.84038  1.0000
  H   H953      1.0  0.56851  0.87592  0.84828  1.0000
  H   H954      1.0  0.59493  0.86122  0.85636  1.0000
  H   H955      1.0  0.60463  0.83053  0.83722  1.0000
  H   H956      1.0  0.57148  0.79910  0.89592  1.0000
  H   H957      1.0  0.58639  0.82908  0.89048  1.0000
  H   H958      1.0  0.56534  0.83782  0.88520  1.0000
  H   H959      1.0  0.59237  0.77275  0.81059  1.0000
  H   H960      1.0  0.59029  0.78206  0.77464  1.0000
  H   H961      1.0  0.60425  0.80444  0.79512  1.0000
  H   H962      1.0  0.57015  0.88594  0.79390  1.0000
  H   H963      1.0  0.55158  0.89346  0.81132  1.0000
  H   H964      1.0  0.55376  0.85778  0.79129  1.0000
  H   H965      1.0  0.60145  0.86445  0.79281  1.0000
  H   H966      1.0  0.61290  0.88239  0.82021  1.0000
  H   H967      1.0  0.59286  0.89535  0.81495  1.0000
  H   H968      1.0  0.57074  0.60420  0.76782  1.0000
  C   C576      1.0  0.41183  0.98930  0.60085  1.0000
  H   H969      1.0  0.48226  0.94640  0.93936  1.0000
  C   C577      1.0  0.60505  0.59045  0.84014  1.0000
  H   H970      1.0  0.57994  0.60200  0.73385  1.0000
  H   H971      1.0  0.57794  0.54723  0.82978  1.0000
  H   H972      1.0  0.37172  0.82387  0.51372  1.0000
  H   H973      1.0  0.37066  0.86874  0.61234  1.0000
  H   H974      1.0  0.38259  0.78852  0.52116  1.0000
  H   H975      1.0  0.47483  0.79759  0.62459  1.0000
  C   C578      1.0  0.48849  0.82933  0.49813  1.0000
  C   C579      1.0  0.49282  0.83340  0.61735  1.0000
  C   C580      1.0  0.63440  0.49323  0.74655  1.0000
  H   H976      1.0  0.60070  0.60531  0.51582  1.0000
  H   H977      1.0  0.61957  0.64393  0.52064  1.0000
  H   H978      1.0  0.48863  0.74786  0.66343  1.0000
  H   H979      1.0  0.49631  0.76272  0.53600  1.0000
  H   H980      1.0  0.47468  0.74269  0.61457  1.0000
  C   C581      1.0  0.46122  0.75258  0.87094  1.0000
  C   C582      1.0  0.48794  0.74142  0.61730  1.0000
  H   H981      1.0  0.59280  0.61492  0.80758  1.0000
  C   C583      1.0  0.50264  0.97327  0.92101  1.0000
  H   H982      1.0  0.32117  0.63154  0.59604  1.0000
  H   H983      1.0  0.47054  0.71492  0.84416  1.0000
  H   H984      1.0  0.37475  0.63999  0.60734  1.0000
  H   H985      1.0  0.38759  0.84424  0.60620  1.0000
  H   H986      1.0  0.61177  0.59999  0.79741  1.0000
  H   H987      1.0  0.47850  0.78130  0.57605  1.0000
  H   H988      1.0  0.48976  0.85017  0.63461  1.0000
  H   H989      1.0  0.48282  0.70928  0.65177  1.0000
  H   H990      1.0  0.45066  0.79210  0.94548  1.0000
  H   H991      1.0  0.40886  0.78241  0.87985  1.0000
  H   H992      1.0  0.61301  0.58760  0.54131  1.0000
  C   C584      1.0  0.35382  0.85223  0.56635  1.0000
  H   H993      1.0  0.48585  0.84101  0.59878  1.0000
  H   H994      1.0  0.48914  0.73166  0.55808  1.0000
  C   C585      1.0  0.59809  0.50457  0.78699  1.0000
  H   H995      1.0  0.43936  0.96412  0.67347  1.0000
  C   C586      1.0  0.58782  0.65172  0.55083  1.0000
  H   H996      1.0  0.50576  0.83602  0.61257  1.0000
  Fe  Fe83      1.0  0.63399  0.64221  0.77366  1.0000
  H   H997      1.0  0.51367  0.96654  0.90924  1.0000
  C   C587      1.0  0.60060  0.59351  0.80891  1.0000
  C   C588      1.0  0.44511  0.97288  0.65378  1.0000
  H   H998      1.0  0.36294  0.67789  0.50644  1.0000
  H   H999      1.0  0.34925  0.87214  0.57963  1.0000
  H   H1000     1.0  0.34682  0.83120  0.57380  1.0000
  N   N40       1.0  0.45038  0.78132  0.87238  1.0000
  C   C589      1.0  0.58273  0.65730  0.52014  1.0000
  H   H1001     1.0  0.51318  0.96426  0.80187  1.0000
  H   H1002     1.0  0.49202  0.72164  0.60354  1.0000
  H   H1003     1.0  0.35627  0.59809  0.53546  1.0000
  H   H1004     1.0  0.38171  0.87389  0.53576  1.0000
  H   H1005     1.0  0.49712  0.80137  0.57126  1.0000
  C   C590      1.0  0.61759  0.64971  0.54314  1.0000
  H   H1006     1.0  0.55509  0.55811  0.78259  1.0000
  C   C591      1.0  0.64086  0.49189  0.77352  1.0000
  H   H1007     1.0  0.37528  0.59733  0.60881  1.0000
  N   N41       1.0  0.49568  0.77271  0.60910  1.0000
  H   H1008     1.0  0.58857  0.67526  0.56151  1.0000
  C   C592      1.0  0.43336  0.76980  0.86896  1.0000
  C   C593      1.0  0.37452  0.84626  0.60201  1.0000
  C   C594      1.0  0.51368  0.77156  0.61226  1.0000
  H   H1009     1.0  0.39270  0.82592  0.52339  1.0000
  H   H1010     1.0  0.57756  0.64009  0.56177  1.0000
  C   C595      1.0  0.49167  0.77859  0.57871  1.0000
  C   C596      1.0  0.52067  0.78108  0.64111  1.0000
  C   C597      1.0  0.45511  0.80348  0.84877  1.0000
  H   H1011     1.0  0.49067  0.79679  0.64875  1.0000
  H   H1012     1.0  0.46645  0.75047  0.82528  1.0000
  H   H1013     1.0  0.47376  0.75952  0.87620  1.0000
  H   H1014     1.0  0.36714  0.79675  0.56227  1.0000
  H   H1015     1.0  0.58975  0.62377  0.76101  1.0000
  H   H1016     1.0  0.51816  0.74720  0.60729  1.0000
  H   H1017     1.0  0.51970  0.78755  0.59678  1.0000
  H   H1018     1.0  0.39445  0.87044  0.56478  1.0000
  H   H1019     1.0  0.45569  0.75570  0.92861  1.0000
  C   C598      1.0  0.49106  0.72959  0.64726  1.0000
  C   C599      1.0  0.45322  0.79722  0.90038  1.0000
  H   H1020     1.0  0.43156  0.75975  0.84759  1.0000
  C   C600      1.0  0.41999  0.79470  0.87272  1.0000
  H   H1021     1.0  0.50978  0.74565  0.56072  1.0000
  C   C601      1.0  0.60977  0.65275  0.60453  1.0000
  H   H1022     1.0  0.50344  0.72041  0.64938  1.0000
  H   H1023     1.0  0.51936  0.80695  0.64539  1.0000
  H   H1024     1.0  0.53374  0.77613  0.64111  1.0000
  H   H1025     1.0  0.51539  0.76769  0.65880  1.0000
  H   H1026     1.0  0.61511  0.69637  0.56544  1.0000
  H   H1027     1.0  0.44981  0.79535  0.82853  1.0000
  H   H1028     1.0  0.45022  0.72437  0.83655  1.0000
  C   C602      1.0  0.45107  0.83917  0.85206  1.0000
  H   H1029     1.0  0.60857  0.61441  0.84821  1.0000
  H   H1030     1.0  0.61562  0.57488  0.84304  1.0000
  C   C603      1.0  0.61783  0.68657  0.54447  1.0000
  C   C604      1.0  0.60345  0.53653  0.80003  1.0000
  H   H1031     1.0  0.38739  0.80616  0.56996  1.0000
  H   H1032     1.0  0.57100  0.58318  0.81455  1.0000
  C   C605      1.0  0.33656  0.53266  0.59673  1.0000
  N   N42       1.0  0.37149  0.84704  0.57081  1.0000
  C   C606      1.0  0.36629  0.81896  0.61841  1.0000
  H   H1033     1.0  0.57593  0.59014  0.54453  1.0000
  H   H1034     1.0  0.34527  0.83466  0.52559  1.0000
  C   C607      1.0  0.31896  0.60575  0.59202  1.0000
  H   H1035     1.0  0.60489  0.53143  0.82272  1.0000
  C   C608      1.0  0.37661  0.81520  0.55884  1.0000
  H   H1036     1.0  0.58807  0.55758  0.53346  1.0000
  H   H1037     1.0  0.57396  0.63891  0.51321  1.0000
  H   H1038     1.0  0.57729  0.68130  0.51799  1.0000
  H   H1039     1.0  0.33912  0.54691  0.52910  1.0000
  C   C609      1.0  0.37190  0.61780  0.59548  1.0000
  S   S172      1.0  0.33054  0.60024  0.49057  1.0000
  H   H1040     1.0  0.60943  0.69691  0.52902  1.0000
  C   C610      1.0  0.34824  0.85772  0.53599  1.0000
  H   H1041     1.0  0.35897  0.54539  0.51591  1.0000
  H   H1042     1.0  0.49414  0.85113  0.50538  1.0000
  H   H1043     1.0  0.61570  0.54190  0.79184  1.0000
  H   H1044     1.0  0.35305  0.82077  0.61806  1.0000
  C   C611      1.0  0.34838  0.56127  0.59887  1.0000
  C   C612      1.0  0.58237  0.60216  0.75672  1.0000
  C   C613      1.0  0.59147  0.57152  0.76459  1.0000
  H   H1045     1.0  0.32024  0.59217  0.61172  1.0000
  C   C614      1.0  0.45555  0.94495  0.64337  1.0000
  H   H1046     1.0  0.49093  0.82779  0.95920  1.0000
  C   C615      1.0  0.57650  0.55969  0.80936  1.0000
  H   H1047     1.0  0.47933  0.96501  0.88046  1.0000
  H   H1048     1.0  0.32973  0.61146  0.55143  1.0000
  C   C616      1.0  0.35666  0.57820  0.55094  1.0000
  H   H1049     1.0  0.32400  0.57226  0.55918  1.0000
  C   C617      1.0  0.35390  0.61770  0.58815  1.0000
  H   H1050     1.0  0.46399  0.93687  0.65978  1.0000
  H   H1051     1.0  0.47834  0.72904  0.96891  1.0000
  N   N43       1.0  0.59263  0.56479  0.79556  1.0000
  H   H1052     1.0  0.59486  0.58191  0.85312  1.0000
  H   H1053     1.0  0.49074  0.92838  0.90788  1.0000
  C   C618      1.0  0.46841  0.78798  0.50387  1.0000
  C   C619      1.0  0.48583  0.80858  0.97148  1.0000
  H   H1054     1.0  0.36997  0.82065  0.64073  1.0000
  H   H1055     1.0  0.50108  0.92645  0.94028  1.0000
  H   H1056     1.0  0.59671  0.50582  0.76394  1.0000
  H   H1057     1.0  0.37948  0.61852  0.57632  1.0000
  C   C620      1.0  0.58780  0.57894  0.54732  1.0000
  H   H1058     1.0  0.62999  0.69518  0.53850  1.0000
  H   H1059     1.0  0.34754  0.62502  0.60765  1.0000
  N   N44       1.0  0.34708  0.58679  0.57673  1.0000
  C   C621      1.0  0.37691  0.90790  0.56789  1.0000
  H   H1060     1.0  0.36458  0.91395  0.56124  1.0000
  H   H1061     1.0  0.58912  0.57010  0.56906  1.0000
  Fe  Fe84      1.0  0.31978  0.64525  0.50825  1.0000
  H   H1062     1.0  0.35693  0.87109  0.52298  1.0000
  C   C622      1.0  0.52631  0.98971  0.83381  1.0000
  H   H1063     1.0  0.32623  0.53593  0.61118  1.0000
  C   C623      1.0  0.47876  0.75316  0.97702  1.0000
  H   H1064     1.0  0.34630  0.57192  0.62000  1.0000
  H   H1065     1.0  0.60094  0.67237  0.60381  1.0000
  H   H1066     1.0  0.62199  0.66179  0.59985  1.0000
  H   H1067     1.0  0.38516  0.92518  0.55755  1.0000
  H   H1068     1.0  0.33730  0.87272  0.53627  1.0000
  H   H1069     1.0  0.62861  0.64082  0.55350  1.0000
  H   H1070     1.0  0.35462  0.52584  0.54812  1.0000
  H   H1071     1.0  0.59303  0.65698  0.50544  1.0000
  H   H1072     1.0  0.34268  0.51075  0.60405  1.0000
  H   H1073     1.0  0.55634  0.52651  0.80691  1.0000
  C   C624      1.0  0.49340  0.94207  0.92726  1.0000
  C   C625      1.0  0.35183  0.54728  0.53552  1.0000
  H   H1074     1.0  0.64006  0.56576  0.62306  1.0000
  H   H1075     1.0  0.58708  0.49519  0.79716  1.0000
  H   H1076     1.0  0.33203  0.52718  0.57551  1.0000
  Fe  Fe85      1.0  0.63849  0.57781  0.74339  1.0000
  H   H1077     1.0  0.43528  0.97546  0.63845  1.0000
  H   H1078     1.0  0.49904  0.97139  0.86744  1.0000
  C   C626      1.0  0.48869  0.98372  0.87739  1.0000
  H   H1079     1.0  0.46707  0.98651  0.69331  1.0000
  C   C627      1.0  0.31203  0.49138  0.51103  1.0000
  H   H1080     1.0  0.46953  0.98905  0.92146  1.0000
  H   H1081     1.0  0.88995  0.12957  0.32218  1.0000
  Fe  Fe86      1.0  0.81391  0.34537  0.46217  1.0000
  S   S173      1.0  0.80392  0.29905  0.44464  1.0000
  S   S174      1.0  0.81164  0.39256  0.43924  1.0000
  C   C628      1.0  0.96147  0.06973  0.22869  1.0000
  H   H1082     1.0  0.76676  0.34665  0.46116  1.0000
  Fe  Fe87      1.0  0.82572  0.27579  0.46445  1.0000
  S   S175      1.0  0.84052  0.23160  0.45072  1.0000
  Fe  Fe88      1.0  0.67293  0.30165  0.46098  1.0000
  S   S176      1.0  0.69755  0.30127  0.43937  1.0000
  H   H1083     1.0  0.93924  0.02390  0.39099  1.0000
  H   H1084     1.0  0.86129  0.16919  0.37417  1.0000
  H   H1085     1.0  0.95552  0.02195  0.16211  1.0000
  C   C629      1.0  0.64277  0.48915  0.48087  1.0000
  Fe  Fe89      1.0  0.92479  0.15602  0.38149  1.0000
  S   S177      1.0  0.95190  0.16266  0.38279  1.0000
  S   S178      1.0  0.90728  0.19804  0.38896  1.0000
  Fe  Fe90      1.0  0.92785  0.08583  0.36468  1.0000
  S   S179      1.0  0.95455  0.08743  0.36514  1.0000
  S   S180      1.0  0.91389  0.04117  0.35231  1.0000
  Fe  Fe91      1.0  0.95200  0.11542  0.40511  1.0000
  H   H1086     1.0  0.72911  0.39347  0.40585  1.0000
  Fe  Fe92      1.0  0.95285  0.13420  0.34234  1.0000
  H   H1087     1.0  0.77999  0.37950  0.46442  1.0000
  S   S181      1.0  0.92508  0.11038  0.40639  1.0000
  S   S182      1.0  0.92592  0.13095  0.33925  1.0000
  C   C630      1.0  0.88282  0.08335  0.42250  1.0000
  C   C631      1.0  0.96239  0.15981  0.25662  1.0000
  C   C632      1.0  0.96475  0.16635  0.22782  1.0000
  H   H1088     1.0  0.89040  0.16418  0.34331  1.0000
  H   H1089     1.0  0.95106  0.16528  0.26657  1.0000
  H   H1090     1.0  0.95514  0.17683  0.21586  1.0000
  H   H1091     1.0  0.86595  0.05814  0.31259  1.0000
  H   H1092     1.0  0.94427  0.03098  0.19366  1.0000
  H   H1093     1.0  0.97130  0.00528  0.21747  1.0000
  H   H1094     1.0  0.89132  0.10366  0.42133  1.0000
  H   H1095     1.0  0.84290  0.16169  0.39171  1.0000
  H   H1096     1.0  0.87432  0.04067  0.34321  1.0000
  C   C633      1.0  0.65848  0.46088  0.44625  1.0000
  C   C634      1.0  0.85958  0.22369  0.43456  1.0000
  C   C635      1.0  0.86709  0.24511  0.41620  1.0000
  C   C636      1.0  0.88169  0.23694  0.40282  1.0000
  C   C637      1.0  0.88913  0.20733  0.40757  1.0000
  C   C638      1.0  0.88185  0.18626  0.42655  1.0000
  C   C639      1.0  0.86713  0.19424  0.43965  1.0000
  H   H1097     1.0  0.86148  0.26775  0.41175  1.0000
  H   H1098     1.0  0.88716  0.25361  0.38834  1.0000
  H   H1099     1.0  0.88753  0.16376  0.43108  1.0000
  H   H1100     1.0  0.86154  0.17743  0.45385  1.0000
  C   C640      1.0  0.81392  0.42842  0.45874  1.0000
  C   C641      1.0  0.81113  0.45799  0.44581  1.0000
  C   C642      1.0  0.96149  0.09380  0.17204  1.0000
  H   H1101     1.0  0.94779  0.06176  0.26687  1.0000
  H   H1102     1.0  0.96840  0.05261  0.27065  1.0000
  H   H1103     1.0  0.80760  0.45861  0.42404  1.0000
  H   H1104     1.0  0.65969  0.40960  0.45121  1.0000
  H   H1105     1.0  0.84562  0.14502  0.35767  1.0000
  C   C643      1.0  0.74557  0.29043  0.45242  1.0000
  C   C644      1.0  0.73037  0.29348  0.43976  1.0000
  C   C645      1.0  0.71667  0.30061  0.45584  1.0000
  C   C646      1.0  0.96897  0.14937  0.47535  1.0000
  H   H1106     1.0  0.88873  0.13706  0.38432  1.0000
  H   H1107     1.0  0.75587  0.28378  0.43992  1.0000
  H   H1108     1.0  0.72915  0.28938  0.41747  1.0000
  H   H1109     1.0  0.87156  0.14802  0.33375  1.0000
  H   H1110     1.0  0.64882  0.40876  0.39941  1.0000
  H   H1111     1.0  0.69017  0.19880  0.43523  1.0000
  C   C647      1.0  0.73054  0.40930  0.42434  1.0000
  H   H1112     1.0  0.86592  0.05694  0.39740  1.0000
  H   H1113     1.0  0.77962  0.41742  0.42882  1.0000
  C   C648      1.0  0.88512  0.12089  0.36692  1.0000
  H   H1114     1.0  0.87309  0.08903  0.43760  1.0000
  H   H1115     1.0  0.88418  0.07410  0.32658  1.0000
  H   H1116     1.0  0.68220  0.19128  0.48374  1.0000
  H   H1117     1.0  0.69096  0.23607  0.45297  1.0000
  S   S183      1.0  0.97294  0.13881  0.30914  1.0000
  C   C649      1.0  0.65485  0.43163  0.45943  1.0000
  C   C650      1.0  0.86216  0.08668  0.35030  1.0000
  H   H1118     1.0  0.94975  0.07229  0.21815  1.0000
  S   S184      1.0  0.65809  0.25721  0.46916  1.0000
  N   N45       1.0  0.75855  0.38983  0.44032  1.0000
  C   C651      1.0  0.75956  0.36888  0.41458  1.0000
  C   C652      1.0  0.87238  0.06372  0.33236  1.0000
  H   H1119     1.0  0.76161  0.43192  0.41447  1.0000
  H   H1120     1.0  0.88946  0.06272  0.43121  1.0000
  C   C653      1.0  0.77660  0.35944  0.40508  1.0000
  S   S185      1.0  0.83640  0.32277  0.47852  1.0000
  H   H1121     1.0  0.73505  0.43311  0.41789  1.0000
  C   C654      1.0  0.93349  0.00221  0.38372  1.0000
  H   H1122     1.0  0.75262  0.34636  0.41786  1.0000
  H   H1123     1.0  0.75413  0.38072  0.39611  1.0000
  S   S186      1.0  0.96874  0.09747  0.43910  1.0000
  H   H1124     1.0  0.85736  0.10492  0.33593  1.0000
  C   C655      1.0  0.76672  0.42114  0.43370  1.0000
  C   C656      1.0  0.76647  0.44658  0.45696  1.0000
  H   H1125     1.0  0.75413  0.45339  0.46306  1.0000
  H   H1126     1.0  0.96491  0.10653  0.15251  1.0000
  H   H1127     1.0  0.77571  0.34120  0.38821  1.0000
  H   H1128     1.0  0.78329  0.38003  0.39618  1.0000
  H   H1129     1.0  0.78373  0.34885  0.42214  1.0000
  C   C657      1.0  0.81855  0.42794  0.48687  1.0000
  H   H1130     1.0  0.96481  0.09451  0.23496  1.0000
  H   H1131     1.0  0.95662  0.11222  0.18644  1.0000
  H   H1132     1.0  0.72179  0.23787  0.48367  1.0000
  C   C658      1.0  0.74721  0.29429  0.48140  1.0000
  S   S187      1.0  0.65176  0.32744  0.44242  1.0000
  C   C659      1.0  0.85881  0.12097  0.39186  1.0000
  C   C660      1.0  0.92083  0.00386  0.36469  1.0000
  C   C661      1.0  0.69667  0.21237  0.45174  1.0000
  C   C662      1.0  0.87596  0.07409  0.39356  1.0000
  C   C663      1.0  0.97481  0.14688  0.27256  1.0000
  C   C664      1.0  0.74101  0.39406  0.44723  1.0000
  C   C665      1.0  0.88379  0.14138  0.34004  1.0000
  H   H1133     1.0  0.70923  0.21515  0.44441  1.0000
  C   C666      1.0  0.95430  0.01706  0.18490  1.0000
  H   H1134     1.0  0.85136  0.07304  0.35732  1.0000
  H   H1135     1.0  0.84852  0.10581  0.39878  1.0000
  H   H1136     1.0  0.88550  0.05996  0.38301  1.0000
  H   H1137     1.0  0.77338  0.43879  0.47549  1.0000
  C   C667      1.0  0.85190  0.15067  0.37749  1.0000
  C   C668      1.0  0.95819  0.05090  0.25585  1.0000
  H   H1138     1.0  0.66600  0.46120  0.42773  1.0000
  C   C669      1.0  0.76703  0.37304  0.46411  1.0000
  H   H1139     1.0  0.86439  0.13033  0.41132  1.0000
  H   H1140     1.0  0.96074  0.16078  0.46111  1.0000
  N   N46       1.0  0.87059  0.10133  0.37517  1.0000
  H   H1141     1.0  0.89555  0.10490  0.36341  1.0000
  H   H1142     1.0  0.95197  0.07656  0.16644  1.0000
  H   H1143     1.0  0.71828  0.41289  0.43295  1.0000
  H   H1144     1.0  0.95507  0.02561  0.25164  1.0000
  C   C670      1.0  0.97038  0.02267  0.19997  1.0000
  H   H1145     1.0  0.88466  0.29469  0.45328  1.0000
  H   H1146     1.0  0.88476  0.24525  0.47961  1.0000
  H   H1147     1.0  0.95639  0.17272  0.99091  1.0000
  C   C671      1.0  0.71849  0.30615  0.48456  1.0000
  H   H1148     1.0  0.73546  0.37045  0.45234  1.0000
  H   H1149     1.0  0.77253  0.46852  0.44911  1.0000
  N   N47       1.0  0.97414  0.05625  0.20941  1.0000
  H   H1150     1.0  0.72545  0.19628  0.48242  1.0000
  H   H1151     1.0  0.69994  0.16959  0.47577  1.0000
  C   C672      1.0  0.69529  0.19409  0.47973  1.0000
  H   H1152     1.0  0.86499  0.28589  0.46541  1.0000
  C   C673      1.0  0.81316  0.48684  0.46076  1.0000
  C   C674      1.0  0.64480  0.43102  0.48293  1.0000
  Fe  Fe93      1.0  0.79160  0.29490  0.48661  1.0000
  C   C675      1.0  0.87712  0.29293  0.47247  1.0000
  H   H1153     1.0  0.73933  0.40905  0.46620  1.0000
  H   H1154     1.0  0.95062  0.99172  0.18761  1.0000
  Fe  Fe94      1.0  0.64746  0.34555  0.48605  1.0000
  H   H1155     1.0  0.87679  0.31711  0.48194  1.0000
  C   C676      1.0  0.97428  0.11840  0.46975  1.0000
  C   C677      1.0  0.65245  0.48977  0.45690  1.0000
  H   H1156     1.0  0.97497  0.16749  0.03136  1.0000
  C   C678      1.0  0.81810  0.48632  0.48877  1.0000
  Fe  Fe95      1.0  0.94841  0.08089  0.84612  1.0000
  S   S188      1.0  0.95588  0.02851  0.84360  1.0000
  Fe  Fe96      1.0  0.92774  0.14203  0.83731  1.0000
  S   S189      1.0  0.94824  0.17361  0.85138  1.0000
  S   S190      1.0  0.90507  0.16013  0.81362  1.0000
  Fe  Fe97      1.0  0.96390  0.14250  0.82404  1.0000
  Fe  Fe98      1.0  0.95270  0.13777  0.88632  1.0000
  H   H1157     1.0  0.77338  0.24956  0.72313  1.0000
  S   S191      1.0  0.94358  0.11214  0.80887  1.0000
  S   S192      1.0  0.93107  0.10770  0.87391  1.0000
  Fe  Fe99      1.0  0.82215  0.31541  0.51801  1.0000
  S   S193      1.0  0.83335  0.32891  0.55940  1.0000
  H   H1158     1.0  0.68017  0.19524  0.76011  1.0000
  C   C679      1.0  0.82799  0.48779  0.75294  1.0000
  Fe  Fe100     1.0  0.82906  0.28189  0.76956  1.0000
  S   S194      1.0  0.83780  0.30245  0.72869  1.0000
  S   S195      1.0  0.84786  0.26355  0.80169  1.0000
  Fe  Fe101     1.0  0.79366  0.30539  0.75792  1.0000
  S   S196      1.0  0.80115  0.32734  0.71698  1.0000
  S   S197      1.0  0.76756  0.31779  0.77012  1.0000
  Fe  Fe102     1.0  0.81510  0.28240  0.71054  1.0000
  S   S198      1.0  0.81261  0.25550  0.66965  1.0000
  Fe  Fe103     1.0  0.82292  0.34565  0.73913  1.0000
  S   S199      1.0  0.83320  0.39503  0.72979  1.0000
  S   S200      1.0  0.80680  0.25897  0.75058  1.0000
  S   S201      1.0  0.81503  0.32667  0.78087  1.0000
  C   C680      1.0  0.64497  0.46225  0.78525  1.0000
  Fe  Fe104     1.0  0.65361  0.28025  0.51123  1.0000
  H   H1159     1.0  0.75770  0.23638  0.70148  1.0000
  Fe  Fe105     1.0  0.67052  0.29554  0.74436  1.0000
  S   S202      1.0  0.66599  0.34371  0.72555  1.0000
  S   S203      1.0  0.69516  0.27074  0.74643  1.0000
  C   C681      1.0  0.88442  0.26772  0.49212  1.0000
  H   H1160     1.0  0.65550  0.17056  0.84816  1.0000
  H   H1161     1.0  0.77845  0.22962  0.69101  1.0000
  H   H1162     1.0  0.79848  0.45648  0.79386  1.0000
  H   H1163     1.0  0.93868  0.21223  0.70730  1.0000
  C   C682      1.0  0.83751  0.38990  0.83595  1.0000
  H   H1164     1.0  0.93196  0.09380  0.73671  1.0000
  H   H1165     1.0  0.66457  0.24493  0.61013  1.0000
  H   H1166     1.0  0.69660  0.25732  0.49450  1.0000
  H   H1167     1.0  0.85621  0.22753  0.55652  1.0000
  C   C683      1.0  0.64343  0.42546  0.64171  1.0000
  C   C684      1.0  0.65715  0.26587  0.60826  1.0000
  H   H1168     1.0  0.69932  0.19263  0.81554  1.0000
  C   C685      1.0  0.65679  0.44447  0.56510  1.0000
  H   H1169     1.0  0.89650  0.19361  0.54026  1.0000
  C   C686      1.0  0.72086  0.21565  0.49632  1.0000
  C   C687      1.0  0.82599  0.42999  0.74633  1.0000
  C   C688      1.0  0.81327  0.42908  0.76549  1.0000
  H   H1170     1.0  0.89716  0.27485  0.49557  1.0000
  H   H1171     1.0  0.65625  0.16125  0.75254  1.0000
  C   C689      1.0  0.83339  0.45941  0.74032  1.0000
  H   H1172     1.0  0.80750  0.40657  0.77037  1.0000
  H   H1173     1.0  0.84348  0.46025  0.72606  1.0000
  C   C690      1.0  0.74761  0.30428  0.76234  1.0000
  C   C691      1.0  0.74393  0.27230  0.75642  1.0000
  C   C692      1.0  0.72790  0.26268  0.75141  1.0000
  C   C693      1.0  0.71521  0.28473  0.75237  1.0000
  C   C694      1.0  0.71885  0.31670  0.75833  1.0000
  C   C695      1.0  0.73489  0.32629  0.76344  1.0000
  H   H1174     1.0  0.75334  0.25475  0.75670  1.0000
  H   H1175     1.0  0.72530  0.23782  0.74716  1.0000
  H   H1176     1.0  0.70929  0.33399  0.75937  1.0000
  H   H1177     1.0  0.73747  0.35099  0.76844  1.0000
  H   H1178     1.0  0.73510  0.32672  0.67331  1.0000
  C   C696      1.0  0.64371  0.31102  0.62998  1.0000
  C   C697      1.0  0.82681  0.30904  0.58985  1.0000
  C   C698      1.0  0.83104  0.32140  0.61618  1.0000
  C   C699      1.0  0.82650  0.30542  0.64083  1.0000
  C   C700      1.0  0.81804  0.27657  0.63920  1.0000
  C   C701      1.0  0.81377  0.26424  0.61289  1.0000
  C   C702      1.0  0.81796  0.28065  0.58827  1.0000
  H   H1179     1.0  0.83791  0.34333  0.61751  1.0000
  H   H1180     1.0  0.82982  0.31508  0.66106  1.0000
  H   H1181     1.0  0.80726  0.24189  0.61152  1.0000
  H   H1182     1.0  0.81461  0.27099  0.56810  1.0000
  H   H1183     1.0  0.74847  0.22764  0.62793  1.0000
  Fe  Fe106     1.0  0.64831  0.35036  0.76062  1.0000
  C   C703      1.0  0.88938  0.18952  0.81069  1.0000
  C   C704      1.0  0.87894  0.18835  0.78746  1.0000
  C   C705      1.0  0.86648  0.21093  0.78397  1.0000
  C   C706      1.0  0.86396  0.23498  0.80399  1.0000
  C   C707      1.0  0.87442  0.23618  0.82721  1.0000
  C   C708      1.0  0.88705  0.21393  0.83044  1.0000
  H   H1184     1.0  0.88037  0.16955  0.77212  1.0000
  H   H1185     1.0  0.85858  0.20924  0.76610  1.0000
  H   H1186     1.0  0.87267  0.25438  0.84302  1.0000
  H   H1187     1.0  0.89481  0.21535  0.84851  1.0000
  C   C709      1.0  0.87223  0.29522  0.56613  1.0000
  H   H1188     1.0  0.76799  0.21232  0.62081  1.0000
  H   H1189     1.0  0.97083  0.19012  0.50303  1.0000
  H   H1190     1.0  0.83956  0.32810  0.82416  1.0000
  H   H1191     1.0  0.67013  0.44326  0.56574  1.0000
  C   C710      1.0  0.65562  0.18740  0.74942  1.0000
  N   N48       1.0  0.64950  0.42484  0.58850  1.0000
  H   H1192     1.0  0.75943  0.40376  0.49988  1.0000
  H   H1193     1.0  0.68855  0.41458  0.75135  1.0000
  C   C711      1.0  0.96744  0.15967  0.98829  1.0000
  H   H1194     1.0  0.73800  0.48402  0.78294  1.0000
  S   S204      1.0  0.76538  0.28565  0.49918  1.0000
  Fe  Fe107     1.0  0.64528  0.32038  0.70330  1.0000
  C   C712      1.0  0.88933  0.20750  0.52502  1.0000
  C   C713      1.0  0.76041  0.37829  0.49408  1.0000
  N   N49       1.0  0.70363  0.20914  0.50460  1.0000
  S   S205      1.0  0.81232  0.26777  0.50529  1.0000
  H   H1195     1.0  0.74139  0.30392  0.70344  1.0000
  H   H1196     1.0  0.96500  0.19800  0.71015  1.0000
  N   N50       1.0  0.76199  0.28333  0.65932  1.0000
  C   C714      1.0  0.76481  0.31711  0.64928  1.0000
  C   C715      1.0  0.74416  0.27866  0.66294  1.0000
  C   C716      1.0  0.76840  0.26075  0.63722  1.0000
  C   C717      1.0  0.77082  0.27942  0.68656  1.0000
  C   C718      1.0  0.78203  0.32532  0.63928  1.0000
  C   C719      1.0  0.73568  0.30253  0.68261  1.0000
  C   C720      1.0  0.76095  0.22694  0.63588  1.0000
  C   C721      1.0  0.76993  0.24662  0.70083  1.0000
  H   H1197     1.0  0.75666  0.32268  0.63150  1.0000
  H   H1198     1.0  0.76198  0.33464  0.66615  1.0000
  H   H1199     1.0  0.74120  0.25452  0.67095  1.0000
  H   H1200     1.0  0.73809  0.28019  0.64222  1.0000
  H   H1201     1.0  0.76661  0.27073  0.61583  1.0000
  H   H1202     1.0  0.78159  0.25786  0.63950  1.0000
  H   H1203     1.0  0.78377  0.28349  0.68318  1.0000
  H   H1204     1.0  0.76769  0.29812  0.70223  1.0000
  H   H1205     1.0  0.78247  0.35073  0.63274  1.0000
  H   H1206     1.0  0.79103  0.32270  0.65608  1.0000
  H   H1207     1.0  0.78578  0.31105  0.62080  1.0000
  H   H1208     1.0  0.72310  0.29449  0.68612  1.0000
  H   H1209     1.0  0.76115  0.21431  0.65613  1.0000
  H   H1210     1.0  0.72524  0.46422  0.75849  1.0000
  H   H1211     1.0  0.88463  0.31035  0.52952  1.0000
  H   H1212     1.0  0.82659  0.37814  0.82709  1.0000
  H   H1213     1.0  0.74488  0.22688  0.51097  1.0000
  S   S206      1.0  0.95738  0.15202  0.93294  1.0000
  H   H1214     1.0  0.65822  0.15577  0.79877  1.0000
  H   H1215     1.0  0.74858  0.36644  0.49679  1.0000
  H   H1216     1.0  0.67783  0.22883  0.83346  1.0000
  H   H1217     1.0  0.70480  0.23385  0.81572  1.0000
  C   C722      1.0  0.84938  0.23795  0.53907  1.0000
  H   H1218     1.0  0.89482  0.21600  0.72535  1.0000
  H   H1219     1.0  0.67252  0.48429  0.73787  1.0000
  H   H1220     1.0  0.65787  0.27698  0.65259  1.0000
  H   H1221     1.0  0.70045  0.44538  0.73748  1.0000
  S   S207      1.0  0.65394  0.30310  0.78131  1.0000
  H   H1222     1.0  0.95911  0.16940  0.68488  1.0000
  H   H1223     1.0  0.84522  0.44018  0.84110  1.0000
  H   H1224     1.0  0.66934  0.35366  0.57037  1.0000
  C   C723      1.0  0.88315  0.37278  0.83557  1.0000
  H   H1225     1.0  0.86388  0.35911  0.75578  1.0000
  C   C724      1.0  0.95707  0.17693  0.70695  1.0000
  H   H1226     1.0  0.67164  0.40127  0.60000  1.0000
  S   S208      1.0  0.65675  0.25308  0.55163  1.0000
  C   C725      1.0  0.81541  0.48689  0.77237  1.0000
  H   H1227     1.0  0.86819  0.41351  0.83250  1.0000
  N   N51       1.0  0.66641  0.20493  0.79807  1.0000
  C   C726      1.0  0.85342  0.37667  0.79457  1.0000
  C   C727      1.0  0.82692  0.45098  0.65954  1.0000
  H   H1228     1.0  0.65411  0.37865  0.60748  1.0000
  H   H1229     1.0  0.91624  0.13983  0.72223  1.0000
  C   C728      1.0  0.73331  0.21848  0.52004  1.0000
  H   H1230     1.0  0.81422  0.41081  0.63951  1.0000
  H   H1231     1.0  0.65787  0.19180  0.72679  1.0000
  H   H1232     1.0  0.88140  0.23743  0.55851  1.0000
  H   H1233     1.0  0.81110  0.46137  0.61025  1.0000
  H   H1234     1.0  0.91209  0.19599  0.76447  1.0000
  H   H1235     1.0  0.86351  0.30772  0.52528  1.0000
  H   H1236     1.0  0.67942  0.19820  0.54670  1.0000
  H   H1237     1.0  0.67864  0.16424  0.52306  1.0000
  C   C729      1.0  0.69674  0.21596  0.80571  1.0000
  C   C730      1.0  0.65333  0.28391  0.63232  1.0000
  C   C731      1.0  0.94589  0.99122  0.83996  1.0000
  H   H1238     1.0  0.70880  0.16267  0.52183  1.0000
  S   S209      1.0  0.65082  0.27145  0.71932  1.0000
  C   C732      1.0  0.92537  0.14376  0.73876  1.0000
  H   H1239     1.0  0.85904  0.46848  0.64738  1.0000
  N   N52       1.0  0.69580  0.48924  0.78142  1.0000
  C   C733      1.0  0.73361  0.30252  0.49729  1.0000
  C   C734      1.0  0.68592  0.17687  0.53904  1.0000
  H   H1240     1.0  0.82437  0.43463  0.83460  1.0000
  C   C735      1.0  0.82241  0.47507  0.61371  1.0000
  C   C736      1.0  0.93920  0.18598  0.71083  1.0000
  H   H1241     1.0  0.70017  0.21548  0.78329  1.0000
  C   C737      1.0  0.80815  0.45740  0.77870  1.0000
  H   H1242     1.0  0.90737  0.19664  0.70008  1.0000
  C   C738      1.0  0.66209  0.37494  0.56499  1.0000
  H   H1243     1.0  0.81264  0.41220  0.67730  1.0000
  H   H1244     1.0  0.68183  0.23618  0.51232  1.0000
  C   C739      1.0  0.83649  0.42581  0.82886  1.0000
  C   C740      1.0  0.91723  0.19939  0.74313  1.0000
  C   C741      1.0  0.64988  0.21771  0.80477  1.0000
  H   H1245     1.0  0.88270  0.34646  0.83454  1.0000
  H   H1246     1.0  0.73568  0.19490  0.52967  1.0000
  C   C742      1.0  0.81284  0.42689  0.65792  1.0000
  H   H1247     1.0  0.65068  0.36576  0.55623  1.0000
  H   H1248     1.0  0.65335  0.43446  0.54434  1.0000
  N   N53       1.0  0.85246  0.37299  0.82607  1.0000
  H   H1249     1.0  0.76856  0.36698  0.50941  1.0000
  H   H1250     1.0  0.70819  0.42132  0.76583  1.0000
  H   H1251     1.0  0.97374  0.21345  0.92909  1.0000
  C   C743      1.0  0.72651  0.48603  0.77135  1.0000
  H   H1252     1.0  0.95306  0.16701  0.76219  1.0000
  C   C744      1.0  0.97469  0.16590  0.49910  1.0000
  H   H1253     1.0  0.95366  0.22757  0.74802  1.0000
  H   H1254     1.0  0.64965  0.46129  0.80634  1.0000
  H   H1255     1.0  0.83017  0.45469  0.68187  1.0000
  C   C745      1.0  0.70288  0.18534  0.52824  1.0000
  C   C746      1.0  0.66800  0.17086  0.80760  1.0000
  H   H1256     1.0  0.70970  0.19358  0.54681  1.0000
  H   H1257     1.0  0.83203  0.45912  0.60568  1.0000
  H   H1258     1.0  0.80095  0.43827  0.65692  1.0000
  H   H1259     1.0  0.67805  0.25101  0.80198  1.0000
  H   H1260     1.0  0.79879  0.48912  0.64700  1.0000
  H   H1261     1.0  0.64626  0.23557  0.78885  1.0000
  H   H1262     1.0  0.85693  0.32807  0.77811  1.0000
  H   H1263     1.0  0.84226  0.25847  0.54681  1.0000
  H   H1264     1.0  0.88359  0.28869  0.57662  1.0000
  H   H1265     1.0  0.95626  0.99417  0.49881  1.0000
  H   H1266     1.0  0.69001  0.27274  0.54568  1.0000
  H   H1267     1.0  0.82453  0.45605  0.52334  1.0000
  H   H1268     1.0  0.84120  0.37584  0.78527  1.0000
  H   H1269     1.0  0.72994  0.23580  0.53645  1.0000
  H   H1270     1.0  0.86936  0.31992  0.57298  1.0000
  C   C747      1.0  0.67921  0.22634  0.81044  1.0000
  C   C748      1.0  0.70002  0.25723  0.53874  1.0000
  H   H1271     1.0  0.68698  0.16043  0.55715  1.0000
  C   C749      1.0  0.86311  0.35160  0.77806  1.0000
  C   C750      1.0  0.94875  0.21706  0.76752  1.0000
  C   C751      1.0  0.84992  0.33071  0.86538  1.0000
  C   C752      1.0  0.64320  0.43380  0.76981  1.0000
  C   C753      1.0  0.65156  0.27515  0.58180  1.0000
  H   H1272     1.0  0.73476  0.30577  0.51969  1.0000
  H   H1273     1.0  0.93237  0.17487  0.69329  1.0000
  H   H1274     1.0  0.92093  0.22492  0.74220  1.0000
  N   N54       1.0  0.87591  0.26263  0.51980  1.0000
  H   H1275     1.0  0.86043  0.32343  0.82521  1.0000
  H   H1276     1.0  0.71067  0.27263  0.53530  1.0000
  H   H1277     1.0  0.95856  0.21682  0.78318  1.0000
  H   H1278     1.0  0.64417  0.46616  0.61484  1.0000
  S   S210      1.0  0.66952  0.32276  0.50377  1.0000
  H   H1279     1.0  0.80668  0.47863  0.69731  1.0000
  H   H1280     1.0  0.86236  0.27984  0.57382  1.0000
  H   H1281     1.0  0.89640  0.20823  0.50531  1.0000
  H   H1282     1.0  0.67657  0.45426  0.77664  1.0000
  H   H1283     1.0  0.84964  0.30433  0.86795  1.0000
  H   H1284     1.0  0.88910  0.38219  0.81641  1.0000
  H   H1285     1.0  0.66878  0.38813  0.54852  1.0000
  H   H1286     1.0  0.92186  0.00950  0.84007  1.0000
  C   C754      1.0  0.87403  0.29479  0.53392  1.0000
  H   H1287     1.0  0.87548  0.34882  0.78575  1.0000
  H   H1288     1.0  0.94800  0.11840  0.74834  1.0000
  C   C755      1.0  0.90327  0.19588  0.72217  1.0000
  H   H1289     1.0  0.89621  0.17379  0.72607  1.0000
  H   H1290     1.0  0.89827  0.25262  0.54063  1.0000
  H   H1291     1.0  0.82082  0.40541  0.49707  1.0000
  C   C756      1.0  0.97100  0.14607  0.96190  1.0000
  H   H1292     1.0  0.85469  0.48761  0.61419  1.0000
  C   C757      1.0  0.85978  0.24782  0.51378  1.0000
  C   C758      1.0  0.94248  0.18268  0.76321  1.0000
  N   N55       1.0  0.93145  0.17776  0.73857  1.0000
  H   H1293     1.0  0.67684  0.17916  0.85069  1.0000
  H   H1294     1.0  0.83743  0.43800  0.65091  1.0000
  H   H1295     1.0  0.94228  0.11779  0.71165  1.0000
  C   C759      1.0  0.66848  0.20550  0.76661  1.0000
  H   H1296     1.0  0.83618  0.38846  0.85909  1.0000
  H   H1297     1.0  0.89091  0.37818  0.85388  1.0000
  H   H1298     1.0  0.70207  0.24120  0.55666  1.0000
  H   H1299     1.0  0.67935  0.16044  0.79949  1.0000
  C   C760      1.0  0.69505  0.23971  0.51164  1.0000
  H   H1300     1.0  0.66858  0.23056  0.75896  1.0000
  C   C761      1.0  0.88634  0.24113  0.53718  1.0000
  H   H1301     1.0  0.91924  0.13844  0.75907  1.0000
  H   H1302     1.0  0.66982  0.13968  0.84363  1.0000
  C   C762      1.0  0.93783  0.11741  0.73358  1.0000
  H   H1303     1.0  0.96131  0.15712  0.72005  1.0000
  C   C763      1.0  0.66751  0.16531  0.83942  1.0000
  H   H1304     1.0  0.93926  0.23268  0.77626  1.0000
  H   H1305     1.0  0.93632  0.17566  0.78304  1.0000
  H   H1306     1.0  0.85225  0.26467  0.50177  1.0000
  C   C764      1.0  0.65951  0.39512  0.59178  1.0000
  H   H1307     1.0  0.84095  0.21877  0.53241  1.0000
  C   C765      1.0  0.69742  0.43333  0.75733  1.0000
  C   C766      1.0  0.68975  0.45529  0.77954  1.0000
  H   H1308     1.0  0.86468  0.39158  0.86298  1.0000
  H   H1309     1.0  0.85840  0.40047  0.78875  1.0000
  H   H1310     1.0  0.68042  0.47072  0.83443  1.0000
  C   C767      1.0  0.64749  0.23526  0.83298  1.0000
  C   C768      1.0  0.85061  0.33825  0.83379  1.0000
  H   H1311     1.0  0.86066  0.33958  0.87664  1.0000
  H   H1312     1.0  0.87799  0.19408  0.52166  1.0000
  H   H1313     1.0  0.83885  0.33980  0.87540  1.0000
  C   C769      1.0  0.86668  0.38856  0.84004  1.0000
  S   S211      1.0  0.80076  0.34185  0.50281  1.0000
  H   H1314     1.0  0.83811  0.43072  0.80624  1.0000
  H   H1315     1.0  0.69146  0.44277  0.79983  1.0000
  S   S212      1.0  0.96991  0.10991  0.85974  1.0000
  H   H1316     1.0  0.86077  0.22694  0.49943  1.0000
  S   S213      1.0  0.64912  0.39724  0.78507  1.0000
  H   H1317     1.0  0.65357  0.25891  0.83279  1.0000
  C   C770      1.0  0.82067  0.45673  0.50174  1.0000
  H   H1318     1.0  0.71440  0.47205  0.80924  1.0000
  H   H1319     1.0  0.64366  0.44193  0.66001  1.0000
  N   N56       1.0  0.82462  0.48216  0.64445  1.0000
  H   H1320     1.0  0.65165  0.22164  0.85130  1.0000
  H   H1321     1.0  0.70817  0.31260  0.49706  1.0000
  H   H1322     1.0  0.65070  0.40448  0.64765  1.0000
  C   C771      1.0  0.65037  0.44290  0.61586  1.0000
  H   H1323     1.0  0.66307  0.44924  0.62067  1.0000
  C   C772      1.0  0.65290  0.48045  0.56444  1.0000
  H   H1324     1.0  0.96514  0.00818  0.53044  1.0000
  C   C773      1.0  0.71273  0.49038  0.79265  1.0000
  H   H1325     1.0  0.64329  0.19582  0.75381  1.0000
  H   H1326     1.0  0.94545  0.81114  0.21102  1.0000
  S   S214      1.0  0.81505  0.59253  0.44970  1.0000
  H   H1327     1.0  0.91382  0.69564  0.43450  1.0000
  H   H1328     1.0  0.84879  0.63359  0.38029  1.0000
  Fe  Fe108     1.0  0.79291  0.61773  0.46567  1.0000
  S   S215      1.0  0.76973  0.61483  0.44038  1.0000
  Fe  Fe109     1.0  0.82904  0.63537  0.46591  1.0000
  S   S216      1.0  0.85164  0.65289  0.44204  1.0000
  C   C774      1.0  0.93291  0.90066  0.30289  1.0000
  H   H1329     1.0  0.97079  0.83243  0.44365  1.0000
  S   S217      1.0  0.65987  0.62176  0.44451  1.0000
  H   H1330     1.0  0.80655  0.66496  0.31138  1.0000
  H   H1331     1.0  0.88526  0.72511  0.46030  1.0000
  H   H1332     1.0  0.81117  0.50946  0.45052  1.0000
  Fe  Fe110     1.0  0.93324  0.85541  0.38700  1.0000
  S   S218      1.0  0.95595  0.82773  0.38118  1.0000
  S   S219      1.0  0.93850  0.90740  0.39824  1.0000
  Fe  Fe111     1.0  0.91256  0.79391  0.38328  1.0000
  S   S220      1.0  0.93423  0.76289  0.37609  1.0000
  S   S221      1.0  0.88635  0.77835  0.39214  1.0000
  Fe  Fe112     1.0  0.94556  0.79191  0.41063  1.0000
  C   C775      1.0  0.96392  0.88655  0.27580  1.0000
  Fe  Fe113     1.0  0.94317  0.80155  0.34649  1.0000
  H   H1333     1.0  0.94835  0.97153  0.40864  1.0000
  S   S222      1.0  0.92369  0.82107  0.41916  1.0000
  S   S223      1.0  0.92061  0.83110  0.35104  1.0000
  H   H1334     1.0  0.94770  0.96556  0.32444  1.0000
  C   C776      1.0  0.71927  0.64233  0.47233  1.0000
  Fe  Fe114     1.0  0.67597  0.62838  0.48218  1.0000
  C   C777      1.0  0.95194  0.80356  0.25432  1.0000
  H   H1335     1.0  0.84543  0.66811  0.35891  1.0000
  H   H1336     1.0  0.93977  0.80522  0.26200  1.0000
  C   C778      1.0  0.91546  0.74306  0.45456  1.0000
  C   C779      1.0  0.91866  0.94549  0.36556  1.0000
  C   C780      1.0  0.93127  0.94396  0.38478  1.0000
  C   C781      1.0  0.93862  0.97245  0.39375  1.0000
  C   C782      1.0  0.97098  0.80493  0.21477  1.0000
  H   H1337     1.0  0.91277  0.92377  0.35880  1.0000
  C   C783      1.0  0.95975  0.95562  0.32884  1.0000
  C   C784      1.0  0.86086  0.68815  0.42798  1.0000
  C   C785      1.0  0.87595  0.68568  0.41475  1.0000
  C   C786      1.0  0.88392  0.71283  0.40373  1.0000
  C   C787      1.0  0.87687  0.74302  0.40556  1.0000
  C   C788      1.0  0.86163  0.74538  0.41829  1.0000
  C   C789      1.0  0.85373  0.71828  0.42958  1.0000
  H   H1338     1.0  0.88157  0.66255  0.41311  1.0000
  H   H1339     1.0  0.89547  0.71037  0.39358  1.0000
  H   H1340     1.0  0.85596  0.76849  0.41967  1.0000
  H   H1341     1.0  0.84215  0.72076  0.43957  1.0000
  C   C790      1.0  0.75051  0.62509  0.45389  1.0000
  C   C791      1.0  0.73734  0.60442  0.44985  1.0000
  C   C792      1.0  0.72184  0.61277  0.45934  1.0000
  H   H1342     1.0  0.96876  0.88189  0.04273  1.0000
  C   C793      1.0  0.89927  0.77251  0.48888  1.0000
  S   S224      1.0  0.65632  0.52587  0.43887  1.0000
  H   H1343     1.0  0.73912  0.58180  0.43934  1.0000
  H   H1344     1.0  0.89754  0.69322  0.47169  1.0000
  H   H1345     1.0  0.89140  0.78033  0.47132  1.0000
  S   S225      1.0  0.80663  0.66193  0.47856  1.0000
  C   C794      1.0  0.95523  0.80700  0.22538  1.0000
  H   H1346     1.0  0.81459  0.70440  0.31296  1.0000
  H   H1347     1.0  0.91968  0.80461  0.47832  1.0000
  H   H1348     1.0  0.90360  0.97643  0.34096  1.0000
  H   H1349     1.0  0.96046  0.86096  0.27604  1.0000
  N   N57       1.0  0.80908  0.65718  0.37338  1.0000
  C   C795      1.0  0.79694  0.66213  0.39658  1.0000
  C   C796      1.0  0.80437  0.62695  0.35815  1.0000
  C   C797      1.0  0.80821  0.68547  0.35388  1.0000
  C   C798      1.0  0.82540  0.65498  0.38669  1.0000
  C   C799      1.0  0.79766  0.69466  0.41190  1.0000
  C   C800      1.0  0.80463  0.59612  0.37573  1.0000
  H   H1350     1.0  0.95478  0.89841  0.26253  1.0000
  H   H1351     1.0  0.92230  0.89614  0.31644  1.0000
  H   H1352     1.0  0.78447  0.65926  0.38854  1.0000
  H   H1353     1.0  0.79824  0.64374  0.41316  1.0000
  C   C801      1.0  0.96443  0.79805  0.27320  1.0000
  H   H1354     1.0  0.79206  0.62929  0.34939  1.0000
  H   H1355     1.0  0.79553  0.69324  0.35139  1.0000
  H   H1356     1.0  0.81476  0.70635  0.36293  1.0000
  H   H1357     1.0  0.82877  0.67810  0.39659  1.0000
  H   H1358     1.0  0.82533  0.63816  0.40467  1.0000
  H   H1359     1.0  0.79480  0.71487  0.39787  1.0000
  H   H1360     1.0  0.78842  0.69469  0.42875  1.0000
  H   H1361     1.0  0.80939  0.69890  0.42213  1.0000
  H   H1362     1.0  0.80166  0.57549  0.36198  1.0000
  H   H1363     1.0  0.81666  0.59152  0.38461  1.0000
  H   H1364     1.0  0.79547  0.59630  0.39263  1.0000
  H   H1365     1.0  0.92515  0.76105  0.45533  1.0000
  C   C802      1.0  0.92300  0.71187  0.44355  1.0000
  H   H1366     1.0  0.94695  0.89861  0.34026  1.0000
  C   C803      1.0  0.91345  0.97538  0.35560  1.0000
  C   C804      1.0  0.96594  0.93577  0.30364  1.0000
  H   H1367     1.0  0.81211  0.62233  0.33970  1.0000
  C   C805      1.0  0.83968  0.64628  0.36761  1.0000
  S   S226      1.0  0.95836  0.76750  0.44663  1.0000
  H   H1368     1.0  0.75781  0.67109  0.46944  1.0000
  H   H1369     1.0  0.94753  0.86350  0.32025  1.0000
  H   H1370     1.0  0.92988  0.69911  0.45976  1.0000
  S   S227      1.0  0.96131  0.79541  0.31025  1.0000
  H   H1371     1.0  0.83670  0.62951  0.35052  1.0000
  C   C806      1.0  0.94813  0.89002  0.31847  1.0000
  C   C807      1.0  0.81454  0.68091  0.32373  1.0000
  H   H1372     1.0  0.95947  0.94519  0.28505  1.0000
  H   H1373     1.0  0.82695  0.67196  0.32287  1.0000
  C   C808      1.0  0.97293  0.80291  0.01187  1.0000
  H   H1374     1.0  0.93312  0.92644  0.29787  1.0000
  H   H1375     1.0  0.93234  0.94492  0.99080  1.0000
  H   H1376     1.0  0.71186  0.59653  0.45629  1.0000
  H   H1377     1.0  0.95943  0.94306  0.34911  1.0000
  H   H1378     1.0  0.93151  0.71771  0.42632  1.0000
  H   H1379     1.0  0.93104  0.88644  0.28350  1.0000
  H   H1380     1.0  0.90735  0.75199  0.43785  1.0000
  H   H1381     1.0  0.96768  0.97673  0.33183  1.0000
  Fe  Fe115     1.0  0.65516  0.57268  0.46299  1.0000
  H   H1382     1.0  0.96862  0.89140  0.36464  1.0000
  C   C809      1.0  0.74791  0.65455  0.46691  1.0000
  C   C810      1.0  0.89299  0.71715  0.47779  1.0000
  N   N58       1.0  0.90661  0.74057  0.48210  1.0000
  C   C811      1.0  0.73239  0.66318  0.47580  1.0000
  H   H1383     1.0  0.96767  0.80405  0.03259  1.0000
  N   N59       1.0  0.96382  0.89999  0.30523  1.0000
  C   C812      1.0  0.97099  0.79001  0.46894  1.0000
  S   S228      1.0  0.70019  0.65436  0.48530  1.0000
  H   H1384     1.0  0.73049  0.68630  0.48535  1.0000
  S   S229      1.0  0.97432  0.80971  0.17794  1.0000
  H   H1385     1.0  0.95003  0.80401  0.99060  1.0000
  H   H1386     1.0  0.97433  0.88062  0.07848  1.0000
  H   H1387     1.0  0.92959  0.90209  0.99001  1.0000
  H   H1388     1.0  0.77693  0.70221  0.53902  1.0000
  S   S230      1.0  0.93631  0.80918  0.80347  1.0000
  Fe  Fe116     1.0  0.95087  0.80062  0.88236  1.0000
  S   S231      1.0  0.92490  0.80754  0.86964  1.0000
  Fe  Fe117     1.0  0.92839  0.77167  0.83462  1.0000
  S   S232      1.0  0.91305  0.72742  0.82087  1.0000
  Fe  Fe118     1.0  0.93454  0.84432  0.83937  1.0000
  S   S233      1.0  0.92173  0.89207  0.83609  1.0000
  S   S234      1.0  0.95388  0.76212  0.84927  1.0000
  Fe  Fe119     1.0  0.80919  0.63659  0.51994  1.0000
  S   S235      1.0  0.80341  0.66095  0.56105  1.0000
  H   H1389     1.0  0.74239  0.64657  0.69331  1.0000
  Fe  Fe120     1.0  0.82566  0.63851  0.76592  1.0000
  S   S236      1.0  0.83315  0.59073  0.74832  1.0000
  S   S237      1.0  0.84254  0.68025  0.78012  1.0000
  Fe  Fe121     1.0  0.78930  0.62472  0.75179  1.0000
  S   S238      1.0  0.79484  0.57703  0.73264  1.0000
  S   S239      1.0  0.76417  0.64737  0.74985  1.0000
  Fe  Fe122     1.0  0.81122  0.57024  0.76930  1.0000
  S   S240      1.0  0.80923  0.52175  0.79035  1.0000
  Fe  Fe123     1.0  0.81617  0.60082  0.71298  1.0000
  S   S241      1.0  0.82440  0.58569  0.66975  1.0000
  S   S242      1.0  0.80464  0.61711  0.79011  1.0000
  S   S243      1.0  0.80967  0.64946  0.72887  1.0000
  H   H1390     1.0  0.75765  0.71479  0.54945  1.0000
  C   C813      1.0  0.76044  0.59803  0.59461  1.0000
  S   S244      1.0  0.82147  0.52177  0.50839  1.0000
  Fe  Fe124     1.0  0.66843  0.61336  0.76428  1.0000
  S   S245      1.0  0.66138  0.59283  0.72259  1.0000
  S   S246      1.0  0.69328  0.59581  0.77795  1.0000
  H   H1391     1.0  0.83385  0.51027  0.74829  1.0000
  H   H1392     1.0  0.90903  0.95576  0.83690  1.0000
  C   C814      1.0  0.76620  0.69471  0.55127  1.0000
  H   H1393     1.0  0.71969  0.66772  0.70846  1.0000
  C   C815      1.0  0.71062  0.66839  0.69154  1.0000
  H   H1394     1.0  0.94000  0.75397  0.73790  1.0000
  H   H1395     1.0  0.77150  0.58812  0.60409  1.0000
  C   C816      1.0  0.70575  0.57639  0.68826  1.0000
  H   H1396     1.0  0.75002  0.67170  0.52275  1.0000
  C   C817      1.0  0.76533  0.62506  0.57439  1.0000
  H   H1397     1.0  0.93849  0.71130  0.73645  1.0000
  N   N60       1.0  0.75191  0.64012  0.55808  1.0000
  H   H1398     1.0  0.73467  0.63819  0.59199  1.0000
  C   C818      1.0  0.74478  0.63263  0.75952  1.0000
  C   C819      1.0  0.73176  0.65388  0.75983  1.0000
  C   C820      1.0  0.71599  0.64320  0.76568  1.0000
  C   C821      1.0  0.71301  0.61098  0.77147  1.0000
  C   C822      1.0  0.72607  0.58982  0.77182  1.0000
  C   C823      1.0  0.74183  0.60047  0.76571  1.0000
  H   H1399     1.0  0.73391  0.67888  0.75553  1.0000
  H   H1400     1.0  0.70620  0.65997  0.76599  1.0000
  H   H1401     1.0  0.72402  0.56498  0.77667  1.0000
  H   H1402     1.0  0.75169  0.58383  0.76579  1.0000
  Fe  Fe125     1.0  0.65127  0.59818  0.52189  1.0000
  C   C824      1.0  0.74264  0.61543  0.54155  1.0000
  C   C825      1.0  0.80888  0.63962  0.59125  1.0000
  C   C826      1.0  0.81796  0.61183  0.58911  1.0000
  C   C827      1.0  0.82262  0.59557  0.61340  1.0000
  C   C828      1.0  0.81794  0.60656  0.63994  1.0000
  C   C829      1.0  0.80851  0.63394  0.64213  1.0000
  C   C830      1.0  0.80411  0.65062  0.61781  1.0000
  H   H1403     1.0  0.82164  0.60308  0.56875  1.0000
  H   H1404     1.0  0.83000  0.57458  0.61153  1.0000
  H   H1405     1.0  0.80471  0.64235  0.66252  1.0000
  H   H1406     1.0  0.79704  0.67209  0.61957  1.0000
  H   H1407     1.0  0.71604  0.61220  0.71522  1.0000
  H   H1408     1.0  0.73518  0.60018  0.55556  1.0000
  H   H1409     1.0  0.75984  0.60674  0.50733  1.0000
  H   H1410     1.0  0.64270  0.59887  0.66596  1.0000
  H   H1411     1.0  0.75057  0.62314  0.66566  1.0000
  C   C831      1.0  0.73994  0.62575  0.67953  1.0000
  C   C832      1.0  0.89322  0.71498  0.80997  1.0000
  C   C833      1.0  0.89042  0.68259  0.80312  1.0000
  C   C834      1.0  0.87510  0.67145  0.79442  1.0000
  C   C835      1.0  0.86215  0.69252  0.79233  1.0000
  C   C836      1.0  0.86498  0.72492  0.79907  1.0000
  C   C837      1.0  0.88030  0.73606  0.80773  1.0000
  H   H1412     1.0  0.90017  0.66584  0.80480  1.0000
  H   H1413     1.0  0.87331  0.64650  0.78944  1.0000
  H   H1414     1.0  0.85519  0.74164  0.79763  1.0000
  H   H1415     1.0  0.88206  0.76100  0.81288  1.0000
  C   C838      1.0  0.93133  0.93002  0.83626  1.0000
  C   C839      1.0  0.92196  0.95782  0.83723  1.0000
  H   H1416     1.0  0.69519  0.61523  0.71041  1.0000
  C   C840      1.0  0.95523  0.96342  0.83853  1.0000
  C   C841      1.0  0.94802  0.93304  0.83649  1.0000
  H   H1417     1.0  0.95540  0.91194  0.83537  1.0000
  N   N61       1.0  0.70942  0.63639  0.67707  1.0000
  H   H1418     1.0  0.95237  0.90949  0.96261  1.0000
  H   H1419     1.0  0.71837  0.65911  0.55286  1.0000
  H   H1420     1.0  0.67763  0.51100  0.84528  1.0000
  H   H1421     1.0  0.93618  0.85715  0.91161  1.0000
  H   H1422     1.0  0.69931  0.53158  0.75635  1.0000
  H   H1423     1.0  0.71503  0.68722  0.67702  1.0000
  H   H1424     1.0  0.91721  0.79644  0.51547  1.0000
  H   H1425     1.0  0.69027  0.66453  0.72147  1.0000
  H   H1426     1.0  0.86460  0.50898  0.64145  1.0000
  C   C842      1.0  0.92949  0.92414  0.97714  1.0000
  H   H1427     1.0  0.92426  0.97092  0.93069  1.0000
  S   S247      1.0  0.65744  0.66158  0.75587  1.0000
  H   H1428     1.0  0.67933  0.51846  0.71890  1.0000
  S   S248      1.0  0.65276  0.66462  0.67398  1.0000
  H   H1429     1.0  0.81173  0.52065  0.59993  1.0000
  Fe  Fe126     1.0  0.96129  0.80138  0.81930  1.0000
  S   S249      1.0  0.67241  0.57869  0.49858  1.0000
  C   C843      1.0  0.82168  0.50444  0.59430  1.0000
  H   H1430     1.0  0.74703  0.67260  0.59260  1.0000
  S   S250      1.0  0.79401  0.59465  0.50782  1.0000
  C   C844      1.0  0.72669  0.67494  0.56462  1.0000
  H   H1431     1.0  0.91140  0.73463  0.52630  1.0000
  H   H1432     1.0  0.79777  0.51677  0.69251  1.0000
  H   H1433     1.0  0.67006  0.52432  0.75199  1.0000
  C   C845      1.0  0.64439  0.59009  0.62145  1.0000
  H   H1434     1.0  0.96816  0.96545  0.83904  1.0000
  H   H1435     1.0  0.95954  0.66351  0.83287  1.0000
  H   H1436     1.0  0.93055  0.73331  0.76605  1.0000
  N   N62       1.0  0.93678  0.90622  0.92664  1.0000
  C   C846      1.0  0.67816  0.50817  0.74024  1.0000
  H   H1437     1.0  0.93636  0.68643  0.78766  1.0000
  H   H1438     1.0  0.76891  0.65276  0.52536  1.0000
  H   H1439     1.0  0.72766  0.65043  0.64698  1.0000
  Fe  Fe127     1.0  0.81688  0.57234  0.49309  1.0000
  H   H1440     1.0  0.77016  0.69223  0.57324  1.0000
  C   C847      1.0  0.75917  0.66392  0.53799  1.0000
  C   C848      1.0  0.74052  0.65615  0.57819  1.0000
  C   C849      1.0  0.72482  0.63033  0.66133  1.0000
  C   C850      1.0  0.69507  0.68087  0.70526  1.0000
  C   C851      1.0  0.95051  0.65960  0.81618  1.0000
  C   C852      1.0  0.94201  0.92227  0.95339  1.0000
  H   H1441     1.0  0.71951  0.68655  0.58137  1.0000
  C   C853      1.0  0.93456  0.74138  0.50658  1.0000
  C   C854      1.0  0.65380  0.63427  0.59321  1.0000
  H   H1442     1.0  0.73929  0.60381  0.69244  1.0000
  H   H1443     1.0  0.71519  0.51383  0.80300  1.0000
  H   H1444     1.0  0.95681  0.74929  0.78209  1.0000
  H   H1445     1.0  0.96944  0.65197  0.76503  1.0000
  C   C855      1.0  0.94800  0.69001  0.79861  1.0000
  H   H1446     1.0  0.81002  0.52472  0.64720  1.0000
  C   C856      1.0  0.75267  0.59317  0.52279  1.0000
  C   C857      1.0  0.70660  0.61111  0.69896  1.0000
  C   C858      1.0  0.65501  0.65319  0.61750  1.0000
  C   C859      1.0  0.69569  0.63562  0.65664  1.0000
  C   C860      1.0  0.80848  0.50226  0.68732  1.0000
  H   H1447     1.0  0.87362  0.69094  0.49788  1.0000
  H   H1448     1.0  0.69571  0.61304  0.64431  1.0000
  C   C861      1.0  0.64829  0.60276  0.59511  1.0000
  C   C862      1.0  0.92218  0.92170  0.91410  1.0000
  H   H1449     1.0  0.95375  0.63868  0.80316  1.0000
  H   H1450     1.0  0.69223  0.65370  0.61418  1.0000
  S   S251      1.0  0.95578  0.80057  0.93072  1.0000
  H   H1451     1.0  0.95030  0.66253  0.75174  1.0000
  H   H1452     1.0  0.72366  0.60908  0.64742  1.0000
  N   N63       1.0  0.85608  0.68774  0.69514  1.0000
  C   C863      1.0  0.84988  0.65392  0.69786  1.0000
  C   C864      1.0  0.84236  0.70961  0.70254  1.0000
  C   C865      1.0  0.86971  0.69179  0.71571  1.0000
  C   C866      1.0  0.86185  0.69232  0.66546  1.0000
  C   C867      1.0  0.86232  0.62716  0.69355  1.0000
  C   C868      1.0  0.82821  0.70978  0.68177  1.0000
  C   C869      1.0  0.87369  0.72590  0.72589  1.0000
  C   C870      1.0  0.86708  0.72633  0.65704  1.0000
  H   H1453     1.0  0.84454  0.65022  0.71903  1.0000
  H   H1454     1.0  0.84015  0.64890  0.68260  1.0000
  H   H1455     1.0  0.84623  0.73484  0.70445  1.0000
  H   H1456     1.0  0.83750  0.70359  0.72368  1.0000
  H   H1457     1.0  0.86727  0.67796  0.73518  1.0000
  H   H1458     1.0  0.88101  0.68171  0.70703  1.0000
  H   H1459     1.0  0.87243  0.67704  0.66119  1.0000
  H   H1460     1.0  0.85282  0.68356  0.65001  1.0000
  H   H1461     1.0  0.86695  0.62649  0.67177  1.0000
  H   H1462     1.0  0.87235  0.62872  0.70867  1.0000
  H   H1463     1.0  0.85632  0.60378  0.69720  1.0000
  H   H1464     1.0  0.81895  0.72652  0.68970  1.0000
  H   H1465     1.0  0.83190  0.71832  0.66074  1.0000
  H   H1466     1.0  0.82229  0.68621  0.67986  1.0000
  H   H1467     1.0  0.88466  0.72515  0.73903  1.0000
  H   H1468     1.0  0.86404  0.73530  0.73967  1.0000
  H   H1469     1.0  0.87605  0.74275  0.70862  1.0000
  H   H1470     1.0  0.88002  0.73022  0.66136  1.0000
  H   H1471     1.0  0.86006  0.74539  0.66725  1.0000
  H   H1472     1.0  0.86499  0.72957  0.63424  1.0000
  H   H1473     1.0  0.70438  0.56036  0.70663  1.0000
  H   H1474     1.0  0.69512  0.57228  0.67479  1.0000
  H   H1475     1.0  0.71682  0.56908  0.67716  1.0000
  C   C871      1.0  0.68522  0.50705  0.80184  1.0000
  H   H1476     1.0  0.93818  0.74502  0.52874  1.0000
  N   N64       1.0  0.96116  0.69859  0.77809  1.0000
  H   H1477     1.0  0.77474  0.61558  0.56005  1.0000
  S   S252      1.0  0.64515  0.57907  0.56504  1.0000
  H   H1478     1.0  0.75426  0.57803  0.58383  1.0000
  H   H1479     1.0  0.96032  0.68585  0.71210  1.0000
  H   H1480     1.0  0.68546  0.68012  0.64064  1.0000
  H   H1481     1.0  0.96114  0.80011  0.74379  1.0000
  C   C872      1.0  0.95688  0.73040  0.76557  1.0000
  H   H1482     1.0  0.90392  0.82253  0.49769  1.0000
  C   C873      1.0  0.81009  0.49976  0.65516  1.0000
  H   H1483     1.0  0.91122  0.91730  0.92667  1.0000
  H   H1484     1.0  0.77171  0.64310  0.58738  1.0000
  H   H1485     1.0  0.68407  0.63546  0.66821  1.0000
  S   S253      1.0  0.96004  0.83915  0.85330  1.0000
  H   H1486     1.0  0.75296  0.60697  0.61214  1.0000
  C   C874      1.0  0.96628  0.89378  0.91339  1.0000
  H   H1487     1.0  0.94647  0.89883  0.88510  1.0000
  H   H1488     1.0  0.91945  0.91087  0.89331  1.0000
  C   C875      1.0  0.69526  0.66334  0.63525  1.0000
  H   H1489     1.0  0.69773  0.70385  0.71602  1.0000
  H   H1490     1.0  0.68562  0.68583  0.68968  1.0000
  H   H1491     1.0  0.70657  0.67697  0.63310  1.0000
  H   H1492     1.0  0.84115  0.50651  0.67230  1.0000
  H   H1493     1.0  0.73393  0.62707  0.52729  1.0000
  H   H1494     1.0  0.97217  0.90633  0.93106  1.0000
  H   H1495     1.0  0.73100  0.69420  0.55059  1.0000
  Fe  Fe128     1.0  0.64915  0.63934  0.71531  1.0000
  S   S254      1.0  0.65583  0.64856  0.50847  1.0000
  H   H1496     1.0  0.65688  0.64424  0.57301  1.0000
  H   H1497     1.0  0.91178  0.96651  0.90062  1.0000
  H   H1498     1.0  0.74446  0.57746  0.51061  1.0000
  H   H1499     1.0  0.91279  0.87311  0.95961  1.0000
  C   C876      1.0  0.93391  0.87091  0.93125  1.0000
  H   H1500     1.0  0.94685  0.94671  0.94943  1.0000
  H   H1501     1.0  0.76061  0.57739  0.53505  1.0000
  H   H1502     1.0  0.94253  0.86133  0.94684  1.0000
  H   H1503     1.0  0.97513  0.72100  0.81095  1.0000
  C   C877      1.0  0.96246  0.67230  0.75649  1.0000
  H   H1504     1.0  0.96565  0.79662  0.69231  1.0000
  H   H1505     1.0  0.96597  0.73863  0.75035  1.0000
  H   H1506     1.0  0.94597  0.70991  0.81363  1.0000
  C   C878      1.0  0.91703  0.72890  0.50572  1.0000
  H   H1507     1.0  0.93908  0.65371  0.82711  1.0000
  C   C879      1.0  0.94052  0.73185  0.75064  1.0000
  C   C880      1.0  0.95020  0.90945  0.90549  1.0000
  C   C881      1.0  0.92309  0.95826  0.91036  1.0000
  C   C882      1.0  0.65106  0.64051  0.64384  1.0000
  H   H1508     1.0  0.83724  0.52752  0.64114  1.0000
  H   H1509     1.0  0.95311  0.93487  0.90113  1.0000
  C   C883      1.0  0.83914  0.50304  0.64945  1.0000
  H   H1510     1.0  0.88835  0.70462  0.52226  1.0000
  H   H1511     1.0  0.89144  0.77095  0.50768  1.0000
  H   H1512     1.0  0.93286  0.96586  0.89608  1.0000
  S   S255      1.0  0.64585  0.59541  0.78584  1.0000
  H   H1513     1.0  0.72775  0.50719  0.75754  1.0000
  H   H1514     1.0  0.83314  0.51797  0.59396  1.0000
  H   H1515     1.0  0.65893  0.67778  0.61585  1.0000
  H   H1516     1.0  0.91742  0.83443  0.94614  1.0000
  C   C884      1.0  0.91705  0.86024  0.94081  1.0000
  H   H1517     1.0  0.90825  0.86265  0.92353  1.0000
  S   S256      1.0  0.83236  0.61303  0.50853  1.0000
  H   H1518     1.0  0.68848  0.53290  0.80231  1.0000
  H   H1519     1.0  0.96499  0.86803  0.91819  1.0000
  C   C885      1.0  0.88175  0.71126  0.50305  1.0000
  H   H1520     1.0  0.94295  0.72326  0.49810  1.0000
  C   C886      1.0  0.96925  0.80101  0.96041  1.0000
  H   H1521     1.0  0.67247  0.50600  0.79530  1.0000
  C   C887      1.0  0.96425  0.98721  0.51633  1.0000
  H   H1522     1.0  0.95821  0.96722  0.52738  1.0000
  H   H1523     1.0  0.97115  0.88787  0.74658  1.0000
  C   C888      1.0  0.92919  0.98832  0.83906  1.0000
  H   H1524     1.0  0.81889  0.51462  0.69693  1.0000
  H   H1525     1.0  0.81952  0.49626  0.57243  1.0000
  H   H1526     1.0  0.91789  0.70238  0.50480  1.0000
  H   H1527     1.0  0.69755  0.49642  0.84185  1.0000
  C   C889      1.0  0.64585  0.60882  0.64577  1.0000
  C   C890      1.0  0.69491  0.50657  0.75379  1.0000
  C   C891      1.0  0.96289  0.80292  0.98785  1.0000
  H   H1528     1.0  0.87385  0.73194  0.50719  1.0000
  C   C892      1.0  0.68542  0.49520  0.83246  1.0000
  H   H1529     1.0  0.93679  0.76427  0.49586  1.0000
  C   C893      1.0  0.91092  0.80020  0.49532  1.0000
  C   C894      1.0  0.97322  0.79904  0.73554  1.0000
  C   C895      1.0  0.96987  0.68128  0.72772  1.0000
  H   H1530     1.0  0.91718  0.92857  0.96968  1.0000
  H   H1531     1.0  0.65884  0.49354  0.58184  1.0000
  H   H1532     1.0  0.97457  0.89559  0.89517  1.0000
  H   H1533     1.0  0.65774  0.49081  0.54469  1.0000
  H   H1534     1.0  0.64232  0.51357  0.78561  1.0000
  H   H1535     1.0  0.97368  0.75169  0.49858  1.0000
  H   H1536     1.0  0.70297  0.49608  0.73782  1.0000
  C   C896      1.0  0.85512  0.49086  0.63722  1.0000
