data_image0
_chemical_formula_structural       SFeS2FeS2FeSFeS4FeHSHFeH2CHCH2SHSHFeSFeSH3SH2CHC2H2CHSHNHSC6H5C3FeCH4C6H4C6H4C6H5CH2CHCHCH4CH3CNFeH2CHCH2C2H2SCH3CSH4C2NHC3H2CHCHNH3CHNH3C2H4CHC2HCH2NH10C2H4FeHCH2C2HSCSHC2SC2HCH4C2HNH2SH7CHFeCH3NCHFeH5CSHSCHNHCH7CHCHC2HCHC4H6CHCHCH5CH2CH3NH2C2HCH2CHSCH4CHFeH4CH2FeHSHCSHSH6SH2CHCSHFeSFeS2FeHFeS3H2CFeCSH3CS2CSHCHSH2CSC6HCH2C6H4C6FeCH2C3HCHCH3CHCH2CHCH2FeCSCH6NC5H13NC8H20SNC4HCH6C2NFeCHSH10CH7CHSHCHNHSHCHCHFeH4CH8CHCH2C2HFeSC2H5CH2CH4CHCH2C3HC2SHCSCH2C2NHCH2S3FeS2FeH2FeHFeS3C6H3C3FeH2NCHCH4CH2C5H2CH4CFeCHCH3CHC2H3C2H2C2H7FeCH2CHCH5CH10CHSC2H2CH2CH2CHCSNCH2CH2C2H4SCH2CS2CSH5C2HNCH5FeS2FeS2FeSFeS4FeHSHSH5S3HSCFeSFeSH3C3H2CH5CHCH2C6H5SC3H5C6H4C6H4C6FeH3NC2HC2H2CH11CH4CHCHCHC4H4FeSH2FeH2C2H6C2H3CH5C2H3CHFeSHC2H3CHCSH4CH4CH12CSCHNHCHC2H4C2H2NC2H5Fe2NC8H12CSHNHCHCH2SH2CHC2HNHSHCH3C3HCHCHCH6CH2FeCHCSFeHSFeSH4FeHFeH2SHCHCFeSFeS2FeCFeS3HSHFeCSCHCHS2CHC4H2C6HCH2CHC6H4CH2C3SH3C2HSC3HCHCH4CSHNCSC2H2CH2FeHNC8H12CHCH5NSHC2HCHC2H8C2SH3CH12CHCNCFeSCHNCH3CHCH2CSH2C2H4CH4CH2CHNH3SHCH6C2H2CH3S2CFeS2FeHSFeHFeS3C6H4C2SH2SCHC2NHC2H2C5HSC2FeCH6CH3FeH2CH3SHCHCH5CSH3CH7CH2CHCH2CH2FeC2HCSC2H6CH3CH7SCHCH2C2HCHCHCH2C2FeS2FeS2FeSFeS4FeHSC2HCH4S2HSCFeSFeS2H6FeHC2H2FeCH3C7H4C5HCSH2C6H4C6H4C6H8CH6CH2CH5C2H2CH2CHCNH6C2SHCH8CNC5H12C2HSCHC3HC2HC7H3C2H3CH2CHCH3SHCNH2CHSHCHCHC3HSH3CH5CSCH3FeH3NH3SH10NCH6NH4C2H3CH2CNH4FeH2NH2CH4FeCH5CHCHC2H4CH2SH2CFeHSHCSFeSHNCHC2H4CHSHFeSFeS2FeCFeS3HSCFeHSCH3S2H2C4HCH2C3NC2HCH2C6H4CFeHC3H4CH3C2NH2NCSCHC2SH3FeCH3C2H2CH6CHCH3FeH2CHC2H2CHC4H2SHC3H4SH5SCHSH5CH2CSH2SHC3H5C2HFeH4SH4CSNHCHFeC2H7C2SC2H4C2H3CH8C2H2CFeHC2H4C2H2CHS2FeHS3FeS2FeH2FeHFeS3C6H3C5HC2H2CFeHNH2FeC5HSH5CHCH4SH5CSCH2CH4NC2SH3CH3CHSH3C4H3FeC2H3CHCH2C2H4FeS2FeS2FeSFeS4FeCSC2NCHCH2S2FeSCFeSFeSH3CHSH4CH3CH2CHC6H6C2HC2H2FeC6H4C6H4C6SH4C2HCH2SH2FeH3CH13NC8H20CHNH2C2H3NH2C2HC2H2CH4CH2CH6C2H8FeH2CHC2H3CNC2HC2H3CSCHCSCHCSCH2CH3C2H2SCSH5SCHNHCHN2H2CHFeHSHCHCH4CHCH2C2H7SFeH7CH5SNSH2SHCH2CHFeH4CH2SHFeSFeS2FeHFeS3CFeHFeHS2H3S2H2C2H3CH2C3H2SH4C6H5CHCHFeSH3CHCHC4H2CSC2NC4S2C6HC2NCH4CH2SCSHC3H2CHCH4C2H3CH2FeHCHCH3FeH2CNH2C2HCH6C2H2CH5CHSFeC2H2CH2CH4C3H2CH4CHCHSH2CHC2H2NC3HC2HCH2SH2CH2CNH2CHCH4SH2FeS2FeC2FeHFeS3C6H4C2H3C2HSCH5C6H2SHCHCH2CHCH11C2H3NCNHCHFeC2H3CNC4HC3H8CH3CSH7CH3CSC2H2FeCHCH3CH2FeHSCHCH3CH4CSH4C2HCH3
_chemical_formula_sum              "S256 Fe128 H1536 C896 N64"
_cell_length_a       47.5586
_cell_length_b       46.3826
_cell_length_c       42.0801
_cell_angle_alpha    82.6712
_cell_angle_beta     87.936
_cell_angle_gamma    124.516

_space_group_name_H-M_alt    "P 1"
_space_group_IT_number       1

loop_
  _space_group_symop_operation_xyz
  'x, y, z'

loop_
  _atom_site_type_symbol
  _atom_site_label
  _atom_site_symmetry_multiplicity
  _atom_site_fract_x
  _atom_site_fract_y
  _atom_site_fract_z
  _atom_site_occupancy
  S   S1        1.0  0.32313  0.02994  0.26927  1.0000
  Fe  Fe1       1.0  0.17626  0.23050  0.08456  1.0000
  S   S2        1.0  0.15235  0.18638  0.05480  1.0000
  S   S3        1.0  0.20325  0.28979  0.06520  1.0000
  Fe  Fe2       1.0  0.15296  0.17779  0.14539  1.0000
  S   S4        1.0  0.12800  0.12997  0.12165  1.0000
  S   S5        1.0  0.14971  0.16994  0.19881  1.0000
  Fe  Fe3       1.0  0.17539  0.16308  0.08558  1.0000
  S   S6        1.0  0.20067  0.13800  0.06611  1.0000
  Fe  Fe4       1.0  0.10630  0.15619  0.09387  1.0000
  S   S7        1.0  0.05005  0.11804  0.08549  1.0000
  S   S8        1.0  0.20239  0.20922  0.11196  1.0000
  S   S9        1.0  0.12854  0.20230  0.12025  1.0000
  S   S10       1.0  0.30913  0.17149  0.19520  1.0000
  Fe  Fe5       1.0  0.37504  0.25923  0.00785  1.0000
  H   H1        1.0  0.10789  0.08985  0.19086  1.0000
  S   S11       1.0  0.37304  0.27301  0.05754  1.0000
  H   H2        1.0  0.40658  0.41093  0.22455  1.0000
  Fe  Fe6       1.0  0.29937  0.46740  0.14741  1.0000
  H   H3        1.0  0.30930  0.08088  0.24367  1.0000
  H   H4        1.0  0.43188  0.02966  0.05206  1.0000
  C   C1        1.0  0.27768  0.28798  0.04225  1.0000
  H   H5        1.0  0.28891  0.31036  0.12932  1.0000
  C   C2        1.0  0.34029  0.38778  0.21245  1.0000
  H   H6        1.0  0.41403  0.16747  0.10905  1.0000
  H   H7        1.0  0.11878  0.02946  0.02227  1.0000
  S   S12       1.0  0.28870  0.41225  0.14891  1.0000
  H   H8        1.0  0.23313  0.08299  0.23335  1.0000
  S   S13       1.0  0.33561  0.06940  0.18003  1.0000
  H   H9        1.0  0.35225  0.37308  0.21208  1.0000
  Fe  Fe7       1.0  0.28565  0.03821  0.15967  1.0000
  S   S14       1.0  0.25444  0.06229  0.15782  1.0000
  Fe  Fe8       1.0  0.35565  0.04718  0.14884  1.0000
  S   S15       1.0  0.40977  0.09110  0.12194  1.0000
  H   H10       1.0  0.40348  0.06436  0.04958  1.0000
  H   H11       1.0  0.29265  0.27124  0.22864  1.0000
  H   H12       1.0  0.25627  0.11543  0.98588  1.0000
  S   S16       1.0  0.26118  0.47691  0.16794  1.0000
  H   H13       1.0  0.43044  0.46873  0.14452  1.0000
  H   H14       1.0  0.17355  0.05745  0.28672  1.0000
  C   C3        1.0  0.10780  0.08309  0.03029  1.0000
  H   H15       1.0  0.45426  0.07284  0.05998  1.0000
  C   C4        1.0  0.44451  0.05771  0.03997  1.0000
  C   C5        1.0  0.02406  0.15147  0.01105  1.0000
  H   H16       1.0  0.06310  0.06486  0.00555  1.0000
  H   H17       1.0  0.12090  0.09972  0.23929  1.0000
  C   C6        1.0  0.39576  0.48281  0.00806  1.0000
  H   H18       1.0  0.14960  0.07828  0.20988  1.0000
  S   S17       1.0  0.37026  0.22918  0.26123  1.0000
  H   H19       1.0  0.36322  0.46510  0.27267  1.0000
  N   N1        1.0  0.22225  0.04058  0.27195  1.0000
  H   H20       1.0  0.05594  0.03797  0.04321  1.0000
  S   S18       1.0  0.30869  0.14465  0.28465  1.0000
  C   C7        1.0  0.32761  0.20008  0.15714  1.0000
  C   C8        1.0  0.35529  0.23575  0.15406  1.0000
  C   C9        1.0  0.36907  0.25765  0.12332  1.0000
  C   C10       1.0  0.35590  0.24390  0.09534  1.0000
  C   C11       1.0  0.32844  0.20813  0.09838  1.0000
  C   C12       1.0  0.31422  0.18647  0.12918  1.0000
  H   H21       1.0  0.36624  0.24639  0.17531  1.0000
  H   H22       1.0  0.39033  0.28533  0.12116  1.0000
  H   H23       1.0  0.31786  0.19719  0.07713  1.0000
  H   H24       1.0  0.29305  0.15884  0.13134  1.0000
  H   H25       1.0  0.00860  0.04623  0.19592  1.0000
  C   C13       1.0  0.25543  0.23048  0.02710  1.0000
  C   C14       1.0  0.45667  0.07278  0.12258  1.0000
  C   C15       1.0  0.45158  0.09987  0.11976  1.0000
  Fe  Fe9       1.0  0.35586  0.18594  0.30369  1.0000
  C   C16       1.0  0.39346  0.19188  0.05694  1.0000
  H   H26       1.0  0.23866  0.09467  0.27249  1.0000
  H   H27       1.0  0.43470  0.04527  0.12827  1.0000
  H   H28       1.0  0.37718  0.37012  0.27366  1.0000
  H   H29       1.0  0.30753  0.24202  0.02718  1.0000
  C   C17       1.0  0.21621  0.11760  0.09168  1.0000
  C   C18       1.0  0.21439  0.11682  0.12506  1.0000
  C   C19       1.0  0.22601  0.09962  0.14479  1.0000
  C   C20       1.0  0.24031  0.08357  0.13142  1.0000
  C   C21       1.0  0.24241  0.08460  0.09798  1.0000
  C   C22       1.0  0.23041  0.10149  0.07826  1.0000
  H   H30       1.0  0.20414  0.12960  0.13568  1.0000
  H   H31       1.0  0.22467  0.09946  0.17054  1.0000
  H   H32       1.0  0.25277  0.07187  0.08745  1.0000
  H   H33       1.0  0.23191  0.10186  0.05250  1.0000
  C   C23       1.0  0.22513  0.32330  0.08948  1.0000
  C   C24       1.0  0.23127  0.31559  0.12063  1.0000
  C   C25       1.0  0.25023  0.34307  0.13855  1.0000
  C   C26       1.0  0.26272  0.37849  0.12596  1.0000
  C   C27       1.0  0.25604  0.38611  0.09501  1.0000
  C   C28       1.0  0.23764  0.35873  0.07681  1.0000
  H   H34       1.0  0.22150  0.28848  0.13084  1.0000
  H   H35       1.0  0.25500  0.33689  0.16252  1.0000
  H   H36       1.0  0.26554  0.41320  0.08487  1.0000
  H   H37       1.0  0.23303  0.36508  0.05279  1.0000
  C   C29       1.0  0.03637  0.11764  0.23055  1.0000
  C   C30       1.0  0.05949  0.12866  0.25345  1.0000
  C   C31       1.0  0.09468  0.14582  0.24377  1.0000
  C   C32       1.0  0.10643  0.15113  0.21129  1.0000
  C   C33       1.0  0.08311  0.13992  0.18863  1.0000
  C   C34       1.0  0.04828  0.12401  0.19807  1.0000
  H   H38       1.0  0.05041  0.12366  0.27868  1.0000
  H   H39       1.0  0.11251  0.15410  0.26148  1.0000
  H   H40       1.0  0.09126  0.14196  0.16394  1.0000
  H   H41       1.0  0.11176  0.19609  0.99295  1.0000
  H   H42       1.0  0.20422  0.21452  0.98671  1.0000
  C   C35       1.0  0.41833  0.43520  0.20569  1.0000
  H   H43       1.0  0.12551  0.10368  0.00921  1.0000
  H   H44       1.0  0.27301  0.19809  0.04577  1.0000
  C   C36       1.0  0.07393  0.05253  0.02031  1.0000
  H   H45       1.0  0.22829  0.24135  0.16768  1.0000
  C   C37       1.0  0.13440  0.06449  0.19077  1.0000
  H   H46       1.0  0.46462  0.14931  0.25135  1.0000
  C   C38       1.0  0.02910  0.04217  0.19079  1.0000
  H   H47       1.0  0.21630  0.02631  0.22398  1.0000
  H   H48       1.0  0.31626  0.37306  0.20113  1.0000
  H   H49       1.0  0.38098  0.13398  0.03109  1.0000
  H   H50       1.0  0.01663  0.01589  0.18337  1.0000
  C   C39       1.0  0.42823  0.15379  0.04926  1.0000
  H   H51       1.0  0.09807  0.22440  0.04991  1.0000
  H   H52       1.0  0.41825  0.03125  0.22366  1.0000
  H   H53       1.0  0.09023  0.08140  0.27487  1.0000
  C   C40       1.0  0.33847  0.28736  0.19955  1.0000
  N   N2        1.0  0.07637  0.02743  0.00265  1.0000
  Fe  Fe10      1.0  0.32095  0.18828  0.24424  1.0000
  H   H54       1.0  0.39547  0.05831  0.24546  1.0000
  H   H55       1.0  0.37596  0.20016  0.06121  1.0000
  C   C41       1.0  0.10088  0.06240  0.19167  1.0000
  H   H56       1.0  0.44844  0.21633  0.06358  1.0000
  C   C42       1.0  0.42852  0.22147  0.06595  1.0000
  H   H57       1.0  0.15056  0.08056  0.16729  1.0000
  H   H58       1.0  0.48362  0.13026  0.03585  1.0000
  C   C43       1.0  0.04658  0.04437  0.22145  1.0000
  C   C44       1.0  0.47455  0.13830  0.23593  1.0000
  H   H59       1.0  0.26363  0.44701  0.26216  1.0000
  H   H60       1.0  0.02594  0.02624  0.24186  1.0000
  S   S19       1.0  0.35094  0.29661  0.28538  1.0000
  C   C45       1.0  0.45608  0.46033  0.21167  1.0000
  H   H61       1.0  0.09116  0.05553  0.16816  1.0000
  H   H62       1.0  0.42617  0.22627  0.09071  1.0000
  H   H63       1.0  0.20383  0.24722  0.21658  1.0000
  C   C46       1.0  0.37091  0.16452  0.13176  1.0000
  S   S20       1.0  0.26479  0.99059  0.19898  1.0000
  H   H64       1.0  0.17481  0.00741  0.30539  1.0000
  H   H65       1.0  0.44742  0.04224  0.18927  1.0000
  H   H66       1.0  0.01837  0.24042  0.02365  1.0000
  H   H67       1.0  0.32626  0.10642  0.09129  1.0000
  C   C47       1.0  0.28300  0.07296  0.23998  1.0000
  C   C48       1.0  0.36406  0.42595  0.19293  1.0000
  N   N3        1.0  0.44549  0.10593  0.22454  1.0000
  H   H68       1.0  0.16967  0.04797  0.24595  1.0000
  C   C49       1.0  0.41901  0.08088  0.25321  1.0000
  C   C50       1.0  0.42845  0.11569  0.20022  1.0000
  C   C51       1.0  0.45998  0.08878  0.20874  1.0000
  H   H69       1.0  0.40192  0.46361  0.01684  1.0000
  H   H70       1.0  0.28546  0.23351  0.06700  1.0000
  C   C52       1.0  0.41473  0.13653  0.21127  1.0000
  H   H71       1.0  0.45107  0.08613  0.29155  1.0000
  C   C53       1.0  0.41505  0.05987  0.02901  1.0000
  H   H72       1.0  0.48387  0.01272  0.03127  1.0000
  N   N4        1.0  0.05965  0.18217  0.99522  1.0000
  H   H73       1.0  0.40995  0.09436  0.26593  1.0000
  H   H74       1.0  0.44604  0.13124  0.17720  1.0000
  H   H75       1.0  0.40600  0.09137  0.19342  1.0000
  C   C54       1.0  0.48060  0.13541  0.11190  1.0000
  H   H76       1.0  0.44069  0.15923  0.07150  1.0000
  N   N5        1.0  0.07332  0.03670  0.21953  1.0000
  H   H77       1.0  0.37690  0.10800  0.06817  1.0000
  H   H78       1.0  0.00908  0.18236  0.24344  1.0000
  H   H79       1.0  0.06456  0.23166  0.05232  1.0000
  C   C55       1.0  0.22213  0.07253  0.25935  1.0000
  C   C56       1.0  0.41611  0.48661  0.18520  1.0000
  H   H80       1.0  0.40414  0.14323  0.19085  1.0000
  H   H81       1.0  0.43513  0.16197  0.21814  1.0000
  H   H82       1.0  0.39322  0.12031  0.23139  1.0000
  H   H83       1.0  0.29906  0.28824  0.05242  1.0000
  C   C57       1.0  0.01210  0.11252  0.10304  1.0000
  H   H84       1.0  0.04748  0.06359  0.17038  1.0000
  C   C58       1.0  0.26742  0.21898  0.19531  1.0000
  C   C59       1.0  0.24154  0.18911  0.17774  1.0000
  H   H85       1.0  0.42342  0.08249  0.00946  1.0000
  C   C60       1.0  0.22517  0.24392  0.21823  1.0000
  H   H86       1.0  0.25670  0.21080  0.22121  1.0000
  H   H87       1.0  0.29049  0.21861  0.19434  1.0000
  N   N6        1.0  0.27733  0.25578  0.18234  1.0000
  H   H88       1.0  0.21692  0.18647  0.17782  1.0000
  H   H89       1.0  0.25252  0.19259  0.15270  1.0000
  H   H90       1.0  0.23550  0.16339  0.19065  1.0000
  H   H91       1.0  0.39689  0.19377  0.03025  1.0000
  H   H92       1.0  0.35550  0.30843  0.21342  1.0000
  H   H93       1.0  0.10463  0.03077  0.25270  1.0000
  H   H94       1.0  0.21287  0.21519  0.22693  1.0000
  H   H95       1.0  0.31586  0.34369  0.01906  1.0000
  H   H96       1.0  0.24061  0.25935  0.23648  1.0000
  H   H97       1.0  0.05806  0.07144  0.22691  1.0000
  C   C61       1.0  0.01339  0.13600  0.12179  1.0000
  C   C62       1.0  0.38590  0.15217  0.10815  1.0000
  H   H98       1.0  0.37572  0.12428  0.11883  1.0000
  H   H99       1.0  0.03801  0.15772  0.12697  1.0000
  H   H100      1.0  0.34307  0.14370  0.13988  1.0000
  H   H101      1.0  0.34081  0.15112  0.02397  1.0000
  Fe  Fe11      1.0  0.48538  0.02716  0.29117  1.0000
  H   H102      1.0  0.29850  0.12166  0.04570  1.0000
  C   C63       1.0  0.38921  0.13593  0.05556  1.0000
  H   H103      1.0  0.43833  0.24688  0.04947  1.0000
  H   H104      1.0  0.08559  0.16983  0.02967  1.0000
  C   C64       1.0  0.43341  0.05133  0.20150  1.0000
  C   C65       1.0  0.08496  0.17355  0.00320  1.0000
  H   H105      1.0  0.32011  0.30898  0.10608  1.0000
  S   S21       1.0  0.34071  0.20840  0.98895  1.0000
  C   C66       1.0  0.07770  0.13974  0.99252  1.0000
  S   S22       1.0  0.28943  0.20206  0.27056  1.0000
  H   H106      1.0  0.27256  0.24906  0.13236  1.0000
  C   C67       1.0  0.30284  0.28106  0.20245  1.0000
  C   C68       1.0  0.33894  0.13320  0.07581  1.0000
  S   S23       1.0  0.30638  0.01845  0.12551  1.0000
  C   C69       1.0  0.24632  0.25701  0.18448  1.0000
  C   C70       1.0  0.26654  0.45707  0.28453  1.0000
  H   H107      1.0  0.05508  0.22572  0.99922  1.0000
  C   C71       1.0  0.29251  0.26586  0.14734  1.0000
  H   H108      1.0  0.31223  0.26031  0.14412  1.0000
  H   H109      1.0  0.30700  0.30743  0.19697  1.0000
  H   H110      1.0  0.12132  0.07364  0.04419  1.0000
  H   H111      1.0  0.17769  0.00551  0.24946  1.0000
  C   C72       1.0  0.20311  0.02511  0.30592  1.0000
  C   C73       1.0  0.37463  0.33047  0.30874  1.0000
  H   H112      1.0  0.12827  0.08166  0.27466  1.0000
  N   N7        1.0  0.47356  0.06877  0.01450  1.0000
  H   H113      1.0  0.48866  0.13107  0.25183  1.0000
  H   H114      1.0  0.21545  0.25430  0.02347  1.0000
  S   S24       1.0  0.99235  0.09048  0.24300  1.0000
  H   H115      1.0  0.38399  0.16925  0.15375  1.0000
  H   H116      1.0  0.19067  0.09250  0.25289  1.0000
  H   H117      1.0  0.47775  0.08685  0.22378  1.0000
  H   H118      1.0  0.32905  0.14649  0.08766  1.0000
  H   H119      1.0  0.33679  0.26331  0.21050  1.0000
  H   H120      1.0  0.39466  0.03467  0.02160  1.0000
  H   H121      1.0  0.32958  0.32430  0.14353  1.0000
  C   C74       1.0  0.07183  0.21468  0.04397  1.0000
  H   H122      1.0  0.27425  0.05548  0.22171  1.0000
  Fe  Fe12      1.0  0.33799  0.24027  0.29093  1.0000
  C   C75       1.0  0.30857  0.30469  0.13114  1.0000
  H   H123      1.0  0.44093  0.17841  0.03074  1.0000
  H   H124      1.0  0.41567  0.05130  0.18522  1.0000
  H   H125      1.0  0.40991  0.41924  0.30472  1.0000
  N   N8        1.0  0.37767  0.15417  0.07400  1.0000
  C   C76       1.0  0.38415  0.36500  0.29675  1.0000
  H   H126      1.0  0.47720  0.15671  0.10967  1.0000
  Fe  Fe13      1.0  0.31554  0.02073  0.21744  1.0000
  H   H127      1.0  0.35156  0.29662  0.17441  1.0000
  H   H128      1.0  0.06684  0.02262  0.27165  1.0000
  H   H129      1.0  0.41525  0.47444  0.24833  1.0000
  H   H130      1.0  0.37442  0.18955  0.12104  1.0000
  H   H131      1.0  0.12973  0.03803  0.19265  1.0000
  C   C77       1.0  0.05778  0.99934  0.21368  1.0000
  S   S25       1.0  0.01734  0.03969  0.30205  1.0000
  H   H132      1.0  0.41836  0.42575  0.18271  1.0000
  S   S26       1.0  0.33905  0.00048  0.18797  1.0000
  C   C78       1.0  0.29080  0.32735  0.03492  1.0000
  H   H133      1.0  0.33256  0.38723  0.23780  1.0000
  N   N9        1.0  0.26697  0.26807  0.01435  1.0000
  H   H134      1.0  0.26149  0.03134  0.28097  1.0000
  C   C79       1.0  0.20472  0.01412  0.24967  1.0000
  H   H135      1.0  0.28584  0.09797  0.23041  1.0000
  H   H136      1.0  0.36767  0.46791  0.00667  1.0000
  H   H137      1.0  0.25415  0.28463  0.17670  1.0000
  H   H138      1.0  0.34894  0.43749  0.19056  1.0000
  H   H139      1.0  0.27086  0.07128  0.29035  1.0000
  H   H140      1.0  0.44231  0.01504  0.00426  1.0000
  H   H141      1.0  0.03031  0.11453  0.18053  1.0000
  C   C80       1.0  0.99703  0.15971  0.01391  1.0000
  H   H142      1.0  0.47607  0.10551  0.18530  1.0000
  C   C81       1.0  0.39084  0.45339  0.24037  1.0000
  H   H143      1.0  0.24768  0.21451  0.00750  1.0000
  C   C82       1.0  0.18667  0.06661  0.26158  1.0000
  C   C83       1.0  0.10761  0.07783  0.26030  1.0000
  H   H144      1.0  0.44135  0.05146  0.26931  1.0000
  C   C84       1.0  0.08781  0.04034  0.25125  1.0000
  H   H145      1.0  0.05357  0.18777  0.05846  1.0000
  C   C85       1.0  0.23623  0.26587  0.00289  1.0000
  C   C86       1.0  0.32460  0.12744  0.04313  1.0000
  C   C87       1.0  0.43123  0.06535  0.27912  1.0000
  C   C88       1.0  0.28225  0.22642  0.04254  1.0000
  H   H146      1.0  0.23207  0.21656  0.04531  1.0000
  H   H147      1.0  0.29532  0.33771  0.05798  1.0000
  H   H148      1.0  0.09736  0.23801  0.99566  1.0000
  H   H149      1.0  0.25597  0.27437  0.06234  1.0000
  H   H150      1.0  0.32220  0.10429  0.03519  1.0000
  H   H151      1.0  0.10169  0.09672  0.04623  1.0000
  C   C89       1.0  0.25925  0.05338  0.27243  1.0000
  H   H152      1.0  0.27190  0.33131  0.02461  1.0000
  C   C90       1.0  0.07084  0.21600  0.00709  1.0000
  H   H153      1.0  0.02458  0.14009  0.03564  1.0000
  C   C91       1.0  0.29291  0.99940  0.30317  1.0000
  H   H154      1.0  0.09851  0.13685  0.99880  1.0000
  H   H155      1.0  0.43267  0.13556  0.03907  1.0000
  H   H156      1.0  0.07996  0.00561  0.04957  1.0000
  H   H157      1.0  0.46973  0.01966  0.06849  1.0000
  H   H158      1.0  0.40891  0.04553  0.29763  1.0000
  C   C92       1.0  0.09027  0.01065  0.02374  1.0000
  H   H159      1.0  0.05162  0.99691  0.18847  1.0000
  H   H160      1.0  0.38187  0.42850  0.25742  1.0000
  C   C93       1.0  0.00330  0.24511  0.00702  1.0000
  H   H161      1.0  0.00164  0.17581  0.03292  1.0000
  H   H162      1.0  0.45808  0.46938  0.23515  1.0000
  H   H163      1.0  0.33839  0.44126  0.24283  1.0000
  N   N10       1.0  0.39729  0.45023  0.20600  1.0000
  H   H164      1.0  0.07669  0.99252  0.21594  1.0000
  H   H165      1.0  0.36924  0.42330  0.16783  1.0000
  C   C94       1.0  0.46135  0.04283  0.99128  1.0000
  C   C95       1.0  0.36476  0.46242  0.24693  1.0000
  H   H166      1.0  0.01336  0.12880  0.99773  1.0000
  C   C96       1.0  0.49027  0.10619  0.99653  1.0000
  H   H167      1.0  0.99657  0.24150  0.07875  1.0000
  H   H168      1.0  0.47142  0.48376  0.19191  1.0000
  C   C97       1.0  0.04080  0.00067  0.99473  1.0000
  H   H169      1.0  0.05310  0.11554  0.00532  1.0000
  S   S27       1.0  0.42433  0.26983  0.98499  1.0000
  C   C98       1.0  0.49014  0.08119  0.11591  1.0000
  H   H170      1.0  0.99390  0.27531  0.03381  1.0000
  H   H171      1.0  0.99645  0.17343  0.99069  1.0000
  H   H172      1.0  0.32106  0.29478  0.99869  1.0000
  H   H173      1.0  0.02186  0.27001  0.98954  1.0000
  C   C99       1.0  0.29681  0.28471  0.98787  1.0000
  H   H174      1.0  0.00388  0.99333  0.03356  1.0000
  Fe  Fe14      1.0  0.27930  0.16066  0.31186  1.0000
  H   H175      1.0  0.47261  0.10856  0.98194  1.0000
  H   H176      1.0  0.46831  0.44578  0.21251  1.0000
  H   H177      1.0  0.24193  0.29238  0.99396  1.0000
  H   H178      1.0  0.49155  0.18017  0.19300  1.0000
  C   C100      1.0  0.49083  0.03156  0.04823  1.0000
  H   H179      1.0  0.40671  0.48722  0.13444  1.0000
  H   H180      1.0  0.48308  0.04293  0.98026  1.0000
  Fe  Fe15      1.0  0.02770  0.06291  0.34699  1.0000
  H   H181      1.0  0.21332  0.47898  0.38598  1.0000
  S   S28       1.0  0.08241  0.09782  0.36042  1.0000
  H   H182      1.0  0.47403  0.08530  0.44924  1.0000
  C   C101      1.0  0.15339  0.07658  0.34295  1.0000
  S   S29       1.0  0.42501  0.06231  0.36464  1.0000
  H   H183      1.0  0.23896  0.40516  0.31479  1.0000
  S   S30       1.0  0.43176  0.41984  0.36877  1.0000
  H   H184      1.0  0.37525  0.42746  0.36517  1.0000
  H   H185      1.0  0.02387  0.07087  0.41668  1.0000
  H   H186      1.0  0.33146  0.37287  0.33293  1.0000
  H   H187      1.0  0.35728  0.10370  0.31839  1.0000
  H   H188      1.0  0.15385  0.05335  0.34655  1.0000
  H   H189      1.0  0.17647  0.24515  0.62092  1.0000
  S   S31       1.0  0.45899  0.02009  0.57564  1.0000
  H   H190      1.0  0.26572  0.03629  0.40045  1.0000
  H   H191      1.0  0.29834  0.44997  0.40798  1.0000
  C   C102      1.0  0.42094  0.43435  0.49623  1.0000
  H   H192      1.0  0.12881  0.46832  0.40300  1.0000
  C   C103      1.0  0.28165  0.06188  0.40921  1.0000
  S   S32       1.0  0.32603  0.19938  0.33470  1.0000
  H   H193      1.0  0.16058  0.31345  0.63071  1.0000
  Fe  Fe16      1.0  0.06265  0.07903  0.61425  1.0000
  S   S33       1.0  0.02707  0.03379  0.58862  1.0000
  Fe  Fe17      1.0  0.09550  0.13307  0.55081  1.0000
  S   S34       1.0  0.06268  0.09152  0.52119  1.0000
  S   S35       1.0  0.13972  0.18854  0.52520  1.0000
  Fe  Fe18      1.0  0.01869  0.07213  0.55978  1.0000
  H   H194      1.0  0.20746  0.04668  0.31871  1.0000
  Fe  Fe19      1.0  0.07381  0.05640  0.55196  1.0000
  S   S36       1.0  0.08374  0.01919  0.53037  1.0000
  S   S37       1.0  0.05133  0.11620  0.58796  1.0000
  S   S38       1.0  0.10954  0.09922  0.57898  1.0000
  H   H195      1.0  0.32854  0.07565  0.38250  1.0000
  H   H196      1.0  0.20724  0.16677  0.32601  1.0000
  C   C104      1.0  0.37364  0.17463  0.40404  1.0000
  Fe  Fe20      1.0  0.19965  0.39024  0.49749  1.0000
  C   C105      1.0  0.16238  0.29067  0.62993  1.0000
  S   S39       1.0  0.15684  0.33539  0.52636  1.0000
  H   H197      1.0  0.09291  0.45935  0.52377  1.0000
  H   H198      1.0  0.14495  0.17697  0.64008  1.0000
  H   H199      1.0  0.01639  0.10941  0.48726  1.0000
  C   C106      1.0  0.38215  0.11175  0.32515  1.0000
  S   S40       1.0  0.18722  0.41561  0.45612  1.0000
  S   S41       1.0  0.24741  0.40191  0.47038  1.0000
  C   C107      1.0  0.45392  0.40531  0.44507  1.0000
  S   S42       1.0  0.47164  0.01436  0.38214  1.0000
  H   H200      1.0  0.48145  0.00046  0.64216  1.0000
  C   C108      1.0  0.42666  0.01317  0.55078  1.0000
  H   H201      1.0  0.02645  0.07966  0.45678  1.0000
  S   S43       1.0  0.21002  0.00450  0.51622  1.0000
  H   H202      1.0  0.09793  0.04585  0.35446  1.0000
  H   H203      1.0  0.09545  0.02004  0.59618  1.0000
  C   C109      1.0  0.02361  0.13497  0.47288  1.0000
  S   S44       1.0  0.43229  0.99592  0.31816  1.0000
  C   C110      1.0  0.11902  0.01524  0.52748  1.0000
  C   C111      1.0  0.18350  0.14036  0.33154  1.0000
  C   C112      1.0  0.47200  0.42139  0.47420  1.0000
  C   C113      1.0  0.17417  0.00741  0.52054  1.0000
  C   C114      1.0  0.17832  0.03618  0.53313  1.0000
  C   C115      1.0  0.15095  0.03995  0.53685  1.0000
  H   H204      1.0  0.14046  0.45606  0.50302  1.0000
  C   C116      1.0  0.16499  0.43499  0.37611  1.0000
  H   H205      1.0  0.20295  0.05565  0.54019  1.0000
  H   H206      1.0  0.15473  0.06220  0.54660  1.0000
  C   C117      1.0  0.14308  0.22887  0.52386  1.0000
  C   C118      1.0  0.11558  0.22947  0.53569  1.0000
  C   C119      1.0  0.12006  0.26226  0.53588  1.0000
  C   C120      1.0  0.15182  0.29476  0.52367  1.0000
  C   C121      1.0  0.17899  0.29406  0.51100  1.0000
  C   C122      1.0  0.17464  0.26131  0.51122  1.0000
  H   H207      1.0  0.09093  0.20473  0.54477  1.0000
  H   H208      1.0  0.09879  0.26251  0.54544  1.0000
  H   H209      1.0  0.20356  0.31879  0.50162  1.0000
  H   H210      1.0  0.19605  0.26117  0.50188  1.0000
  C   C123      1.0  0.41071  0.38610  0.34480  1.0000
  C   C124      1.0  0.33460  0.39761  0.33730  1.0000
  C   C125      1.0  0.05165  0.19327  0.41282  1.0000
  C   C126      1.0  0.43953  0.15743  0.33429  1.0000
  C   C127      1.0  0.38327  0.32389  0.33896  1.0000
  C   C128      1.0  0.40091  0.35150  0.35700  1.0000
  Fe  Fe21      1.0  0.45463  0.04063  0.34662  1.0000
  C   C129      1.0  0.12148  0.07222  0.34727  1.0000
  H   H211      1.0  0.37602  0.29745  0.34856  1.0000
  H   H212      1.0  0.40711  0.34601  0.38048  1.0000
  C   C130      1.0  0.42064  0.09555  0.34414  1.0000
  C   C131      1.0  0.38879  0.08589  0.33455  1.0000
  C   C132      1.0  0.27335  0.48267  0.34277  1.0000
  H   H213      1.0  0.45919  0.18506  0.33500  1.0000
  C   C133      1.0  0.32471  0.46827  0.39503  1.0000
  H   H214      1.0  0.40186  0.41605  0.48144  1.0000
  C   C134      1.0  0.15141  0.48516  0.41516  1.0000
  H   H215      1.0  0.26984  0.05732  0.43418  1.0000
  H   H216      1.0  0.44115  0.37610  0.45003  1.0000
  H   H217      1.0  0.01073  0.11298  0.39768  1.0000
  C   C135      1.0  0.12041  0.10195  0.34527  1.0000
  H   H218      1.0  0.34675  0.38281  0.38341  1.0000
  C   C136      1.0  0.13167  0.04598  0.62968  1.0000
  H   H219      1.0  0.47054  0.13965  0.35144  1.0000
  H   H220      1.0  0.00775  0.42557  0.46062  1.0000
  C   C137      1.0  0.33872  0.99240  0.40411  1.0000
  H   H221      1.0  0.44835  0.46586  0.44978  1.0000
  C   C138      1.0  0.25564  0.44612  0.34353  1.0000
  H   H222      1.0  0.25175  0.33094  0.41480  1.0000
  H   H223      1.0  0.06703  0.20068  0.43326  1.0000
  Fe  Fe22      1.0  0.27617  0.45424  0.48798  1.0000
  C   C139      1.0  0.18469  0.11064  0.33542  1.0000
  S   S45       1.0  0.23656  0.41537  0.38026  1.0000
  C   C140      1.0  0.29481  0.01096  0.33282  1.0000
  H   H224      1.0  0.99638  0.42408  0.51314  1.0000
  H   H225      1.0  0.47184  0.04640  0.44499  1.0000
  H   H226      1.0  0.08516  0.16687  0.63375  1.0000
  H   H227      1.0  0.00021  0.15728  0.40189  1.0000
  H   H228      1.0  0.37213  0.17919  0.42904  1.0000
  H   H229      1.0  0.42315  0.41878  0.51681  1.0000
  N   N11       1.0  0.34379  0.10658  0.42079  1.0000
  C   C141      1.0  0.31910  0.07299  0.40808  1.0000
  C   C142      1.0  0.37965  0.11512  0.41731  1.0000
  C   C143      1.0  0.33212  0.10462  0.45529  1.0000
  C   C144      1.0  0.38317  0.08396  0.42491  1.0000
  C   C145      1.0  0.32693  0.07448  0.48087  1.0000
  H   H230      1.0  0.31772  0.04986  0.42105  1.0000
  H   H231      1.0  0.39231  0.12780  0.39201  1.0000
  H   H232      1.0  0.39618  0.13495  0.43251  1.0000
  H   H233      1.0  0.35108  0.12960  0.46391  1.0000
  H   H234      1.0  0.30810  0.10350  0.45737  1.0000
  H   H235      1.0  0.39966  0.18172  0.39609  1.0000
  H   H236      1.0  0.37079  0.19361  0.38808  1.0000
  H   H237      1.0  0.37204  0.06863  0.44968  1.0000
  H   H238      1.0  0.41095  0.09473  0.42251  1.0000
  H   H239      1.0  0.37204  0.06594  0.40710  1.0000
  H   H240      1.0  0.35076  0.08349  0.49210  1.0000
  H   H241      1.0  0.31884  0.05008  0.47162  1.0000
  H   H242      1.0  0.30577  0.06604  0.50013  1.0000
  N   N12       1.0  0.14834  0.10973  0.44400  1.0000
  C   C146      1.0  0.12244  0.07246  0.43800  1.0000
  C   C147      1.0  0.18273  0.12219  0.42666  1.0000
  C   C148      1.0  0.13766  0.13300  0.42935  1.0000
  C   C149      1.0  0.14824  0.10862  0.48001  1.0000
  C   C150      1.0  0.08421  0.05629  0.44864  1.0000
  C   C151      1.0  0.19521  0.09840  0.43651  1.0000
  C   C152      1.0  0.16096  0.17264  0.43178  1.0000
  C   C153      1.0  0.18085  0.13903  0.49183  1.0000
  H   H243      1.0  0.12488  0.07133  0.41188  1.0000
  H   H244      1.0  0.12734  0.05339  0.45067  1.0000
  H   H245      1.0  0.20355  0.14944  0.42952  1.0000
  H   H246      1.0  0.18192  0.12412  0.40009  1.0000
  H   H247      1.0  0.13542  0.13147  0.40332  1.0000
  H   H248      1.0  0.11177  0.12360  0.44089  1.0000
  H   H249      1.0  0.12588  0.10752  0.49066  1.0000
  H   H250      1.0  0.14463  0.08373  0.49173  1.0000
  H   H251      1.0  0.07970  0.05960  0.47345  1.0000
  H   H252      1.0  0.07435  0.06774  0.43151  1.0000
  H   H253      1.0  0.27960  0.08126  0.39300  1.0000
  H   H254      1.0  0.19321  0.09153  0.46309  1.0000
  H   H255      1.0  0.18073  0.07360  0.42626  1.0000
  H   H256      1.0  0.22265  0.11269  0.42628  1.0000
  H   H257      1.0  0.15961  0.17656  0.45712  1.0000
  H   H258      1.0  0.15124  0.18663  0.41797  1.0000
  H   H259      1.0  0.18794  0.18578  0.42099  1.0000
  H   H260      1.0  0.17282  0.14565  0.51333  1.0000
  H   H261      1.0  0.19697  0.16415  0.47432  1.0000
  H   H262      1.0  0.19686  0.12993  0.50045  1.0000
  S   S46       1.0  0.22874  0.44063  0.51860  1.0000
  N   N13       1.0  0.32920  0.41589  0.39157  1.0000
  C   C154      1.0  0.34343  0.42087  0.42343  1.0000
  C   C155      1.0  0.29096  0.38729  0.39824  1.0000
  C   C156      1.0  0.33492  0.44970  0.37429  1.0000
  C   C157      1.0  0.34733  0.40570  0.37051  1.0000
  H   H263      1.0  0.14862  0.00791  0.60133  1.0000
  C   C158      1.0  0.28022  0.34889  0.40858  1.0000
  H   H264      1.0  0.38946  0.47666  0.40809  1.0000
  H   H265      1.0  0.15064  0.42526  0.35529  1.0000
  H   H266      1.0  0.32893  0.42589  0.44063  1.0000
  H   H267      1.0  0.33997  0.39614  0.43558  1.0000
  H   H268      1.0  0.27767  0.38746  0.37709  1.0000
  H   H269      1.0  0.27874  0.39241  0.41761  1.0000
  C   C159      1.0  0.01340  0.16274  0.42394  1.0000
  C   C160      1.0  0.45512  0.46390  0.47466  1.0000
  N   N14       1.0  0.48413  0.45933  0.47412  1.0000
  Fe  Fe23      1.0  0.21978  0.46679  0.47515  1.0000
  C   C161      1.0  0.09522  0.01665  0.62282  1.0000
  H   H270      1.0  0.28700  0.33950  0.38864  1.0000
  S   S47       1.0  0.22431  0.11444  0.33495  1.0000
  H   H271      1.0  0.30964  0.39370  0.33492  1.0000
  H   H272      1.0  0.14693  0.06488  0.60682  1.0000
  H   H273      1.0  0.21070  0.47467  0.34464  1.0000
  H   H274      1.0  0.04927  0.13380  0.41590  1.0000
  H   H275      1.0  0.47268  0.41598  0.42290  1.0000
  H   H276      1.0  0.15053  0.23530  0.58930  1.0000
  H   H277      1.0  0.32130  0.99859  0.41434  1.0000
  H   H278      1.0  0.48444  0.06150  0.63452  1.0000
  H   H279      1.0  0.29137  0.34583  0.43033  1.0000
  H   H280      1.0  0.17963  0.29774  0.60744  1.0000
  C   C162      1.0  0.40800  0.02514  0.50052  1.0000
  H   H281      1.0  0.19421  0.99118  0.35154  1.0000
  H   H282      1.0  0.31307  0.03864  0.33406  1.0000
  H   H283      1.0  0.32024  0.13377  0.40467  1.0000
  H   H284      1.0  0.34771  0.13518  0.37391  1.0000
  H   H285      1.0  0.46130  0.05081  0.50889  1.0000
  H   H286      1.0  0.45391  0.40308  0.49605  1.0000
  H   H287      1.0  0.32027  0.44465  0.35318  1.0000
  C   C163      1.0  0.38208  0.45076  0.42167  1.0000
  H   H288      1.0  0.38826  0.45491  0.44658  1.0000
  S   S48       1.0  0.39911  0.18115  0.31991  1.0000
  H   H289      1.0  0.40938  0.44685  0.50665  1.0000
  C   C164      1.0  0.34485  0.13639  0.40002  1.0000
  H   H290      1.0  0.27555  0.99585  0.38378  1.0000
  N   N15       1.0  0.12273  0.22220  0.63689  1.0000
  H   H291      1.0  0.05335  0.21730  0.40149  1.0000
  S   S49       1.0  0.00269  0.09148  0.33426  1.0000
  H   H292      1.0  0.41439  0.03957  0.47609  1.0000
  C   C165      1.0  0.43465  0.03157  0.51904  1.0000
  H   H293      1.0  0.07781  0.02357  0.63172  1.0000
  C   C166      1.0  0.01337  0.07859  0.43523  1.0000
  H   H294      1.0  0.47795  0.07602  0.40964  1.0000
  Fe  Fe24      1.0  0.23672  0.42990  0.42991  1.0000
  H   H295      1.0  0.05602  0.21008  0.64483  1.0000
  H   H296      1.0  0.06867  0.02726  0.44843  1.0000
  H   H297      1.0  0.03046  0.15620  0.51713  1.0000
  H   H298      1.0  0.17415  0.41799  0.38305  1.0000
  C   C167      1.0  0.44616  0.13166  0.34342  1.0000
  H   H299      1.0  0.05208  0.15095  0.46665  1.0000
  H   H300      1.0  0.06345  0.18707  0.39406  1.0000
  H   H301      1.0  0.36897  0.05811  0.33504  1.0000
  H   H302      1.0  0.43384  0.40981  0.44019  1.0000
  H   H303      1.0  0.17272  0.19746  0.60226  1.0000
  H   H304      1.0  0.14744  0.43052  0.39703  1.0000
  H   H305      1.0  0.36229  0.46952  0.36365  1.0000
  H   H306      1.0  0.15508  0.46793  0.43279  1.0000
  C   C168      1.0  0.40726  0.14771  0.32581  1.0000
  H   H307      1.0  0.13641  0.46422  0.35331  1.0000
  C   C169      1.0  0.15165  0.13601  0.33698  1.0000
  H   H308      1.0  0.39835  0.44335  0.41114  1.0000
  H   H309      1.0  0.11903  0.26003  0.60478  1.0000
  C   C170      1.0  0.19647  0.47401  0.36667  1.0000
  C   C171      1.0  0.15044  0.22525  0.61482  1.0000
  H   H310      1.0  0.12996  0.06197  0.64621  1.0000
  Fe  Fe25      1.0  0.45556  0.47816  0.34866  1.0000
  S   S50       1.0  0.26893  0.48305  0.44534  1.0000
  C   C172      1.0  0.00113  0.44122  0.44466  1.0000
  C   C173      1.0  0.21274  0.00414  0.32895  1.0000
  H   H311      1.0  0.03545  0.48455  0.48727  1.0000
  H   H312      1.0  0.46572  0.45719  0.54317  1.0000
  H   H313      1.0  0.02428  0.18036  0.48510  1.0000
  H   H314      1.0  0.34744  0.00608  0.37872  1.0000
  H   H315      1.0  0.47372  0.42345  0.53961  1.0000
  C   C174      1.0  0.39172  0.98817  0.56350  1.0000
  H   H316      1.0  0.23862  0.02225  0.33617  1.0000
  H   H317      1.0  0.36116  0.00430  0.41771  1.0000
  C   C175      1.0  0.25261  0.43344  0.31436  1.0000
  H   H318      1.0  0.34280  0.48087  0.41272  1.0000
  H   H319      1.0  0.00486  0.45942  0.55595  1.0000
  H   H320      1.0  0.12749  0.17234  0.60191  1.0000
  H   H321      1.0  0.02471  0.46831  0.43554  1.0000
  C   C176      1.0  0.48519  0.45225  0.53630  1.0000
  H   H322      1.0  0.35383  0.41965  0.31773  1.0000
  C   C177      1.0  0.08843  0.19277  0.62878  1.0000
  H   H323      1.0  0.14705  0.03685  0.63952  1.0000
  H   H324      1.0  0.08712  0.19774  0.60246  1.0000
  C   C178      1.0  0.02075  0.11512  0.42141  1.0000
  C   C179      1.0  0.14840  0.19077  0.61520  1.0000
  C   C180      1.0  0.12616  0.25684  0.62930  1.0000
  H   H325      1.0  0.03323  0.16631  0.63605  1.0000
  C   C181      1.0  0.37304  0.00033  0.51337  1.0000
  C   C182      1.0  0.48485  0.07494  0.43448  1.0000
  S   S51       1.0  0.32414  0.47489  0.51395  1.0000
  H   H326      1.0  0.15136  0.15928  0.33577  1.0000
  C   C183      1.0  0.11807  0.48366  0.51518  1.0000
  S   S52       1.0  0.34072  0.99391  0.48875  1.0000
  C   C184      1.0  0.14510  0.48168  0.50341  1.0000
  H   H327      1.0  0.48771  0.99747  0.44477  1.0000
  H   H328      1.0  0.37105  0.99116  0.33827  1.0000
  C   C185      1.0  0.40250  0.39279  0.31440  1.0000
  C   C186      1.0  0.01589  0.15327  0.49628  1.0000
  N   N16       1.0  0.00622  0.12878  0.44274  1.0000
  H   H329      1.0  0.00265  0.17383  0.43806  1.0000
  C   C187      1.0  0.48841  0.99065  0.49621  1.0000
  H   H330      1.0  0.16572  0.48637  0.31754  1.0000
  H   H331      1.0  0.10797  0.25746  0.64595  1.0000
  S   S53       1.0  0.38841  0.25233  0.91847  1.0000
  S   S54       1.0  0.46422  0.35482  0.91537  1.0000
  S   S55       1.0  0.06636  0.06538  0.66751  1.0000
  Fe  Fe26      1.0  0.08955  0.11754  0.90834  1.0000
  S   S56       1.0  0.07975  0.08294  0.87137  1.0000
  S   S57       1.0  0.13360  0.13714  0.93977  1.0000
  Fe  Fe27      1.0  0.01558  0.10055  0.91035  1.0000
  H   H332      1.0  0.47338  0.99283  0.73685  1.0000
  H   H333      1.0  0.00799  0.17757  0.90477  1.0000
  Fe  Fe28      1.0  0.02790  0.04256  0.90113  1.0000
  H   H334      1.0  0.08407  0.01446  0.68776  1.0000
  Fe  Fe29      1.0  0.05369  0.10627  0.84700  1.0000
  S   S58       1.0  0.06086  0.12810  0.79294  1.0000
  S   S59       1.0  0.03865  0.07620  0.93895  1.0000
  S   S60       1.0  0.06720  0.14440  0.88226  1.0000
  C   C188      1.0  0.06326  0.08221  0.70230  1.0000
  C   C189      1.0  0.05777  0.10894  0.70059  1.0000
  C   C190      1.0  0.05683  0.12240  0.72860  1.0000
  C   C191      1.0  0.06061  0.10883  0.75880  1.0000
  C   C192      1.0  0.06536  0.08154  0.76063  1.0000
  C   C193      1.0  0.06688  0.06851  0.73251  1.0000
  H   H335      1.0  0.05400  0.11898  0.67778  1.0000
  H   H336      1.0  0.05273  0.14317  0.72703  1.0000
  H   H337      1.0  0.06837  0.07086  0.78363  1.0000
  C   C194      1.0  0.05874  0.18770  0.95924  1.0000
  C   C195      1.0  0.46918  0.39546  0.91774  1.0000
  C   C196      1.0  0.44190  0.39617  0.93009  1.0000
  Fe  Fe30      1.0  0.39027  0.22108  0.96304  1.0000
  H   H338      1.0  0.24781  0.22541  0.87573  1.0000
  H   H339      1.0  0.00774  0.42283  0.94528  1.0000
  N   N17       1.0  0.29537  0.13854  0.90593  1.0000
  C   C197      1.0  0.27504  0.11774  0.96737  1.0000
  H   H340      1.0  0.08349  0.00702  0.94197  1.0000
  C   C198      1.0  0.41820  0.13580  0.94438  1.0000
  H   H341      1.0  0.05164  0.17367  0.67254  1.0000
  H   H342      1.0  0.47991  0.42880  0.78453  1.0000
  H   H343      1.0  0.15440  0.22531  0.67432  1.0000
  H   H344      1.0  0.36618  0.17754  0.86830  1.0000
  C   C199      1.0  0.46118  0.19784  0.94505  1.0000
  H   H345      1.0  0.41730  0.37148  0.93935  1.0000
  H   H346      1.0  0.33126  0.33460  0.95439  1.0000
  C   C200      1.0  0.17928  0.16216  0.93167  1.0000
  C   C201      1.0  0.19761  0.18547  0.90248  1.0000
  C   C202      1.0  0.25245  0.20516  0.92283  1.0000
  C   C203      1.0  0.23416  0.18106  0.95167  1.0000
  C   C204      1.0  0.19782  0.15999  0.95616  1.0000
  H   H347      1.0  0.25050  0.15773  0.88577  1.0000
  H   H348      1.0  0.37618  0.15267  0.89506  1.0000
  C   C205      1.0  0.48713  0.19323  0.93587  1.0000
  H   H349      1.0  0.25142  0.13237  0.93234  1.0000
  H   H350      1.0  0.28242  0.08497  0.90979  1.0000
  H   H351      1.0  0.48937  0.07230  0.67459  1.0000
  H   H352      1.0  0.28268  0.10414  0.87059  1.0000
  C   C206      1.0  0.02475  0.47229  0.78190  1.0000
  Fe  Fe31      1.0  0.41888  0.30045  0.94236  1.0000
  C   C207      1.0  0.11416  0.22581  0.69755  1.0000
  H   H353      1.0  0.99392  0.22114  0.90928  1.0000
  C   C208      1.0  0.05598  0.18602  0.64690  1.0000
  H   H354      1.0  0.32743  0.12760  0.93291  1.0000
  H   H355      1.0  0.10857  0.24031  0.94388  1.0000
  H   H356      1.0  0.43714  0.10580  0.93012  1.0000
  C   C209      1.0  0.42646  0.16908  0.94957  1.0000
  H   H357      1.0  0.43661  0.39045  0.83197  1.0000
  C   C210      1.0  0.26949  0.16236  0.86622  1.0000
  C   C211      1.0  0.45497  0.02573  0.73895  1.0000
  H   H358      1.0  0.46818  0.22358  0.94907  1.0000
  H   H359      1.0  0.08737  0.21737  0.69679  1.0000
  H   H360      1.0  0.22477  0.05580  0.89199  1.0000
  C   C212      1.0  0.30311  0.31558  0.96227  1.0000
  C   C213      1.0  0.44512  0.04882  0.96239  1.0000
  H   H361      1.0  0.03817  0.45895  0.78518  1.0000
  H   H362      1.0  0.05843  0.47753  0.83470  1.0000
  C   C214      1.0  0.30156  0.16658  0.87838  1.0000
  C   C215      1.0  0.35443  0.15196  0.88524  1.0000
  H   H363      1.0  0.43529  0.02638  0.94901  1.0000
  H   H364      1.0  0.46019  0.05105  0.72619  1.0000
  H   H365      1.0  0.42686  0.00568  0.74452  1.0000
  H   H366      1.0  0.29426  0.33114  0.97057  1.0000
  H   H367      1.0  0.29173  0.16822  0.93959  1.0000
  H   H368      1.0  0.12320  0.04826  0.92669  1.0000
  H   H369      1.0  0.99870  0.45183  0.77612  1.0000
  Fe  Fe32      1.0  0.34123  0.24270  0.94566  1.0000
  C   C216      1.0  0.23395  0.20700  0.89823  1.0000
  H   H370      1.0  0.17425  0.28781  0.65120  1.0000
  H   H371      1.0  0.08991  0.06199  0.95677  1.0000
  C   C217      1.0  0.09384  0.21331  0.93780  1.0000
  H   H372      1.0  0.46464  0.07334  0.94504  1.0000
  C   C218      1.0  0.44489  0.01770  0.67187  1.0000
  H   H373      1.0  0.23957  0.24909  0.95664  1.0000
  H   H374      1.0  0.11372  0.18435  0.67910  1.0000
  H   H375      1.0  0.25711  0.14101  0.85154  1.0000
  H   H376      1.0  0.04560  0.16203  0.95024  1.0000
  H   H377      1.0  0.43864  0.46599  0.82652  1.0000
  C   C219      1.0  0.23574  0.08009  0.90290  1.0000
  H   H378      1.0  0.24792  0.17895  0.97071  1.0000
  H   H379      1.0  0.45101  0.44047  0.79116  1.0000
  H   H380      1.0  0.01291  0.42974  0.86665  1.0000
  H   H381      1.0  0.27766  0.18744  0.85001  1.0000
  H   H382      1.0  0.03207  0.01434  0.97865  1.0000
  H   H383      1.0  0.46535  0.03123  0.76238  1.0000
  H   H384      1.0  0.12235  0.02026  0.96043  1.0000
  H   H385      1.0  0.08918  0.21613  0.91226  1.0000
  H   H386      1.0  0.10970  0.20268  0.93860  1.0000
  H   H387      1.0  0.29190  0.30571  0.94007  1.0000
  C   C220      1.0  0.48989  0.00789  0.66600  1.0000
  H   H388      1.0  0.45615  0.06983  0.65328  1.0000
  S   S61       1.0  0.29823  0.23347  0.91597  1.0000
  C   C221      1.0  0.47893  0.16006  0.93039  1.0000
  C   C222      1.0  0.44625  0.42889  0.92997  1.0000
  H   H389      1.0  0.22514  0.09439  0.89208  1.0000
  H   H390      1.0  0.29338  0.26421  0.97399  1.0000
  C   C223      1.0  0.47308  0.44166  0.80078  1.0000
  H   H391      1.0  0.34143  0.12941  0.87199  1.0000
  H   H392      1.0  0.39151  0.11326  0.94783  1.0000
  C   C224      1.0  0.27548  0.10210  0.89668  1.0000
  H   H393      1.0  0.31627  0.16761  0.85663  1.0000
  H   H394      1.0  0.18381  0.18760  0.88347  1.0000
  C   C225      1.0  0.27781  0.14028  0.93548  1.0000
  H   H395      1.0  0.42483  0.42900  0.93930  1.0000
  C   C226      1.0  0.44411  0.13140  0.93445  1.0000
  S   S62       1.0  0.37197  0.29279  0.96639  1.0000
  N   N18       1.0  0.02143  0.48428  0.81271  1.0000
  C   C227      1.0  0.10723  0.02934  0.94936  1.0000
  H   H396      1.0  0.47896  0.41247  0.84276  1.0000
  H   H397      1.0  0.31782  0.19349  0.88503  1.0000
  C   C228      1.0  0.12688  0.21354  0.67157  1.0000
  H   H398      1.0  0.11498  0.21387  0.72187  1.0000
  H   H399      1.0  0.22599  0.07089  0.92907  1.0000
  C   C229      1.0  0.33018  0.14805  0.91348  1.0000
  C   C230      1.0  0.47350  0.01339  0.71985  1.0000
  H   H400      1.0  0.42322  0.04983  0.96971  1.0000
  H   H401      1.0  0.11673  0.98760  0.67194  1.0000
  H   H402      1.0  0.07096  0.04771  0.73423  1.0000
  H   H403      1.0  0.34429  0.17344  0.92298  1.0000
  S   S63       1.0  0.01797  0.98801  0.91693  1.0000
  C   C231      1.0  0.47790  0.46132  0.91760  1.0000
  H   H404      1.0  0.26643  0.09057  0.96454  1.0000
  H   H405      1.0  0.13112  0.25508  0.69589  1.0000
  C   C232      1.0  0.45976  0.41697  0.83414  1.0000
  S   S64       1.0  0.00092  0.06348  0.87421  1.0000
  S   S65       1.0  0.39253  0.17267  0.96298  1.0000
  C   C233      1.0  0.10017  0.04910  0.97152  1.0000
  S   S66       1.0  0.48796  0.99207  0.94266  1.0000
  H   H406      1.0  0.07763  0.14134  0.96607  1.0000
  H   H407      1.0  0.45186  0.42674  0.85283  1.0000
  H   H408      1.0  0.20242  0.24903  0.96542  1.0000
  H   H409      1.0  0.43239  0.00452  0.65116  1.0000
  H   H410      1.0  0.04307  0.19807  0.95347  1.0000
  C   C234      1.0  0.47045  0.05771  0.65804  1.0000
  C   C235      1.0  0.22008  0.24335  0.97633  1.0000
  H   H411      1.0  0.00280  0.41363  0.82854  1.0000
  N   N19       1.0  0.46027  0.00015  0.68893  1.0000
  C   C236      1.0  0.99488  0.42231  0.84827  1.0000
  H   H412      1.0  0.42399  0.01467  0.68783  1.0000
  H   H413      1.0  0.30011  0.13087  0.97703  1.0000
  H   H414      1.0  0.18405  0.14225  0.97897  1.0000
  H   H415      1.0  0.12599  0.07101  0.97621  1.0000
  H   H416      1.0  0.28439  0.77560  0.09895  1.0000
  Fe  Fe33      1.0  0.18127  0.73281  0.10657  1.0000
  S   S67       1.0  0.16120  0.69182  0.07386  1.0000
  S   S68       1.0  0.21439  0.79245  0.08693  1.0000
  Fe  Fe34      1.0  0.15370  0.67639  0.16492  1.0000
  S   S69       1.0  0.13167  0.63121  0.13765  1.0000
  S   S70       1.0  0.14701  0.66222  0.21840  1.0000
  Fe  Fe35      1.0  0.18146  0.66596  0.10525  1.0000
  S   S71       1.0  0.20470  0.64086  0.08143  1.0000
  Fe  Fe36      1.0  0.11234  0.65944  0.10914  1.0000
  S   S72       1.0  0.05904  0.62108  0.09482  1.0000
  S   S73       1.0  0.20537  0.70969  0.13489  1.0000
  S   S74       1.0  0.13090  0.70240  0.13925  1.0000
  S   S75       1.0  0.29721  0.66754  0.19300  1.0000
  Fe  Fe37      1.0  0.37333  0.74970  0.00435  1.0000
  H   H417      1.0  0.05445  0.54123  0.99813  1.0000
  S   S76       1.0  0.37570  0.76419  0.05451  1.0000
  H   H418      1.0  0.17070  0.64983  0.02533  1.0000
  S   S77       1.0  0.29989  0.52422  0.24701  1.0000
  H   H419      1.0  0.38018  0.52951  0.99274  1.0000
  H   H420      1.0  0.19249  0.61495  0.98870  1.0000
  H   H421      1.0  0.46727  0.53328  0.01451  1.0000
  H   H422      1.0  0.19764  0.96722  0.23556  1.0000
  H   H423      1.0  0.41772  0.67306  0.11388  1.0000
  S   S78       1.0  0.29908  0.63829  0.28317  1.0000
  S   S79       1.0  0.32342  0.51387  0.10579  1.0000
  S   S80       1.0  0.25481  0.91180  0.17261  1.0000
  H   H424      1.0  0.29013  0.71489  0.99764  1.0000
  S   S81       1.0  0.32642  0.56100  0.15869  1.0000
  C   C237      1.0  0.33179  0.81575  0.02445  1.0000
  Fe  Fe38      1.0  0.28767  0.52561  0.12851  1.0000
  S   S82       1.0  0.26209  0.54396  0.09445  1.0000
  Fe  Fe39      1.0  0.36058  0.54642  0.13920  1.0000
  S   S83       1.0  0.41712  0.59441  0.12928  1.0000
  H   H425      1.0  0.40193  0.49950  0.02681  1.0000
  H   H426      1.0  0.40093  0.64031  0.03400  1.0000
  H   H427      1.0  0.27678  0.86054  0.19611  1.0000
  C   C238      1.0  0.20202  0.97922  0.25768  1.0000
  C   C239      1.0  0.26446  0.69917  0.01213  1.0000
  C   C240      1.0  0.43164  0.56746  0.20503  1.0000
  H   H428      1.0  0.45427  0.66755  0.21280  1.0000
  H   H429      1.0  0.20590  0.75128  0.25753  1.0000
  C   C241      1.0  0.25617  0.77017  0.04130  1.0000
  H   H430      1.0  0.22994  0.55470  0.23570  1.0000
  H   H431      1.0  0.14939  0.60202  0.19667  1.0000
  H   H432      1.0  0.43286  0.55807  0.01393  1.0000
  H   H433      1.0  0.22516  0.70427  0.03146  1.0000
  H   H434      1.0  0.37286  0.48814  0.23246  1.0000
  C   C242      1.0  0.38239  0.54880  0.26910  1.0000
  H   H435      1.0  0.37465  0.69327  0.06133  1.0000
  C   C243      1.0  0.08208  0.97469  0.01711  1.0000
  H   H436      1.0  0.22564  0.59818  0.20567  1.0000
  H   H437      1.0  0.17170  0.64710  0.98368  1.0000
  C   C244      1.0  0.32006  0.69478  0.15484  1.0000
  C   C245      1.0  0.34854  0.73009  0.15183  1.0000
  C   C246      1.0  0.36526  0.75087  0.12092  1.0000
  C   C247      1.0  0.35420  0.73642  0.09273  1.0000
  C   C248      1.0  0.32610  0.70091  0.09576  1.0000
  C   C249      1.0  0.30903  0.68043  0.12665  1.0000
  H   H438      1.0  0.35751  0.74150  0.17329  1.0000
  H   H439      1.0  0.38698  0.77833  0.11885  1.0000
  H   H440      1.0  0.31714  0.68928  0.07440  1.0000
  H   H441      1.0  0.28746  0.65308  0.12878  1.0000
  H   H442      1.0  0.20362  0.65584  0.19840  1.0000
  S   S84       1.0  0.35859  0.79655  0.27971  1.0000
  C   C250      1.0  0.45692  0.57559  0.10046  1.0000
  C   C251      1.0  0.45615  0.60007  0.11606  1.0000
  C   C252      1.0  0.20647  0.55336  0.24312  1.0000
  H   H443      1.0  0.34198  0.64348  0.13348  1.0000
  H   H444      1.0  0.08312  0.51148  0.24094  1.0000
  H   H445      1.0  0.43305  0.55186  0.09661  1.0000
  H   H446      1.0  0.03684  0.66900  0.18785  1.0000
  H   H447      1.0  0.04459  0.66945  0.11613  1.0000
  C   C253      1.0  0.22015  0.61346  0.08799  1.0000
  C   C254      1.0  0.22486  0.60137  0.11839  1.0000
  C   C255      1.0  0.23827  0.58057  0.12126  1.0000
  C   C256      1.0  0.24611  0.57084  0.09373  1.0000
  C   C257      1.0  0.24059  0.58237  0.06366  1.0000
  C   C258      1.0  0.22835  0.60381  0.06078  1.0000
  H   H448      1.0  0.21941  0.60900  0.13948  1.0000
  H   H449      1.0  0.24248  0.57206  0.14466  1.0000
  H   H450      1.0  0.24616  0.57496  0.04218  1.0000
  H   H451      1.0  0.22527  0.61296  0.03709  1.0000
  C   C259      1.0  0.22532  0.82548  0.11084  1.0000
  C   C260      1.0  0.24989  0.86159  0.09740  1.0000
  C   C261      1.0  0.25917  0.88853  0.11572  1.0000
  C   C262      1.0  0.24378  0.87956  0.14767  1.0000
  C   C263      1.0  0.21913  0.84345  0.16099  1.0000
  C   C264      1.0  0.20999  0.81656  0.14277  1.0000
  H   H452      1.0  0.26180  0.86878  0.07267  1.0000
  H   H453      1.0  0.27817  0.91616  0.10516  1.0000
  H   H454      1.0  0.20697  0.83624  0.18563  1.0000
  H   H455      1.0  0.19081  0.78896  0.15331  1.0000
  C   C265      1.0  0.03593  0.56532  0.23927  1.0000
  C   C266      1.0  0.04783  0.58814  0.20954  1.0000
  C   C267      1.0  0.08158  0.61876  0.20373  1.0000
  C   C268      1.0  0.10387  0.62589  0.22708  1.0000
  C   C269      1.0  0.09211  0.60274  0.25657  1.0000
  C   C270      1.0  0.05816  0.57235  0.26268  1.0000
  Fe  Fe40      1.0  0.31101  0.68209  0.24262  1.0000
  H   H456      1.0  0.08993  0.63691  0.18121  1.0000
  H   H457      1.0  0.10944  0.60817  0.27431  1.0000
  H   H458      1.0  0.04937  0.55424  0.28542  1.0000
  N   N20       1.0  0.42589  0.61110  0.23252  1.0000
  C   C271      1.0  0.24948  0.78550  0.01006  1.0000
  C   C272      1.0  0.39680  0.60568  0.21453  1.0000
  H   H459      1.0  0.44661  0.71933  0.07652  1.0000
  C   C273      1.0  0.37284  0.61331  0.23136  1.0000
  C   C274      1.0  0.44838  0.60507  0.21239  1.0000
  H   H460      1.0  0.34522  0.96368  0.31075  1.0000
  H   H461      1.0  0.01353  0.62339  0.18434  1.0000
  C   C275      1.0  0.28837  0.80854  0.26757  1.0000
  H   H462      1.0  0.40717  0.62286  0.19010  1.0000
  H   H463      1.0  0.12417  0.66162  0.01926  1.0000
  H   H464      1.0  0.40576  0.59968  0.28239  1.0000
  H   H465      1.0  0.26475  0.68400  0.03448  1.0000
  H   H466      1.0  0.35020  0.60429  0.21814  1.0000
  H   H467      1.0  0.36280  0.59879  0.25663  1.0000
  H   H468      1.0  0.38565  0.64217  0.23084  1.0000
  H   H469      1.0  0.27030  0.79217  0.05493  1.0000
  H   H470      1.0  0.29276  0.84698  0.16664  1.0000
  H   H471      1.0  0.16648  0.58602  0.17154  1.0000
  H   H472      1.0  0.02829  0.96910  0.26228  1.0000
  C   C276      1.0  0.33733  0.61624  0.04100  1.0000
  H   H473      1.0  0.39880  0.69047  0.03049  1.0000
  H   H474      1.0  0.30958  0.60450  0.04050  1.0000
  H   H475      1.0  0.35181  0.63892  0.02068  1.0000
  H   H476      1.0  0.34127  0.59550  0.03695  1.0000
  C   C277      1.0  0.20291  0.63839  0.18225  1.0000
  H   H477      1.0  0.23279  0.63527  0.23539  1.0000
  C   C278      1.0  0.41354  0.58812  0.26561  1.0000
  H   H478      1.0  0.12525  0.55412  0.03101  1.0000
  C   C279      1.0  0.01758  0.64154  0.20118  1.0000
  H   H479      1.0  0.42172  0.73744  0.07930  1.0000
  C   C280      1.0  0.25187  0.72242  0.01852  1.0000
  C   C281      1.0  0.40464  0.64150  0.05987  1.0000
  C   C282      1.0  0.39045  0.65472  0.11047  1.0000
  C   C283      1.0  0.37010  0.66442  0.13034  1.0000
  H   H480      1.0  0.44316  0.74253  0.04164  1.0000
  H   H481      1.0  0.01746  0.94323  0.23114  1.0000
  H   H482      1.0  0.40009  0.49702  0.18518  1.0000
  H   H483      1.0  0.37781  0.66663  0.15501  1.0000
  Fe  Fe41      1.0  0.30278  0.51212  0.19685  1.0000
  S   S85       1.0  0.34999  0.69600  0.99105  1.0000
  H   H484      1.0  0.38304  0.62825  0.12268  1.0000
  H   H485      1.0  0.43490  0.58817  0.27568  1.0000
  Fe  Fe42      1.0  0.35006  0.67893  0.29808  1.0000
  H   H486      1.0  0.47783  0.64540  0.27328  1.0000
  H   H487      1.0  0.26609  0.95451  0.27889  1.0000
  C   C284      1.0  0.44393  0.66398  0.05957  1.0000
  C   C285      1.0  0.17118  0.59968  0.19272  1.0000
  H   H488      1.0  0.32294  0.77852  0.08486  1.0000
  H   H489      1.0  0.45377  0.64972  0.04979  1.0000
  H   H490      1.0  0.38002  0.57844  0.20937  1.0000
  H   H491      1.0  0.45652  0.68998  0.04313  1.0000
  H   H492      1.0  0.02897  0.63686  0.22198  1.0000
  H   H493      1.0  0.21178  0.65067  0.25585  1.0000
  C   C286      1.0  0.37594  0.82808  0.30616  1.0000
  C   C287      1.0  0.99393  0.63546  0.28030  1.0000
  H   H494      1.0  0.99416  0.69089  0.01502  1.0000
  H   H495      1.0  0.10620  0.55026  0.25863  1.0000
  H   H496      1.0  0.16441  0.69324  0.99438  1.0000
  C   C288      1.0  0.14171  0.66504  0.99878  1.0000
  H   H497      1.0  0.17772  0.57025  0.00288  1.0000
  H   H498      1.0  0.38859  0.53137  0.28273  1.0000
  H   H499      1.0  0.37558  0.69039  0.11948  1.0000
  H   H500      1.0  0.22037  0.62148  0.27789  1.0000
  H   H501      1.0  0.33737  0.60207  0.09155  1.0000
  C   C289      1.0  0.44879  0.56373  0.99089  1.0000
  C   C290      1.0  0.13859  0.54164  0.22780  1.0000
  H   H502      1.0  0.30028  0.53453  0.31246  1.0000
  H   H503      1.0  0.30713  0.77988  0.99142  1.0000
  H   H504      1.0  0.23091  0.75112  0.05653  1.0000
  C   C291      1.0  0.39564  0.68969  0.05693  1.0000
  H   H505      1.0  0.43936  0.50657  0.19530  1.0000
  Fe  Fe43      1.0  0.33730  0.73754  0.28700  1.0000
  S   S86       1.0  0.33924  0.49976  0.17941  1.0000
  H   H506      1.0  0.19417  0.70698  0.26290  1.0000
  C   C292      1.0  0.08013  0.54982  0.98686  1.0000
  C   C293      1.0  0.42647  0.48916  0.14917  1.0000
  H   H507      1.0  0.20086  0.64826  0.15771  1.0000
  H   H508      1.0  0.27248  0.80134  0.99152  1.0000
  H   H509      1.0  0.11797  0.61387  0.06017  1.0000
  C   C294      1.0  0.20035  0.57293  0.21471  1.0000
  H   H510      1.0  0.22781  0.64175  0.18002  1.0000
  C   C295      1.0  0.17592  0.59493  0.25136  1.0000
  S   S87       1.0  0.48675  0.54763  0.23667  1.0000
  H   H511      1.0  0.22602  0.98311  0.26446  1.0000
  H   H512      1.0  0.08423  0.60140  0.03610  1.0000
  H   H513      1.0  0.09847  0.55308  0.07854  1.0000
  H   H514      1.0  0.45023  0.56796  0.18778  1.0000
  C   C296      1.0  0.10563  0.53979  0.23623  1.0000
  H   H515      1.0  0.29188  0.74383  0.11625  1.0000
  H   H516      1.0  0.02040  0.96685  0.04348  1.0000
  H   H517      1.0  0.21119  0.56586  0.26487  1.0000
  H   H518      1.0  0.07620  0.96929  0.99252  1.0000
  C   C297      1.0  0.08171  0.55802  0.06471  1.0000
  H   H519      1.0  0.16683  0.57484  0.27384  1.0000
  H   H520      1.0  0.15859  0.60390  0.25216  1.0000
  H   H521      1.0  0.30567  0.83806  0.26207  1.0000
  H   H522      1.0  0.48921  0.56319  0.07725  1.0000
  H   H523      1.0  0.26154  0.79952  0.27394  1.0000
  H   H524      1.0  0.29629  0.80101  0.28990  1.0000
  H   H525      1.0  0.18025  0.95988  0.27690  1.0000
  H   H526      1.0  0.24640  0.67904  0.99799  1.0000
  H   H527      1.0  0.37394  0.53903  0.24637  1.0000
  H   H528      1.0  0.06646  0.53652  0.05087  1.0000
  H   H529      1.0  0.19488  0.55801  0.19434  1.0000
  H   H530      1.0  0.10027  0.55327  0.21618  1.0000
  C   C298      1.0  0.14390  0.58308  0.02239  1.0000
  S   S88       1.0  0.39383  0.67354  0.30980  1.0000
  C   C299      1.0  0.29489  0.76054  0.09322  1.0000
  H   H531      1.0  0.48730  0.65042  0.13205  1.0000
  N   N21       1.0  0.12636  0.60133  0.01422  1.0000
  H   H532      1.0  0.35899  0.82446  0.02332  1.0000
  C   C300      1.0  0.39180  0.86418  0.29306  1.0000
  H   H533      1.0  0.40816  0.55785  0.19340  1.0000
  C   C301      1.0  0.15418  0.64076  0.00565  1.0000
  C   C302      1.0  0.44749  0.64969  0.23645  1.0000
  H   H534      1.0  0.17891  0.62506  0.31129  1.0000
  H   H535      1.0  0.00255  0.97068  0.23239  1.0000
  H   H536      1.0  0.45903  0.62384  0.18883  1.0000
  H   H537      1.0  0.39422  0.61381  0.07182  1.0000
  C   C303      1.0  0.48749  0.63104  0.12041  1.0000
  C   C304      1.0  0.01238  0.97790  0.02387  1.0000
  H   H538      1.0  0.06324  0.55671  0.08285  1.0000
  H   H539      1.0  0.13492  0.52861  0.20629  1.0000
  N   N22       1.0  0.17230  0.57815  0.22201  1.0000
  C   C305      1.0  0.30934  0.77723  0.01774  1.0000
  C   C306      1.0  0.02041  0.64374  0.11761  1.0000
  H   H540      1.0  0.23118  0.73883  0.27922  1.0000
  H   H541      1.0  0.45185  0.66748  0.08399  1.0000
  H   H542      1.0  0.28830  0.72206  0.06640  1.0000
  H   H543      1.0  0.03079  0.58271  0.19131  1.0000
  H   H544      1.0  0.18507  0.52474  0.24935  1.0000
  Fe  Fe44      1.0  0.28874  0.97259  0.16676  1.0000
  Fe  Fe45      1.0  0.48004  0.53472  0.29023  1.0000
  N   N23       1.0  0.26940  0.78078  0.21543  1.0000
  C   C307      1.0  0.28712  0.78187  0.18430  1.0000
  C   C308      1.0  0.25748  0.80455  0.20754  1.0000
  C   C309      1.0  0.23840  0.74296  0.22648  1.0000
  C   C310      1.0  0.29436  0.79255  0.24012  1.0000
  C   C311      1.0  0.29971  0.75751  0.18618  1.0000
  C   C312      1.0  0.28615  0.84376  0.19303  1.0000
  C   C313      1.0  0.21657  0.73533  0.25839  1.0000
  C   C314      1.0  0.02475  0.96936  0.23638  1.0000
  H   H545      1.0  0.26997  0.77504  0.16500  1.0000
  H   H546      1.0  0.31040  0.80923  0.17496  1.0000
  H   H547      1.0  0.24322  0.80469  0.22881  1.0000
  H   H548      1.0  0.23840  0.79411  0.19002  1.0000
  H   H549      1.0  0.22088  0.73414  0.20748  1.0000
  H   H550      1.0  0.24610  0.72433  0.23031  1.0000
  H   H551      1.0  0.29501  0.77004  0.25168  1.0000
  H   H552      1.0  0.32110  0.81333  0.22800  1.0000
  H   H553      1.0  0.31445  0.75998  0.20671  1.0000
  H   H554      1.0  0.27815  0.72921  0.18717  1.0000
  H   H555      1.0  0.31745  0.76547  0.16387  1.0000
  H   H556      1.0  0.30978  0.85450  0.20481  1.0000
  C   C315      1.0  0.34739  0.62712  0.07418  1.0000
  S   S89       1.0  0.36338  0.72127  0.25529  1.0000
  H   H557      1.0  0.15853  0.59287  0.04312  1.0000
  N   N24       1.0  0.27400  0.75232  0.03669  1.0000
  H   H558      1.0  0.06075  0.95224  0.03512  1.0000
  C   C316      1.0  0.48149  0.66293  0.25067  1.0000
  H   H559      1.0  0.24911  0.71474  0.08151  1.0000
  C   C317      1.0  0.02035  0.61536  0.10964  1.0000
  H   H560      1.0  0.47089  0.61041  0.22449  1.0000
  H   H561      1.0  0.43278  0.65530  0.25270  1.0000
  S   S90       1.0  0.28519  0.70069  0.27137  1.0000
  H   H562      1.0  0.36001  0.54433  0.28392  1.0000
  H   H563      1.0  0.13849  0.52390  0.24827  1.0000
  C   C318      1.0  0.10290  0.59532  0.04339  1.0000
  H   H564      1.0  0.32430  0.76574  0.02168  1.0000
  C   C319      1.0  0.27554  0.73566  0.06918  1.0000
  C   C320      1.0  0.21230  0.62714  0.25484  1.0000
  H   H565      1.0  0.39374  0.87210  0.26731  1.0000
  N   N25       1.0  0.38535  0.65421  0.07532  1.0000
  H   H566      1.0  0.33190  0.63677  0.08192  1.0000
  S   S91       1.0  0.99257  0.53007  0.24852  1.0000
  H   H567      1.0  0.22744  0.76411  0.99981  1.0000
  C   C321      1.0  0.42859  0.72347  0.06461  1.0000
  H   H568      1.0  0.32516  0.81961  0.04819  1.0000
  H   H569      1.0  0.42630  0.54844  0.22711  1.0000
  H   H570      1.0  0.04032  0.98195  0.98051  1.0000
  C   C322      1.0  0.26798  0.96376  0.30159  1.0000
  C   C323      1.0  0.48879  0.58216  0.08940  1.0000
  C   C324      1.0  0.47776  0.55967  0.99958  1.0000
  H   H571      1.0  0.24222  0.80335  0.01594  1.0000
  C   C325      1.0  0.16895  0.58734  0.99479  1.0000
  H   H572      1.0  0.33180  0.83437  0.00503  1.0000
  C   C326      1.0  0.10699  0.59001  0.98556  1.0000
  H   H573      1.0  0.08719  0.53276  0.99920  1.0000
  C   C327      1.0  0.28340  0.49354  0.28374  1.0000
  H   H574      1.0  0.41781  0.91794  0.30227  1.0000
  H   H575      1.0  0.02145  0.64598  0.27452  1.0000
  H   H576      1.0  0.24952  0.73285  0.99421  1.0000
  H   H577      1.0  0.09261  0.60219  0.98181  1.0000
  H   H578      1.0  0.10476  0.97403  0.02072  1.0000
  H   H579      1.0  0.45152  0.51514  0.14039  1.0000
  C   C328      1.0  0.40551  0.89029  0.31287  1.0000
  H   H580      1.0  0.49204  0.68963  0.25670  1.0000
  H   H581      1.0  0.46134  0.59257  0.98178  1.0000
  Fe  Fe46      1.0  0.27690  0.65988  0.31283  1.0000
  C   C329      1.0  0.28694  0.50626  0.31296  1.0000
  H   H582      1.0  0.37427  0.67997  0.47355  1.0000
  C   C330      1.0  0.29016  0.57699  0.50455  1.0000
  S   S92       1.0  0.06832  0.55190  0.38531  1.0000
  Fe  Fe47      1.0  0.44601  0.53851  0.34980  1.0000
  H   H583      1.0  0.21750  0.55632  0.33332  1.0000
  S   S93       1.0  0.40578  0.54709  0.36751  1.0000
  Fe  Fe48      1.0  0.45274  0.97206  0.35101  1.0000
  S   S94       1.0  0.41920  0.91271  0.37210  1.0000
  H   H584      1.0  0.26092  0.53332  0.36451  1.0000
  H   H585      1.0  0.38281  0.59019  0.45489  1.0000
  H   H586      1.0  0.37524  0.56548  0.42302  1.0000
  H   H587      1.0  0.27937  0.57514  0.42880  1.0000
  Fe  Fe49      1.0  0.02037  0.53500  0.36075  1.0000
  H   H588      1.0  0.32651  0.97545  0.33903  1.0000
  Fe  Fe50      1.0  0.22841  0.93052  0.44610  1.0000
  H   H589      1.0  0.37926  0.64498  0.43681  1.0000
  H   H590      1.0  0.32426  0.56324  0.49243  1.0000
  S   S95       1.0  0.24027  0.94124  0.53564  1.0000
  H   H591      1.0  0.32583  0.48990  0.37906  1.0000
  C   C331      1.0  0.36975  0.49770  0.50660  1.0000
  H   H592      1.0  0.11608  0.66951  0.62045  1.0000
  C   C332      1.0  0.36510  0.98179  0.54500  1.0000
  Fe  Fe51      1.0  0.07798  0.58957  0.60822  1.0000
  S   S96       1.0  0.04091  0.53751  0.59224  1.0000
  Fe  Fe52      1.0  0.09388  0.63214  0.54052  1.0000
  S   S97       1.0  0.05751  0.58293  0.51947  1.0000
  S   S98       1.0  0.12937  0.68718  0.50865  1.0000
  Fe  Fe53      1.0  0.02085  0.56577  0.56443  1.0000
  C   C333      1.0  0.18425  0.60355  0.35735  1.0000
  Fe  Fe54      1.0  0.08014  0.55785  0.54819  1.0000
  S   S99       1.0  0.08757  0.51705  0.53065  1.0000
  S   S100      1.0  0.05576  0.61690  0.58357  1.0000
  S   S101      1.0  0.11860  0.60795  0.56609  1.0000
  H   H593      1.0  0.45726  0.62220  0.34045  1.0000
  S   S102      1.0  0.21256  0.51204  0.47499  1.0000
  H   H594      1.0  0.37438  0.49324  0.55748  1.0000
  Fe  Fe55      1.0  0.20777  0.89045  0.51519  1.0000
  C   C334      1.0  0.36665  0.60284  0.33574  1.0000
  S   S103      1.0  0.17389  0.83524  0.54730  1.0000
  C   C335      1.0  0.04217  0.95651  0.63858  1.0000
  H   H595      1.0  0.30072  0.63232  0.38896  1.0000
  C   C336      1.0  0.24599  0.93977  0.32970  1.0000
  H   H596      1.0  0.27449  0.84841  0.43049  1.0000
  S   S104      1.0  0.18354  0.91154  0.48369  1.0000
  S   S105      1.0  0.25037  0.90637  0.47669  1.0000
  C   C337      1.0  0.12515  0.69491  0.62885  1.0000
  H   H597      1.0  0.11918  0.70946  0.61050  1.0000
  C   C338      1.0  0.12971  0.59132  0.34189  1.0000
  C   C339      1.0  0.44263  0.53445  0.49793  1.0000
  C   C340      1.0  0.42434  0.52130  0.52902  1.0000
  C   C341      1.0  0.22113  0.53480  0.33984  1.0000
  H   H598      1.0  0.29435  0.94137  0.39827  1.0000
  H   H599      1.0  0.01966  0.50026  0.51328  1.0000
  C   C342      1.0  0.01540  0.48972  0.49031  1.0000
  C   C343      1.0  0.16664  0.58302  0.38785  1.0000
  C   C344      1.0  0.12331  0.51663  0.51627  1.0000
  C   C345      1.0  0.15611  0.54775  0.50489  1.0000
  C   C346      1.0  0.18297  0.54579  0.49249  1.0000
  C   C347      1.0  0.17780  0.51278  0.49183  1.0000
  H   H600      1.0  0.46183  0.98319  0.50192  1.0000
  C   C348      1.0  0.13264  0.97944  0.61260  1.0000
  H   H601      1.0  0.16068  0.57334  0.50528  1.0000
  H   H602      1.0  0.20798  0.57010  0.48343  1.0000
  C   C349      1.0  0.02770  0.95242  0.60596  1.0000
  H   H603      1.0  0.19095  0.68938  0.58862  1.0000
  C   C350      1.0  0.13999  0.72812  0.51857  1.0000
  C   C351      1.0  0.12162  0.72930  0.54447  1.0000
  C   C352      1.0  0.13188  0.76230  0.55253  1.0000
  C   C353      1.0  0.16023  0.79454  0.53448  1.0000
  C   C354      1.0  0.17792  0.79336  0.50792  1.0000
  C   C355      1.0  0.16789  0.76033  0.50009  1.0000
  H   H604      1.0  0.09953  0.70476  0.55828  1.0000
  H   H605      1.0  0.11774  0.76291  0.57284  1.0000
  H   H606      1.0  0.19973  0.81789  0.49377  1.0000
  H   H607      1.0  0.18212  0.75979  0.47982  1.0000
  C   C356      1.0  0.40309  0.88056  0.34624  1.0000
  H   H608      1.0  0.22700  0.91215  0.32838  1.0000
  H   H609      1.0  0.43794  0.53838  0.44695  1.0000
  C   C357      1.0  0.16808  0.77394  0.63225  1.0000
  C   C358      1.0  0.37363  0.81830  0.33955  1.0000
  C   C359      1.0  0.38694  0.84441  0.35948  1.0000
  S   S106      1.0  0.47014  0.51780  0.38201  1.0000
  H   H610      1.0  0.29302  0.61347  0.44512  1.0000
  H   H611      1.0  0.36141  0.79065  0.35001  1.0000
  H   H612      1.0  0.38487  0.83656  0.38525  1.0000
  C   C360      1.0  0.40264  0.58201  0.35013  1.0000
  C   C361      1.0  0.30747  0.56868  0.47917  1.0000
  H   H613      1.0  0.27310  0.58395  0.49455  1.0000
  S   S107      1.0  0.01121  0.56929  0.32660  1.0000
  C   C362      1.0  0.02439  0.52107  0.46405  1.0000
  C   C363      1.0  0.36998  0.57541  0.34854  1.0000
  C   C364      1.0  0.34074  0.58201  0.42726  1.0000
  H   H614      1.0  0.30943  0.59770  0.51744  1.0000
  C   C365      1.0  0.43198  0.61660  0.33939  1.0000
  H   H615      1.0  0.34709  0.54886  0.35674  1.0000
  C   C366      1.0  0.11231  0.57037  0.37238  1.0000
  H   H616      1.0  0.48255  0.91947  0.42984  1.0000
  H   H617      1.0  0.03088  0.93463  0.59336  1.0000
  H   H618      1.0  0.27331  0.55262  0.52319  1.0000
  H   H619      1.0  0.21028  0.75074  0.59670  1.0000
  C   C367      1.0  0.13117  0.56651  0.39521  1.0000
  S   S108      1.0  0.42823  0.49628  0.31914  1.0000
  H   H620      1.0  0.35749  0.60236  0.40547  1.0000
  N   N26       1.0  0.16330  0.71587  0.63092  1.0000
  C   C368      1.0  0.35757  0.63063  0.45700  1.0000
  S   S109      1.0  0.99686  0.48981  0.33328  1.0000
  C   C369      1.0  0.38476  0.96105  0.43212  1.0000
  C   C370      1.0  0.24891  0.95112  0.35959  1.0000
  H   H621      1.0  0.43800  0.52538  0.54985  1.0000
  H   H622      1.0  0.34594  0.54417  0.45938  1.0000
  C   C371      1.0  0.18236  0.73006  0.59704  1.0000
  H   H623      1.0  0.14064  0.76158  0.62943  1.0000
  H   H624      1.0  0.32904  0.64738  0.48331  1.0000
  Fe  Fe56      1.0  0.28134  0.95870  0.49436  1.0000
  H   H625      1.0  0.15133  0.68155  0.57622  1.0000
  N   N27       1.0  0.13098  0.66335  0.41101  1.0000
  C   C372      1.0  0.13672  0.63553  0.42419  1.0000
  C   C373      1.0  0.12776  0.66251  0.37550  1.0000
  C   C374      1.0  0.09839  0.65591  0.42782  1.0000
  C   C375      1.0  0.16082  0.69907  0.41647  1.0000
  C   C376      1.0  0.14051  0.63176  0.46042  1.0000
  C   C377      1.0  0.16168  0.67965  0.35287  1.0000
  C   C378      1.0  0.06541  0.61856  0.42811  1.0000
  C   C379      1.0  0.15955  0.73104  0.40377  1.0000
  H   H626      1.0  0.11549  0.60893  0.42002  1.0000
  H   H627      1.0  0.16033  0.64072  0.41116  1.0000
  H   H628      1.0  0.11506  0.67533  0.36613  1.0000
  H   H629      1.0  0.11040  0.63457  0.37151  1.0000
  H   H630      1.0  0.10095  0.66003  0.45326  1.0000
  H   H631      1.0  0.09329  0.67526  0.41644  1.0000
  H   H632      1.0  0.16234  0.69917  0.44279  1.0000
  H   H633      1.0  0.18598  0.70482  0.40692  1.0000
  H   H634      1.0  0.11918  0.62837  0.47574  1.0000
  H   H635      1.0  0.14013  0.60765  0.46785  1.0000
  H   H636      1.0  0.16540  0.65473  0.46555  1.0000
  H   H637      1.0  0.37448  0.50699  0.45468  1.0000
  C   C380      1.0  0.15970  0.49044  0.34174  1.0000
  H   H638      1.0  0.06636  0.59781  0.44311  1.0000
  C   C381      1.0  0.42862  0.64422  0.32758  1.0000
  H   H639      1.0  0.06045  0.61245  0.40346  1.0000
  H   H640      1.0  0.04297  0.61707  0.43922  1.0000
  H   H641      1.0  0.14705  0.73605  0.42309  1.0000
  H   H642      1.0  0.14568  0.72751  0.38247  1.0000
  H   H643      1.0  0.18616  0.75520  0.39592  1.0000
  N   N28       1.0  0.33751  0.93725  0.39451  1.0000
  S   S110      1.0  0.22168  0.91989  0.39455  1.0000
  H   H644      1.0  0.32468  0.90086  0.43935  1.0000
  C   C382      1.0  0.33270  0.93407  0.35956  1.0000
  C   C383      1.0  0.31903  0.95161  0.40834  1.0000
  H   H645      1.0  0.12549  0.50358  0.32285  1.0000
  C   C384      1.0  0.37546  0.95962  0.39725  1.0000
  H   H646      1.0  0.46942  0.95349  0.46392  1.0000
  C   C385      1.0  0.18492  0.51252  0.39200  1.0000
  C   C386      1.0  0.47489  0.61977  0.41585  1.0000
  H   H647      1.0  0.34402  0.64890  0.39609  1.0000
  H   H648      1.0  0.13837  0.96024  0.50179  1.0000
  H   H649      1.0  0.38859  0.94979  0.38467  1.0000
  H   H650      1.0  0.34588  0.92262  0.35009  1.0000
  H   H651      1.0  0.30504  0.91555  0.35690  1.0000
  H   H652      1.0  0.17822  0.70899  0.35081  1.0000
  H   H653      1.0  0.45321  0.60257  0.43574  1.0000
  H   H654      1.0  0.16796  0.54196  0.32237  1.0000
  C   C387      1.0  0.38806  0.51063  0.47546  1.0000
  C   C388      1.0  0.25494  0.55233  0.35502  1.0000
  S   S111      1.0  0.22893  0.62141  0.35011  1.0000
  H   H655      1.0  0.26773  0.88156  0.41555  1.0000
  H   H656      1.0  0.47179  0.94872  0.41113  1.0000
  H   H657      1.0  0.01529  0.53640  0.47279  1.0000
  C   C389      1.0  0.36239  0.56997  0.44242  1.0000
  H   H658      1.0  0.17641  0.66877  0.36064  1.0000
  H   H659      1.0  0.33843  0.96261  0.55529  1.0000
  H   H660      1.0  0.31860  0.60902  0.37940  1.0000
  H   H661      1.0  0.38416  0.93730  0.44199  1.0000
  H   H662      1.0  0.28026  0.86250  0.38796  1.0000
  H   H663      1.0  0.45147  0.67095  0.31968  1.0000
  H   H664      1.0  0.11838  0.55110  0.41913  1.0000
  H   H665      1.0  0.05276  0.53870  0.45720  1.0000
  H   H666      1.0  0.18057  0.58001  0.40626  1.0000
  H   H667      1.0  0.33729  0.89003  0.40498  1.0000
  H   H668      1.0  0.47915  0.91691  0.48710  1.0000
  H   H669      1.0  0.27630  0.49265  0.36515  1.0000
  C   C390      1.0  0.42421  0.52867  0.47119  1.0000
  H   H670      1.0  0.31192  0.94213  0.43487  1.0000
  C   C391      1.0  0.31777  0.62438  0.39709  1.0000
  N   N29       1.0  0.32731  0.59643  0.44897  1.0000
  C   C392      1.0  0.28404  0.87199  0.41139  1.0000
  Fe  Fe57      1.0  0.21843  0.96326  0.50143  1.0000
  S   S112      1.0  0.32752  0.69806  0.33076  1.0000
  C   C393      1.0  0.32251  0.90036  0.41314  1.0000
  H   H671      1.0  0.27657  0.57299  0.33622  1.0000
  N   N30       1.0  0.08098  0.97853  0.63685  1.0000
  C   C394      1.0  0.16566  0.60809  0.33439  1.0000
  H   H672      1.0  0.28684  0.54297  0.47269  1.0000
  H   H673      1.0  0.09036  0.96720  0.50748  1.0000
  H   H674      1.0  0.31918  0.55905  0.41785  1.0000
  C   C395      1.0  0.17866  0.70208  0.57803  1.0000
  H   H675      1.0  0.21197  0.98291  0.31882  1.0000
  C   C396      1.0  0.34493  0.96837  0.33597  1.0000
  H   H676      1.0  0.19173  0.71532  0.55291  1.0000
  H   H677      1.0  0.07981  0.93430  0.62354  1.0000
  C   C397      1.0  0.39600  0.63752  0.32550  1.0000
  S   S113      1.0  0.26132  0.98341  0.46119  1.0000
  H   H678      1.0  0.15556  0.67395  0.32821  1.0000
  H   H679      1.0  0.34145  0.59716  0.33377  1.0000
  C   C398      1.0  0.35115  0.65837  0.46454  1.0000
  C   C399      1.0  0.30290  0.60144  0.43131  1.0000
  H   H680      1.0  0.13914  0.51858  0.35985  1.0000
  H   H681      1.0  0.36832  0.62485  0.47800  1.0000
  H   H682      1.0  0.34739  0.67113  0.44257  1.0000
  H   H683      1.0  0.11560  0.59553  0.32472  1.0000
  C   C400      1.0  0.38819  0.50308  0.53326  1.0000
  H   H684      1.0  0.17348  0.74427  0.58217  1.0000
  H   H685      1.0  0.38512  0.97367  0.58794  1.0000
  H   H686      1.0  0.22591  0.52840  0.31642  1.0000
  H   H687      1.0  0.25424  0.56608  0.37445  1.0000
  C   C401      1.0  0.09394  0.96358  0.61539  1.0000
  H   H688      1.0  0.47764  0.64531  0.41023  1.0000
  H   H689      1.0  0.36739  0.96286  0.44868  1.0000
  C   C402      1.0  0.14210  0.98248  0.51157  1.0000
  H   H690      1.0  0.18399  0.78862  0.60835  1.0000
  N   N31       1.0  0.18972  0.50233  0.36069  1.0000
  H   H691      1.0  0.08890  0.96735  0.59009  1.0000
  H   H692      1.0  0.01364  0.51269  0.44151  1.0000
  H   H693      1.0  0.46709  0.60580  0.39492  1.0000
  S   S114      1.0  0.48831  0.55801  0.49108  1.0000
  H   H694      1.0  0.18767  0.53819  0.38758  1.0000
  C   C403      1.0  0.27330  0.98687  0.36098  1.0000
  H   H695      1.0  0.20616  0.51834  0.40641  1.0000
  H   H696      1.0  0.13812  0.96580  0.59608  1.0000
  H   H697      1.0  0.41129  0.98484  0.43210  1.0000
  H   H698      1.0  0.03956  0.97836  0.58986  1.0000
  H   H699      1.0  0.22709  0.72836  0.63344  1.0000
  H   H700      1.0  0.99961  0.94007  0.61035  1.0000
  C   C404      1.0  0.14791  0.51544  0.33659  1.0000
  C   C405      1.0  0.11486  0.98652  0.51487  1.0000
  H   H701      1.0  0.14092  0.97518  0.63595  1.0000
  H   H702      1.0  0.16029  0.66675  0.63952  1.0000
  C   C406      1.0  0.49192  0.98121  0.46311  1.0000
  H   H703      1.0  0.14436  0.49961  0.42892  1.0000
  H   H704      1.0  0.46358  0.48944  0.48218  1.0000
  H   H705      1.0  0.38818  0.98738  0.38474  1.0000
  S   S115      1.0  0.38470  0.73702  0.91628  1.0000
  S   S116      1.0  0.43835  0.84300  0.90199  1.0000
  C   C407      1.0  0.48022  0.80603  0.86841  1.0000
  Fe  Fe58      1.0  0.08965  0.62303  0.89526  1.0000
  S   S117      1.0  0.07663  0.58178  0.86432  1.0000
  S   S118      1.0  0.14296  0.66497  0.90866  1.0000
  Fe  Fe59      1.0  0.01425  0.60042  0.90583  1.0000
  H   H706      1.0  0.20756  0.72050  0.92599  1.0000
  S   S119      1.0  0.48135  0.50165  0.91681  1.0000
  Fe  Fe60      1.0  0.03017  0.54431  0.90210  1.0000
  H   H707      1.0  0.06218  0.52850  0.75478  1.0000
  Fe  Fe61      1.0  0.04357  0.59684  0.84118  1.0000
  S   S120      1.0  0.03079  0.60087  0.78959  1.0000
  S   S121      1.0  0.04468  0.58497  0.93415  1.0000
  S   S122      1.0  0.05990  0.64124  0.86901  1.0000
  C   C408      1.0  0.07815  0.59682  0.69408  1.0000
  C   C409      1.0  0.04632  0.59206  0.69649  1.0000
  C   C410      1.0  0.03230  0.59346  0.72589  1.0000
  C   C411      1.0  0.04975  0.59936  0.75324  1.0000
  C   C412      1.0  0.08156  0.60406  0.75085  1.0000
  C   C413      1.0  0.09566  0.60282  0.72141  1.0000
  H   H708      1.0  0.03262  0.58754  0.67564  1.0000
  H   H709      1.0  0.03028  0.92908  0.65226  1.0000
  H   H710      1.0  0.09549  0.60910  0.77154  1.0000
  H   H711      1.0  0.12039  0.60673  0.71974  1.0000
  C   C414      1.0  0.45161  0.88410  0.91379  1.0000
  C   C415      1.0  0.44376  0.88609  0.94547  1.0000
  S   S123      1.0  0.43011  0.69379  0.96825  1.0000
  H   H712      1.0  0.44878  0.92043  0.97840  1.0000
  H   H713      1.0  0.10755  0.53967  0.82695  1.0000
  S   S124      1.0  0.01983  0.49025  0.92162  1.0000
  C   C416      1.0  0.39473  0.54087  0.96792  1.0000
  H   H714      1.0  0.10561  0.67040  0.68067  1.0000
  C   C417      1.0  0.47101  0.91572  0.89072  1.0000
  C   C418      1.0  0.45001  0.68182  0.94109  1.0000
  N   N32       1.0  0.42693  0.54180  0.96681  1.0000
  H   H715      1.0  0.07430  0.66674  0.65631  1.0000
  C   C419      1.0  0.17484  0.74677  0.64794  1.0000
  C   C420      1.0  0.02381  0.69026  0.82514  1.0000
  H   H716      1.0  0.16320  0.61571  0.90537  1.0000
  H   H717      1.0  0.45550  0.77775  0.82926  1.0000
  C   C421      1.0  0.18139  0.66767  0.91489  1.0000
  C   C422      1.0  0.18445  0.63977  0.91208  1.0000
  C   C423      1.0  0.24342  0.67417  0.92642  1.0000
  C   C424      1.0  0.24031  0.70201  0.92938  1.0000
  C   C425      1.0  0.20952  0.69871  0.92372  1.0000
  H   H718      1.0  0.26173  0.72620  0.93573  1.0000
  S   S125      1.0  0.28147  0.67636  0.93344  1.0000
  C   C426      1.0  0.46874  0.77537  0.84960  1.0000
  C   C427      1.0  0.47431  0.95089  0.93074  1.0000
  Fe  Fe62      1.0  0.33494  0.71624  0.94785  1.0000
  C   C428      1.0  0.08718  0.53118  0.81085  1.0000
  H   H719      1.0  0.42619  0.95061  0.67212  1.0000
  H   H720      1.0  0.42895  0.86209  0.96354  1.0000
  H   H721      1.0  0.04923  0.50417  0.85321  1.0000
  H   H722      1.0  0.02922  0.69896  0.79854  1.0000
  H   H723      1.0  0.16285  0.73734  0.67366  1.0000
  H   H724      1.0  0.21718  0.62129  0.91546  1.0000
  C   C429      1.0  0.43373  0.96040  0.69538  1.0000
  H   H725      1.0  0.44661  0.55885  0.88223  1.0000
  H   H726      1.0  0.07770  0.94538  0.68001  1.0000
  H   H727      1.0  0.46943  0.55567  0.93238  1.0000
  Fe  Fe63      1.0  0.40560  0.78850  0.93496  1.0000
  H   H728      1.0  0.07783  0.54427  0.96179  1.0000
  H   H729      1.0  0.02417  0.50092  0.73612  1.0000
  C   C430      1.0  0.20865  0.70777  0.65409  1.0000
  H   H730      1.0  0.40040  0.48834  0.95668  1.0000
  H   H731      1.0  0.45654  0.79923  0.88289  1.0000
  H   H732      1.0  0.46027  0.58775  0.92873  1.0000
  S   S126      1.0  0.09780  0.59686  0.65740  1.0000
  H   H733      1.0  0.40707  0.54665  0.90263  1.0000
  C   C431      1.0  0.99531  0.64998  0.83501  1.0000
  H   H734      1.0  0.08587  0.55418  0.80390  1.0000
  C   C432      1.0  0.46451  0.67591  0.88725  1.0000
  H   H735      1.0  0.47721  0.91455  0.86615  1.0000
  H   H736      1.0  0.44439  0.94636  0.70712  1.0000
  H   H737      1.0  0.12477  0.60090  0.96255  1.0000
  H   H738      1.0  0.41886  0.51537  0.90568  1.0000
  H   H739      1.0  0.17548  0.79412  0.64789  1.0000
  C   C433      1.0  0.21519  0.64305  0.91782  1.0000
  S   S127      1.0  0.99643  0.55647  0.87694  1.0000
  H   H740      1.0  0.15640  0.68106  0.67462  1.0000
  H   H741      1.0  0.38697  0.95836  0.70896  1.0000
  H   H742      1.0  0.01375  0.52145  0.83047  1.0000
  C   C434      1.0  0.01435  0.51227  0.80739  1.0000
  H   H743      1.0  0.43192  0.69307  0.89844  1.0000
  H   H744      1.0  0.00890  0.92145  0.93528  1.0000
  H   H745      1.0  0.48835  0.83001  0.85055  1.0000
  H   H746      1.0  0.48640  0.82850  0.92540  1.0000
  H   H747      1.0  0.15656  0.57877  0.97280  1.0000
  H   H748      1.0  0.40540  0.94929  0.74287  1.0000
  H   H749      1.0  0.44980  0.74929  0.86538  1.0000
  C   C435      1.0  0.48225  0.94889  0.89908  1.0000
  H   H750      1.0  0.21319  0.68663  0.65586  1.0000
  H   H751      1.0  0.01786  0.68229  0.91227  1.0000
  C   C436      1.0  0.44734  0.68450  0.90802  1.0000
  H   H752      1.0  0.38225  0.91722  0.71794  1.0000
  C   C437      1.0  0.45507  0.91928  0.95384  1.0000
  H   H753      1.0  0.00697  0.72866  0.91407  1.0000
  H   H754      1.0  0.00770  0.58985  0.72743  1.0000
  C   C438      1.0  0.42838  0.54353  0.90488  1.0000
  H   H755      1.0  0.01806  0.70687  0.83668  1.0000
  H   H756      1.0  0.03516  0.53661  0.79100  1.0000
  Fe  Fe64      1.0  0.40090  0.71996  0.96047  1.0000
  C   C439      1.0  0.44782  0.55858  0.93373  1.0000
  C   C440      1.0  0.10155  0.68485  0.66045  1.0000
  H   H757      1.0  0.37658  0.52259  0.95245  1.0000
  C   C441      1.0  0.48413  0.66392  0.89921  1.0000
  S   S128      1.0  0.35538  0.76891  0.96308  1.0000
  C   C442      1.0  0.17060  0.69141  0.64975  1.0000
  C   C443      1.0  0.46950  0.66965  0.95316  1.0000
  H   H758      1.0  0.04810  0.69577  0.83332  1.0000
  H   H759      1.0  0.21493  0.71946  0.67644  1.0000
  H   H760      1.0  0.46234  0.67833  0.86168  1.0000
  H   H761      1.0  0.45866  0.50608  0.84211  1.0000
  H   H762      1.0  0.10449  0.70840  0.66789  1.0000
  H   H763      1.0  0.46735  0.76635  0.92414  1.0000
  C   C444      1.0  0.40042  0.94625  0.71755  1.0000
  H   H764      1.0  0.00462  0.63660  0.82252  1.0000
  H   H765      1.0  0.12891  0.66094  0.97668  1.0000
  H   H766      1.0  0.47154  0.66718  0.97873  1.0000
  C   C445      1.0  0.40041  0.57724  0.95840  1.0000
  H   H767      1.0  0.43932  0.50287  0.97140  1.0000
  H   H768      1.0  0.04726  0.96911  0.70166  1.0000
  H   H769      1.0  0.41382  0.59063  0.93348  1.0000
  H   H770      1.0  0.09588  0.52513  0.78946  1.0000
  H   H771      1.0  0.20305  0.76214  0.64901  1.0000
  H   H772      1.0  0.03132  0.96807  0.65200  1.0000
  H   H773      1.0  0.46229  0.50871  0.79932  1.0000
  S   S129      1.0  0.42511  0.77278  0.97668  1.0000
  C   C446      1.0  0.05321  0.49805  0.82934  1.0000
  H   H774      1.0  0.41469  0.59516  0.97567  1.0000
  C   C447      1.0  0.04317  0.50116  0.75090  1.0000
  H   H775      1.0  0.37499  0.57317  0.95923  1.0000
  H   H776      1.0  0.05741  0.49454  0.73537  1.0000
  C   C448      1.0  0.41667  0.50415  0.97448  1.0000
  C   C449      1.0  0.46174  0.49384  0.82244  1.0000
  H   H777      1.0  0.48689  0.49856  0.75989  1.0000
  C   C450      1.0  0.48631  0.66058  0.93241  1.0000
  H   H778      1.0  0.49136  0.96088  0.67664  1.0000
  C   C451      1.0  0.08887  0.97393  0.67079  1.0000
  H   H779      1.0  0.99509  0.64259  0.86131  1.0000
  C   C452      1.0  0.99225  0.67459  0.92024  1.0000
  H   H780      1.0  0.49055  0.77529  0.83955  1.0000
  H   H781      1.0  0.08631  0.98600  0.71876  1.0000
  C   C453      1.0  0.07571  0.98673  0.69581  1.0000
  C   C454      1.0  0.70609  0.01424  0.00582  1.0000
  Fe  Fe65      1.0  0.67830  0.24431  0.09818  1.0000
  S   S130      1.0  0.66339  0.19896  0.07184  1.0000
  S   S131      1.0  0.71017  0.30278  0.07481  1.0000
  Fe  Fe66      1.0  0.64712  0.19528  0.16173  1.0000
  S   S132      1.0  0.63068  0.14615  0.14170  1.0000
  S   S133      1.0  0.63508  0.18876  0.21457  1.0000
  Fe  Fe67      1.0  0.68250  0.17980  0.11203  1.0000
  S   S134      1.0  0.72248  0.16746  0.10510  1.0000
  Fe  Fe68      1.0  0.61201  0.16824  0.10409  1.0000
  S   S135      1.0  0.55913  0.12592  0.09100  1.0000
  S   S136      1.0  0.70049  0.22722  0.13577  1.0000
  S   S137      1.0  0.62555  0.21545  0.12632  1.0000
  S   S138      1.0  0.83943  0.16349  0.21283  1.0000
  Fe  Fe69      1.0  0.86438  0.23530  0.02109  1.0000
  H   H782      1.0  0.75756  0.45156  0.27976  1.0000
  S   S139      1.0  0.86518  0.24875  0.07142  1.0000
  C   C455      1.0  0.68826  0.02049  0.26046  1.0000
  C   C456      1.0  0.50218  0.16878  0.20907  1.0000
  H   H783      1.0  0.80611  0.36796  0.19561  1.0000
  C   C457      1.0  0.74479  0.03026  0.24331  1.0000
  H   H784      1.0  0.80397  0.26867  0.11857  1.0000
  H   H785      1.0  0.91570  0.01561  0.24688  1.0000
  H   H786      1.0  0.83248  0.10934  0.01663  1.0000
  H   H787      1.0  0.91443  0.14300  0.07847  1.0000
  S   S140      1.0  0.81777  0.03992  0.11261  1.0000
  S   S141      1.0  0.77852  0.41862  0.16677  1.0000
  H   H788      1.0  0.66679  0.00741  0.21443  1.0000
  S   S142      1.0  0.81929  0.04883  0.18888  1.0000
  C   C458      1.0  0.91748  0.00486  0.22541  1.0000
  Fe  Fe70      1.0  0.78026  0.03148  0.15347  1.0000
  S   S143      1.0  0.73615  0.03888  0.15076  1.0000
  Fe  Fe71      1.0  0.85554  0.05305  0.14881  1.0000
  S   S144      1.0  0.91265  0.10045  0.14159  1.0000
  S   S145      1.0  0.77111  0.48561  0.20147  1.0000
  H   H789      1.0  0.66964  0.04388  0.22717  1.0000
  H   H790      1.0  0.52646  0.09545  0.18344  1.0000
  H   H791      1.0  0.89435  0.45116  0.26329  1.0000
  H   H792      1.0  0.79658  0.34151  0.11388  1.0000
  H   H793      1.0  0.89777  0.42334  0.20156  1.0000
  H   H794      1.0  0.56999  0.06617  0.09176  1.0000
  Fe  Fe72      1.0  0.98869  0.06395  0.29194  1.0000
  H   H795      1.0  0.88134  0.11163  0.28768  1.0000
  C   C459      1.0  0.76199  0.23294  0.22314  1.0000
  C   C460      1.0  0.78229  0.07509  0.99827  1.0000
  H   H796      1.0  0.91785  0.19141  0.01864  1.0000
  H   H797      1.0  0.67185  0.13943  0.06182  1.0000
  Fe  Fe73      1.0  0.83341  0.17958  0.26006  1.0000
  C   C461      1.0  0.62768  0.08263  0.00973  1.0000
  H   H798      1.0  0.58546  0.04127  0.98822  1.0000
  H   H799      1.0  0.79543  0.23497  0.09693  1.0000
  H   H800      1.0  0.76780  0.24912  0.09566  1.0000
  C   C462      1.0  0.84797  0.41140  0.16136  1.0000
  C   C463      1.0  0.84497  0.18683  0.17379  1.0000
  C   C464      1.0  0.84962  0.21973  0.16915  1.0000
  C   C465      1.0  0.85523  0.23801  0.13759  1.0000
  C   C466      1.0  0.85555  0.22331  0.11046  1.0000
  C   C467      1.0  0.84988  0.18993  0.11516  1.0000
  C   C468      1.0  0.84528  0.17212  0.14669  1.0000
  H   H801      1.0  0.84965  0.23142  0.18982  1.0000
  H   H802      1.0  0.85970  0.26388  0.13418  1.0000
  H   H803      1.0  0.84928  0.17798  0.09454  1.0000
  H   H804      1.0  0.84162  0.14663  0.15015  1.0000
  C   C469      1.0  0.59213  0.07025  0.07678  1.0000
  C   C470      1.0  0.93009  0.22975  0.06616  1.0000
  C   C471      1.0  0.98273  0.13142  0.13394  1.0000
  C   C472      1.0  0.95029  0.10332  0.12763  1.0000
  C   C473      1.0  0.94899  0.07967  0.10911  1.0000
  H   H805      1.0  0.91417  0.23076  0.04785  1.0000
  C   C474      1.0  0.60794  0.10409  0.05093  1.0000
  S   S146      1.0  0.49518  0.03756  0.23758  1.0000
  H   H806      1.0  0.92440  0.05812  0.10371  1.0000
  H   H807      1.0  0.79175  0.03615  0.04612  1.0000
  C   C475      1.0  0.72519  0.13135  0.11973  1.0000
  C   C476      1.0  0.75785  0.13766  0.11863  1.0000
  C   C477      1.0  0.76164  0.10989  0.12851  1.0000
  C   C478      1.0  0.73276  0.07518  0.13929  1.0000
  C   C479      1.0  0.69994  0.06877  0.14051  1.0000
  C   C480      1.0  0.69612  0.09665  0.13096  1.0000
  H   H808      1.0  0.78048  0.16431  0.10981  1.0000
  H   H809      1.0  0.78690  0.11518  0.12716  1.0000
  H   H810      1.0  0.67727  0.04200  0.14875  1.0000
  H   H811      1.0  0.67075  0.09119  0.13188  1.0000
  C   C481      1.0  0.72851  0.33513  0.10034  1.0000
  C   C482      1.0  0.72660  0.32519  0.13357  1.0000
  C   C483      1.0  0.74205  0.35122  0.15330  1.0000
  C   C484      1.0  0.75906  0.38749  0.14028  1.0000
  C   C485      1.0  0.76104  0.39759  0.10702  1.0000
  C   C486      1.0  0.74602  0.37148  0.08712  1.0000
  H   H812      1.0  0.71307  0.29739  0.14417  1.0000
  H   H813      1.0  0.74026  0.34308  0.17897  1.0000
  H   H814      1.0  0.77427  0.42542  0.09662  1.0000
  H   H815      1.0  0.74770  0.37947  0.06143  1.0000
  C   C487      1.0  0.53528  0.07843  0.22975  1.0000
  C   C488      1.0  0.54355  0.10286  0.20180  1.0000
  C   C489      1.0  0.57362  0.13733  0.19799  1.0000
  C   C490      1.0  0.59561  0.14722  0.22186  1.0000
  C   C491      1.0  0.58762  0.12260  0.24958  1.0000
  C   C492      1.0  0.55765  0.08805  0.25328  1.0000
  H   H816      1.0  0.82406  0.27233  0.04917  1.0000
  H   H817      1.0  0.57964  0.15624  0.17651  1.0000
  H   H818      1.0  0.60475  0.12990  0.26785  1.0000
  H   H819      1.0  0.55184  0.06886  0.27448  1.0000
  H   H820      1.0  0.69889  0.11366  0.01251  1.0000
  H   H821      1.0  0.94405  0.02422  0.21258  1.0000
  H   H822      1.0  0.77225  0.08640  0.22109  1.0000
  H   H823      1.0  0.51525  0.16027  0.19448  1.0000
  C   C493      1.0  0.91761  0.08767  0.26380  1.0000
  H   H824      1.0  0.69898  0.04427  0.27190  1.0000
  H   H825      1.0  0.92406  0.15287  0.18243  1.0000
  H   H826      1.0  0.75666  0.06430  0.07955  1.0000
  H   H827      1.0  0.93344  0.09236  0.28392  1.0000
  H   H828      1.0  0.77453  0.05637  0.98096  1.0000
  H   H829      1.0  0.92608  0.17880  0.11500  1.0000
  C   C494      1.0  0.94912  0.26557  0.07830  1.0000
  H   H830      1.0  0.78215  0.30923  0.00873  1.0000
  H   H831      1.0  0.86867  0.32036  0.01301  1.0000
  C   C495      1.0  0.95586  0.14833  0.23464  1.0000
  H   H832      1.0  0.79729  0.39541  0.23193  1.0000
  H   H833      1.0  0.86520  0.04386  0.25756  1.0000
  H   H834      1.0  0.86764  0.09614  0.23744  1.0000
  H   H835      1.0  0.64956  0.09036  0.99183  1.0000
  H   H836      1.0  0.97111  0.13432  0.02115  1.0000
  C   C496      1.0  0.95429  0.19842  0.11239  1.0000
  C   C497      1.0  0.51903  0.11675  0.10702  1.0000
  H   H837      1.0  0.93138  0.46624  0.23614  1.0000
  H   H838      1.0  0.90732  0.42198  0.25767  1.0000
  C   C498      1.0  0.88425  0.43122  0.21659  1.0000
  H   H839      1.0  0.84609  0.43397  0.16253  1.0000
  H   H840      1.0  0.88863  0.16320  0.26348  1.0000
  C   C499      1.0  0.86333  0.34020  0.00431  1.0000
  H   H841      1.0  0.61046  0.07285  0.09370  1.0000
  C   C500      1.0  0.90067  0.14146  0.19985  1.0000
  N   N33       1.0  0.84623  0.40162  0.22383  1.0000
  H   H842      1.0  0.83079  0.43684  0.21122  1.0000
  H   H843      1.0  0.83332  0.36977  0.08404  1.0000
  H   H844      1.0  0.71157  0.15903  0.00919  1.0000
  H   H845      1.0  0.57536  0.06860  0.00266  1.0000
  H   H846      1.0  0.98523  0.14126  0.27090  1.0000
  H   H847      1.0  0.89484  0.36414  0.28133  1.0000
  C   C501      1.0  0.88153  0.05380  0.27711  1.0000
  C   C502      1.0  0.83089  0.43216  0.26210  1.0000
  S   S147      1.0  0.83863  0.99669  0.16324  1.0000
  H   H848      1.0  0.58194  0.04614  0.06590  1.0000
  C   C503      1.0  0.89464  0.11085  0.22543  1.0000
  H   H849      1.0  0.51336  0.16109  0.00140  1.0000
  H   H850      1.0  0.76814  0.29591  0.08391  1.0000
  H   H851      1.0  0.75574  0.23468  0.04595  1.0000
  H   H852      1.0  0.96076  0.21934  0.12687  1.0000
  H   H853      1.0  0.67879  0.00513  0.00714  1.0000
  H   H854      1.0  0.70851  0.02999  0.05249  1.0000
  H   H855      1.0  0.96347  0.25410  0.00669  1.0000
  H   H856      1.0  0.75430  0.04737  0.30861  1.0000
  C   C504      1.0  0.91279  0.16742  0.27065  1.0000
  N   N34       1.0  0.71635  0.16754  0.21670  1.0000
  C   C505      1.0  0.74396  0.16368  0.20405  1.0000
  C   C506      1.0  0.73042  0.20644  0.20751  1.0000
  C   C507      1.0  0.68503  0.14720  0.19944  1.0000
  C   C508      1.0  0.73456  0.12573  0.20805  1.0000
  C   C509      1.0  0.65622  0.10861  0.21555  1.0000
  H   H857      1.0  0.75251  0.17529  0.17775  1.0000
  H   H858      1.0  0.76730  0.17867  0.21606  1.0000
  H   H859      1.0  0.71039  0.21112  0.21303  1.0000
  H   H860      1.0  0.73791  0.21512  0.18085  1.0000
  H   H861      1.0  0.67186  0.16074  0.19629  1.0000
  H   H862      1.0  0.69274  0.14689  0.17425  1.0000
  H   H863      1.0  0.75765  0.12720  0.19888  1.0000
  H   H864      1.0  0.72708  0.11236  0.23370  1.0000
  H   H865      1.0  0.71436  0.10969  0.19317  1.0000
  H   H866      1.0  0.76863  0.26009  0.21497  1.0000
  H   H867      1.0  0.78510  0.23394  0.21545  1.0000
  H   H868      1.0  0.64140  0.10808  0.23688  1.0000
  C   C510      1.0  0.50394  0.13548  0.01741  1.0000
  C   C511      1.0  0.83476  0.38513  0.19387  1.0000
  H   H869      1.0  0.66579  0.09234  0.22303  1.0000
  S   S148      1.0  0.80865  0.13347  0.30140  1.0000
  C   C512      1.0  0.71159  0.99598  0.29763  1.0000
  H   H870      1.0  0.66860  0.17057  0.01369  1.0000
  C   C513      1.0  0.97968  0.08440  0.09677  1.0000
  C   C514      1.0  0.78741  0.29123  0.02312  1.0000
  C   C515      1.0  0.82164  0.09435  0.99679  1.0000
  H   H871      1.0  0.80691  0.42913  0.27107  1.0000
  C   C516      1.0  0.81395  0.34157  0.09543  1.0000
  C   C517      1.0  0.76566  0.07022  0.24558  1.0000
  H   H872      1.0  0.62349  0.05943  0.02628  1.0000
  C   C518      1.0  0.72432  0.04173  0.02824  1.0000
  C   C519      1.0  0.90288  0.15262  0.06159  1.0000
  C   C520      1.0  0.74102  0.99846  0.07206  1.0000
  C   C521      1.0  0.76488  0.02536  0.04144  1.0000
  C   C522      1.0  0.66632  0.11972  0.04605  1.0000
  C   C523      1.0  0.70089  0.13363  0.02600  1.0000
  C   C524      1.0  0.65031  0.14659  0.00326  1.0000
  H   H873      1.0  0.82690  0.33070  0.10811  1.0000
  H   H874      1.0  0.63767  0.09557  0.19815  1.0000
  H   H875      1.0  0.93459  0.18775  0.25213  1.0000
  C   C525      1.0  0.51407  0.14383  0.10586  1.0000
  C   C526      1.0  0.90889  0.13180  0.27785  1.0000
  H   H876      1.0  0.91830  0.17945  0.29282  1.0000
  H   H877      1.0  0.91114  0.20934  0.08656  1.0000
  H   H878      1.0  0.87872  0.13069  0.18552  1.0000
  C   C527      1.0  0.82008  0.28672  0.06603  1.0000
  H   H879      1.0  0.74559  0.01109  0.09369  1.0000
  H   H880      1.0  0.84530  0.30377  0.07505  1.0000
  C   C528      1.0  0.93084  0.18675  0.03814  1.0000
  H   H881      1.0  0.78578  0.34854  0.26964  1.0000
  C   C529      1.0  0.77338  0.07902  0.05602  1.0000
  H   H882      1.0  0.95888  0.17219  0.22104  1.0000
  H   H883      1.0  0.76115  0.02101  0.24983  1.0000
  H   H884      1.0  0.85510  0.36255  0.24388  1.0000
  S   S149      1.0  0.83130  0.24363  0.98993  1.0000
  H   H885      1.0  0.80728  0.02362  0.27121  1.0000
  C   C530      1.0  0.70798  0.15576  0.25287  1.0000
  N   N35       1.0  0.63734  0.11289  0.02708  1.0000
  H   H886      1.0  0.83591  0.41884  0.28239  1.0000
  H   H887      1.0  0.75668  0.22755  0.24988  1.0000
  C   C531      1.0  0.79497  0.25879  0.09579  1.0000
  H   H888      1.0  0.96338  0.13784  0.21609  1.0000
  S   S150      1.0  0.79883  0.19575  0.27288  1.0000
  H   H889      1.0  0.66350  0.13908  0.28700  1.0000
  C   C532      1.0  0.97762  0.24969  0.02506  1.0000
  H   H890      1.0  0.75315  0.07806  0.26153  1.0000
  C   C533      1.0  0.83994  0.37291  0.25065  1.0000
  H   H891      1.0  0.83647  0.36227  0.01896  1.0000
  C   C534      1.0  0.79253  0.31945  0.07030  1.0000
  C   C535      1.0  0.97266  0.21513  0.07722  1.0000
  C   C536      1.0  0.84256  0.34377  0.03065  1.0000
  H   H892      1.0  0.79120  0.32628  0.23994  1.0000
  S   S151      1.0  0.85136  0.18618  0.00253  1.0000
  H   H893      1.0  0.94691  0.17971  0.02640  1.0000
  H   H894      1.0  0.79928  0.08715  0.06170  1.0000
  H   H895      1.0  0.69130  0.44465  0.25931  1.0000
  C   C537      1.0  0.77344  0.11247  0.04815  1.0000
  H   H896      1.0  0.61645  0.12655  0.06398  1.0000
  H   H897      1.0  0.84298  0.36722  0.19123  1.0000
  H   H898      1.0  0.89952  0.00413  0.20894  1.0000
  H   H899      1.0  0.66868  0.46291  0.27035  1.0000
  H   H900      1.0  0.89519  0.09237  0.21130  1.0000
  C   C538      1.0  0.80214  0.34070  0.26021  1.0000
  S   S152      1.0  0.87474  0.21717  0.28762  1.0000
  C   C539      1.0  0.89044  0.35718  0.30738  1.0000
  H   H901      1.0  0.80030  0.28488  0.00556  1.0000
  H   H902      1.0  0.52446  0.07980  0.01353  1.0000
  H   H903      1.0  0.66219  0.00092  0.27446  1.0000
  Fe  Fe74      1.0  0.80039  0.99154  0.20088  1.0000
  H   H904      1.0  0.90213  0.16281  0.21033  1.0000
  H   H905      1.0  0.49354  0.05995  0.11676  1.0000
  H   H906      1.0  0.82893  0.07547  0.99648  1.0000
  N   N36       1.0  0.95268  0.21990  0.05249  1.0000
  H   H907      1.0  0.78302  0.12597  0.02275  1.0000
  H   H908      1.0  0.88445  0.15559  0.07499  1.0000
  H   H909      1.0  0.79049  0.13213  0.06313  1.0000
  S   S153      1.0  0.85476  0.28821  0.29670  1.0000
  H   H910      1.0  0.65917  0.09521  0.06260  1.0000
  H   H911      1.0  0.99046  0.22380  0.99241  1.0000
  H   H912      1.0  0.72026  0.13920  0.04272  1.0000
  H   H913      1.0  0.97916  0.17581  0.27540  1.0000
  H   H914      1.0  0.84918  0.38317  0.27320  1.0000
  H   H915      1.0  0.79061  0.07867  0.25426  1.0000
  H   H916      1.0  0.78456  0.33496  0.05584  1.0000
  H   H917      1.0  0.83221  0.39718  0.14261  1.0000
  H   H918      1.0  0.53585  0.17128  0.09855  1.0000
  H   H919      1.0  0.70810  0.04998  0.21033  1.0000
  N   N37       1.0  0.70945  0.00564  0.26262  1.0000
  C   C540      1.0  0.82542  0.41577  0.23132  1.0000
  H   H920      1.0  0.73178  0.16896  0.26439  1.0000
  H   H921      1.0  0.85199  0.46102  0.25687  1.0000
  H   H922      1.0  0.74720  0.10574  0.05404  1.0000
  H   H923      1.0  0.92836  0.08049  0.24483  1.0000
  H   H924      1.0  0.85033  0.33369  0.98232  1.0000
  H   H925      1.0  0.96450  0.18401  0.12421  1.0000
  N   N38       1.0  0.81022  0.30949  0.04821  1.0000
  H   H926      1.0  0.69681  0.12706  0.25999  1.0000
  H   H927      1.0  0.69759  0.18494  0.28300  1.0000
  H   H928      1.0  0.58628  0.10103  0.03892  1.0000
  H   H929      1.0  0.93080  0.26604  0.09499  1.0000
  C   C541      1.0  0.68343  0.16291  0.26922  1.0000
  C   C542      1.0  0.68320  0.03088  0.22596  1.0000
  H   H930      1.0  0.52239  0.19064  0.22046  1.0000
  H   H931      1.0  0.66943  0.16859  0.25218  1.0000
  H   H932      1.0  0.80103  0.32152  0.27992  1.0000
  C   C543      1.0  0.62336  0.15262  0.99150  1.0000
  H   H933      1.0  0.86841  0.05761  0.29671  1.0000
  H   H934      1.0  0.61235  0.15884  0.01105  1.0000
  C   C544      1.0  0.69191  0.46338  0.27381  1.0000
  N   N39       1.0  0.91930  0.12052  0.25030  1.0000
  H   H935      1.0  0.74319  0.02887  0.21718  1.0000
  H   H936      1.0  0.86091  0.35805  0.04786  1.0000
  H   H937      1.0  0.73779  0.24639  0.01486  1.0000
  H   H938      1.0  0.88762  0.13123  0.04739  1.0000
  Fe  Fe75      1.0  0.83810  0.23022  0.30423  1.0000
  H   H939      1.0  0.95901  0.28803  0.05786  1.0000
  H   H940      1.0  0.64890  0.05457  0.30926  1.0000
  N   N40       1.0  0.76122  0.05530  0.03099  1.0000
  H   H941      1.0  0.88418  0.03242  0.28779  1.0000
  H   H942      1.0  0.97053  0.27014  0.09167  1.0000
  C   C545      1.0  0.90478  0.44288  0.24548  1.0000
  H   H943      1.0  0.69049  0.45293  0.29943  1.0000
  H   H944      1.0  0.73649  0.25835  0.05307  1.0000
  H   H945      1.0  0.52620  0.13965  0.02909  1.0000
  H   H946      1.0  0.92266  0.13240  0.29881  1.0000
  Fe  Fe76      1.0  0.80030  0.47734  0.16481  1.0000
  C   C546      1.0  0.75249  0.25570  0.03560  1.0000
  H   H947      1.0  0.98423  0.14964  0.14860  1.0000
  H   H948      1.0  0.88866  0.36618  0.99657  1.0000
  H   H949      1.0  0.97825  0.06623  0.08205  1.0000
  H   H950      1.0  0.88849  0.45551  0.20200  1.0000
  H   H951      1.0  0.76069  0.00993  0.02175  1.0000
  C   C547      1.0  0.76315  0.45909  0.30324  1.0000
  H   H952      1.0  0.87507  0.42212  0.15284  1.0000
  C   C548      1.0  0.98346  0.16234  0.25783  1.0000
  H   H953      1.0  0.72259  0.06418  0.01879  1.0000
  C   C549      1.0  0.59679  0.06933  0.99052  1.0000
  C   C550      1.0  0.79479  0.00229  0.29190  1.0000
  H   H954      1.0  0.50937  0.08524  0.04988  1.0000
  H   H955      1.0  0.66544  0.14843  0.98136  1.0000
  H   H956      1.0  0.70590  0.99031  0.01307  1.0000
  H   H957      1.0  0.51335  0.03509  0.05900  1.0000
  C   C551      1.0  0.50096  0.06829  0.03110  1.0000
  H   H958      1.0  0.77688  0.09403  0.98646  1.0000
  H   H959      1.0  0.98116  0.19881  0.06960  1.0000
  S   S154      1.0  0.91256  0.27192  0.98555  1.0000
  H   H960      1.0  0.60241  0.13001  0.98173  1.0000
  H   H961      1.0  0.71761  0.02612  0.98019  1.0000
  C   C552      1.0  0.79625  0.48744  0.30697  1.0000
  Fe  Fe77      1.0  0.52235  0.04486  0.34940  1.0000
  H   H962      1.0  0.52847  0.08520  0.45763  1.0000
  S   S155      1.0  0.57413  0.07810  0.36860  1.0000
  H   H963      1.0  0.69034  0.01223  0.43442  1.0000
  C   C553      1.0  0.96772  0.10069  0.45076  1.0000
  S   S156      1.0  0.91265  0.04553  0.38333  1.0000
  Fe  Fe78      1.0  0.94642  0.46837  0.36227  1.0000
  S   S157      1.0  0.91292  0.40923  0.38436  1.0000
  H   H964      1.0  0.83569  0.48056  0.38772  1.0000
  N   N41       1.0  0.81658  0.40617  0.39251  1.0000
  C   C554      1.0  0.61562  0.38585  0.54757  1.0000
  H   H965      1.0  0.75063  0.10387  0.38091  1.0000
  C   C555      1.0  0.54726  0.15021  0.45565  1.0000
  C   C556      1.0  0.59011  0.03781  0.43601  1.0000
  H   H966      1.0  0.73618  0.12441  0.44337  1.0000
  H   H967      1.0  0.53988  0.19303  0.36952  1.0000
  H   H968      1.0  0.75246  0.02991  0.42360  1.0000
  H   H969      1.0  0.67271  0.36998  0.64260  1.0000
  C   C557      1.0  0.61604  0.06558  0.33350  1.0000
  H   H970      1.0  0.50588  0.13664  0.40420  1.0000
  S   S158      1.0  0.81257  0.18645  0.34838  1.0000
  H   H971      1.0  0.58342  0.13976  0.39020  1.0000
  Fe  Fe79      1.0  0.57659  0.08528  0.61070  1.0000
  S   S159      1.0  0.54494  0.03436  0.59124  1.0000
  Fe  Fe80      1.0  0.58708  0.13049  0.54628  1.0000
  S   S160      1.0  0.55594  0.08216  0.52269  1.0000
  S   S161      1.0  0.60862  0.18318  0.51222  1.0000
  Fe  Fe81      1.0  0.51821  0.05745  0.56806  1.0000
  C   C558      1.0  0.72706  0.02589  0.31775  1.0000
  Fe  Fe82      1.0  0.58502  0.06253  0.54750  1.0000
  S   S162      1.0  0.59994  0.03269  0.51923  1.0000
  S   S163      1.0  0.54748  0.10686  0.59048  1.0000
  S   S164      1.0  0.61861  0.11246  0.56791  1.0000
  H   H972      1.0  0.56881  0.17900  0.45222  1.0000
  S   S165      1.0  0.76550  0.48475  0.45828  1.0000
  C   C559      1.0  0.69303  0.46082  0.60407  1.0000
  Fe  Fe83      1.0  0.71210  0.39123  0.51252  1.0000
  H   H973      1.0  0.64403  0.13142  0.37736  1.0000
  S   S166      1.0  0.68197  0.33844  0.54785  1.0000
  C   C560      1.0  0.73730  0.44016  0.33012  1.0000
  H   H974      1.0  0.66210  0.43323  0.55520  1.0000
  H   H975      1.0  0.84243  0.48107  0.54809  1.0000
  H   H976      1.0  0.85384  0.28505  0.36741  1.0000
  S   S167      1.0  0.68688  0.41469  0.48669  1.0000
  S   S168      1.0  0.74922  0.40484  0.46936  1.0000
  H   H977      1.0  0.60160  0.14279  0.46026  1.0000
  H   H978      1.0  0.55388  0.13815  0.47590  1.0000
  C   C561      1.0  0.81063  0.36833  0.34896  1.0000
  C   C562      1.0  0.92829  0.03136  0.53819  1.0000
  C   C563      1.0  0.90569  0.03959  0.52684  1.0000
  C   C564      1.0  0.87218  0.01272  0.52136  1.0000
  H   H979      1.0  0.96704  0.45786  0.44368  1.0000
  C   C565      1.0  0.94430  0.11339  0.45571  1.0000
  H   H980      1.0  0.91405  0.06698  0.52255  1.0000
  H   H981      1.0  0.85522  0.01960  0.51260  1.0000
  C   C566      1.0  0.63087  0.02248  0.52317  1.0000
  C   C567      1.0  0.66284  0.38262  0.59316  1.0000
  C   C568      1.0  0.85534  0.47527  0.38330  1.0000
  N   N42       1.0  0.64214  0.39684  0.60119  1.0000
  C   C569      1.0  0.67921  0.02740  0.54676  1.0000
  C   C570      1.0  0.65509  0.03601  0.54488  1.0000
  H   H982      1.0  0.91115  0.41338  0.52972  1.0000
  C   C571      1.0  0.83230  0.40312  0.36245  1.0000
  H   H983      1.0  0.77736  0.08855  0.49682  1.0000
  H   H984      1.0  0.65530  0.05314  0.56021  1.0000
  C   C572      1.0  0.62963  0.22615  0.52272  1.0000
  C   C573      1.0  0.63171  0.23116  0.55487  1.0000
  C   C574      1.0  0.64792  0.26569  0.56209  1.0000
  C   C575      1.0  0.66249  0.29561  0.53733  1.0000
  C   C576      1.0  0.66059  0.29063  0.50516  1.0000
  C   C577      1.0  0.64412  0.25608  0.49796  1.0000
  H   H985      1.0  0.62068  0.20843  0.57416  1.0000
  H   H986      1.0  0.64924  0.26920  0.58704  1.0000
  H   H987      1.0  0.67156  0.31334  0.48586  1.0000
  H   H988      1.0  0.64263  0.25252  0.47302  1.0000
  C   C578      1.0  0.89830  0.37577  0.35988  1.0000
  Fe  Fe84      1.0  0.96693  0.99243  0.32915  1.0000
  H   H989      1.0  0.68681  0.47749  0.58906  1.0000
  C   C579      1.0  0.97879  0.43623  0.55346  1.0000
  C   C580      1.0  0.63126  0.00028  0.50342  1.0000
  C   C581      1.0  0.58228  0.14736  0.41407  1.0000
  H   H990      1.0  0.61857  0.40093  0.52348  1.0000
  H   H991      1.0  0.85755  0.40784  0.36561  1.0000
  H   H992      1.0  0.92647  0.99299  0.43366  1.0000
  H   H993      1.0  0.83817  0.08558  0.35928  1.0000
  C   C582      1.0  0.90532  0.07838  0.36950  1.0000
  H   H994      1.0  0.66611  0.41686  0.64380  1.0000
  H   H995      1.0  0.75662  0.05323  0.38476  1.0000
  H   H996      1.0  0.52917  0.47677  0.44094  1.0000
  C   C583      1.0  0.92414  0.14006  0.36266  1.0000
  C   C584      1.0  0.93171  0.11458  0.36649  1.0000
  N   N43       1.0  0.75589  0.07833  0.42474  1.0000
  H   H997      1.0  0.60316  0.47064  0.50091  1.0000
  H   H998      1.0  0.94443  0.16775  0.36236  1.0000
  N   N44       1.0  0.97957  0.45636  0.49293  1.0000
  C   C585      1.0  0.61424  0.08688  0.35305  1.0000
  S   S169      1.0  0.50625  0.07383  0.31668  1.0000
  C   C586      1.0  0.87166  0.06828  0.36626  1.0000
  H   H999      1.0  0.49413  0.41917  0.47502  1.0000
  C   C587      1.0  0.67711  0.12140  0.35200  1.0000
  C   C588      1.0  0.64500  0.11479  0.36221  1.0000
  S   S170      1.0  0.76687  0.99177  0.38723  1.0000
  H   H1000     1.0  0.83909  0.36043  0.40891  1.0000
  H   H1001     1.0  0.70042  0.14295  0.35929  1.0000
  H   H1002     1.0  0.61270  0.98941  0.48664  1.0000
  Fe  Fe85      1.0  0.95343  0.04192  0.35864  1.0000
  C   C589      1.0  0.67947  0.00507  0.52714  1.0000
  H   H1003     1.0  0.78342  0.48463  0.38805  1.0000
  H   H1004     1.0  0.90379  0.99769  0.46581  1.0000
  H   H1005     1.0  0.55389  0.20075  0.40830  1.0000
  C   C590      1.0  0.63691  0.41237  0.57003  1.0000
  C   C591      1.0  0.65527  0.99155  0.50542  1.0000
  H   H1006     1.0  0.96089  0.47894  0.52239  1.0000
  H   H1007     1.0  0.95128  0.40206  0.51923  1.0000
  C   C592      1.0  0.65385  0.48540  0.50954  1.0000
  H   H1008     1.0  0.71467  0.05644  0.46407  1.0000
  H   H1009     1.0  0.79428  0.34433  0.36775  1.0000
  H   H1010     1.0  0.55659  0.03353  0.47452  1.0000
  H   H1011     1.0  0.70888  0.41045  0.61819  1.0000
  H   H1012     1.0  0.72705  0.01453  0.34264  1.0000
  H   H1013     1.0  0.81012  0.06522  0.41891  1.0000
  C   C593      1.0  0.50876  0.48156  0.44342  1.0000
  H   H1014     1.0  0.59294  0.34576  0.60441  1.0000
  C   C594      1.0  0.86771  0.31259  0.35575  1.0000
  H   H1015     1.0  0.64192  0.43259  0.62951  1.0000
  H   H1016     1.0  0.53169  0.08370  0.41573  1.0000
  H   H1017     1.0  0.58484  0.10459  0.44051  1.0000
  Fe  Fe86      1.0  0.72707  0.43212  0.44457  1.0000
  H   H1018     1.0  0.84130  0.10692  0.42965  1.0000
  H   H1019     1.0  0.71301  0.07913  0.40989  1.0000
  C   C595      1.0  0.97252  0.44237  0.46154  1.0000
  H   H1020     1.0  0.80585  0.12755  0.42681  1.0000
  C   C596      1.0  0.74965  0.13074  0.41875  1.0000
  C   C597      1.0  0.81321  0.08577  0.43231  1.0000
  H   H1021     1.0  0.83914  0.42489  0.34227  1.0000
  H   H1022     1.0  0.77711  0.12240  0.47052  1.0000
  C   C598      1.0  0.84441  0.43958  0.40387  1.0000
  H   H1023     1.0  0.62443  0.42601  0.57495  1.0000
  C   C599      1.0  0.51423  0.14561  0.46955  1.0000
  C   C600      1.0  0.74443  0.44940  0.36081  1.0000
  C   C601      1.0  0.67879  0.09960  0.33303  1.0000
  C   C602      1.0  0.83060  0.36804  0.42917  1.0000
  H   H1024     1.0  0.71180  0.41803  0.32723  1.0000
  H   H1025     1.0  0.62538  0.14516  0.42530  1.0000
  S   S171      1.0  0.71102  0.99574  0.53022  1.0000
  H   H1026     1.0  0.85323  0.39084  0.43744  1.0000
  C   C603      1.0  0.68631  0.38304  0.61782  1.0000
  C   C604      1.0  0.74159  0.09687  0.40735  1.0000
  C   C605      1.0  0.53327  0.14686  0.39855  1.0000
  H   H1027     1.0  0.86782  0.99035  0.43181  1.0000
  H   H1028     1.0  0.73969  0.36060  0.41050  1.0000
  H   H1029     1.0  0.73962  0.14274  0.40243  1.0000
  H   H1030     1.0  0.90026  0.44281  0.51380  1.0000
  S   S172      1.0  0.93806  0.01602  0.31503  1.0000
  H   H1031     1.0  0.73458  0.38159  0.37501  1.0000
  H   H1032     1.0  0.95743  0.08491  0.43102  1.0000
  H   H1033     1.0  0.60823  0.06691  0.43522  1.0000
  H   H1034     1.0  0.80427  0.07416  0.45834  1.0000
  H   H1035     1.0  0.75212  0.35700  0.37083  1.0000
  S   S173      1.0  0.71188  0.42497  0.39423  1.0000
  C   C606      1.0  0.55378  0.02543  0.45046  1.0000
  H   H1036     1.0  0.80334  0.11034  0.39152  1.0000
  S   S174      1.0  0.88141  0.16232  0.36026  1.0000
  H   H1037     1.0  0.60008  0.17689  0.41002  1.0000
  H   H1038     1.0  0.53392  0.13557  0.37684  1.0000
  H   H1039     1.0  0.98837  0.13684  0.50645  1.0000
  H   H1040     1.0  0.95913  0.44020  0.56210  1.0000
  H   H1041     1.0  0.91744  0.08975  0.46378  1.0000
  C   C607      1.0  0.74424  0.04567  0.41025  1.0000
  H   H1042     1.0  0.78150  0.35008  0.41494  1.0000
  H   H1043     1.0  0.95599  0.48411  0.48112  1.0000
  C   C608      1.0  0.97607  0.42834  0.51869  1.0000
  S   S175      1.0  0.97858  0.01412  0.37599  1.0000
  H   H1044     1.0  0.79453  0.37010  0.33145  1.0000
  H   H1045     1.0  0.68008  0.39756  0.56984  1.0000
  S   S176      1.0  0.71811  0.10501  0.32096  1.0000
  H   H1046     1.0  0.95762  0.12272  0.36909  1.0000
  C   C609      1.0  0.89040  0.12995  0.35999  1.0000
  C   C610      1.0  0.79472  0.10213  0.41810  1.0000
  C   C611      1.0  0.52412  0.09451  0.43380  1.0000
  H   H1047     1.0  0.81845  0.34518  0.44959  1.0000
  H   H1048     1.0  0.69781  0.03808  0.56365  1.0000
  H   H1049     1.0  0.79430  0.37990  0.44205  1.0000
  H   H1050     1.0  0.64552  0.35471  0.58910  1.0000
  H   H1051     1.0  0.94364  0.12749  0.43268  1.0000
  C   C612      1.0  0.80396  0.37549  0.41992  1.0000
  C   C613      1.0  0.74232  0.06659  0.46034  1.0000
  H   H1052     1.0  0.52160  0.16810  0.48221  1.0000
  Fe  Fe87      1.0  0.78550  0.45656  0.48649  1.0000
  H   H1053     1.0  0.79925  0.03597  0.32523  1.0000
  H   H1054     1.0  0.77758  0.15129  0.41767  1.0000
  H   H1055     1.0  0.95163  0.13052  0.47417  1.0000
  H   H1056     1.0  0.98547  0.05716  0.44115  1.0000
  S   S177      1.0  0.74982  0.44137  0.53165  1.0000
  H   H1057     1.0  0.87627  0.33273  0.40064  1.0000
  H   H1058     1.0  0.85082  0.04040  0.36900  1.0000
  H   H1059     1.0  0.79437  0.42692  0.36117  1.0000
  H   H1060     1.0  0.74313  0.04369  0.47039  1.0000
  C   C614      1.0  0.91618  0.43303  0.50830  1.0000
  S   S178      1.0  0.50481  0.00038  0.32162  1.0000
  N   N45       1.0  0.54597  0.13468  0.42589  1.0000
  H   H1061     1.0  0.49795  0.12050  0.48744  1.0000
  C   C615      1.0  0.78767  0.40968  0.38515  1.0000
  H   H1062     1.0  0.86835  0.44067  0.40513  1.0000
  Fe  Fe88      1.0  0.72695  0.46579  0.50227  1.0000
  C   C616      1.0  0.76131  0.09430  0.48261  1.0000
  C   C617      1.0  0.75180  0.37498  0.38538  1.0000
  H   H1063     1.0  0.65278  0.46609  0.49671  1.0000
  H   H1064     1.0  0.57970  0.19959  0.37623  1.0000
  H   H1065     1.0  0.74191  0.09128  0.50087  1.0000
  H   H1066     1.0  0.59092  0.37744  0.62229  1.0000
  H   H1067     1.0  0.82824  0.36360  0.33635  1.0000
  H   H1068     1.0  0.78377  0.42327  0.40302  1.0000
  H   H1069     1.0  0.91737  0.41187  0.31448  1.0000
  C   C618      1.0  0.59892  0.13387  0.43668  1.0000
  C   C619      1.0  0.91678  0.99569  0.54431  1.0000
  S   S179      1.0  0.97052  0.06684  0.54380  1.0000
  C   C620      1.0  0.50423  0.47250  0.50213  1.0000
  C   C621      1.0  0.55318  0.18747  0.38792  1.0000
  H   H1070     1.0  0.54725  0.04183  0.43538  1.0000
  H   H1071     1.0  0.49522  0.47402  0.42170  1.0000
  H   H1072     1.0  0.69538  0.02925  0.39164  1.0000
  H   H1073     1.0  0.60029  0.02521  0.45097  1.0000
  C   C622      1.0  0.88037  0.33974  0.37456  1.0000
  C   C623      1.0  0.86436  0.09396  0.36078  1.0000
  H   H1074     1.0  0.58773  0.36906  0.55677  1.0000
  H   H1075     1.0  0.50416  0.46282  0.55380  1.0000
  H   H1076     1.0  0.96183  0.08090  0.47260  1.0000
  C   C624      1.0  0.90337  0.38431  0.32612  1.0000
  H   H1077     1.0  0.62441  0.36875  0.54382  1.0000
  H   H1078     1.0  0.83630  0.43987  0.42893  1.0000
  H   H1079     1.0  0.70913  0.45645  0.58851  1.0000
  H   H1080     1.0  0.53183  0.99930  0.40062  1.0000
  H   H1081     1.0  0.70864  0.47636  0.62228  1.0000
  H   H1082     1.0  0.90712  0.41981  0.48704  1.0000
  H   H1083     1.0  0.69980  0.99401  0.40432  1.0000
  H   H1084     1.0  0.52766  0.47252  0.49942  1.0000
  C   C625      1.0  0.70507  0.01913  0.41040  1.0000
  C   C626      1.0  0.95435  0.46496  0.50131  1.0000
  H   H1085     1.0  0.69673  0.36835  0.61027  1.0000
  H   H1086     1.0  0.86045  0.47671  0.35708  1.0000
  C   C627      1.0  0.77756  0.47741  0.36453  1.0000
  Fe  Fe89      1.0  0.84744  0.17165  0.32989  1.0000
  H   H1087     1.0  0.97443  0.41306  0.57012  1.0000
  C   C628      1.0  0.60699  0.36729  0.61882  1.0000
  C   C629      1.0  0.79027  0.00923  0.32258  1.0000
  H   H1088     1.0  0.93369  0.98883  0.55319  1.0000
  H   H1089     1.0  0.94862  0.41480  0.46528  1.0000
  H   H1090     1.0  0.50587  0.01960  0.49593  1.0000
  H   H1091     1.0  0.59269  0.04393  0.32632  1.0000
  C   C630      1.0  0.65965  0.42574  0.62124  1.0000
  C   C631      1.0  0.87250  0.32115  0.32195  1.0000
  H   H1092     1.0  0.49881  0.14675  0.45110  1.0000
  H   H1093     1.0  0.59104  0.03336  0.41086  1.0000
  C   C632      1.0  0.64803  0.07166  0.32390  1.0000
  H   H1094     1.0  0.71167  0.03675  0.32015  1.0000
  S   S180      1.0  0.84309  0.47947  0.47837  1.0000
  S   S181      1.0  0.77619  0.99033  0.47661  1.0000
  Fe  Fe90      1.0  0.77543  0.15131  0.31571  1.0000
  H   H1095     1.0  0.99188  0.42825  0.42323  1.0000
  S   S182      1.0  0.86639  0.23156  0.92919  1.0000
  S   S183      1.0  0.88914  0.33009  0.92773  1.0000
  S   S184      1.0  0.58821  0.07901  0.66238  1.0000
  Fe  Fe91      1.0  0.59013  0.11621  0.89403  1.0000
  S   S185      1.0  0.56230  0.06756  0.87037  1.0000
  S   S186      1.0  0.64775  0.15415  0.89857  1.0000
  Fe  Fe92      1.0  0.52506  0.11755  0.90373  1.0000
  H   H1096     1.0  0.71536  0.20909  0.91032  1.0000
  H   H1097     1.0  0.63627  0.17607  0.97157  1.0000
  Fe  Fe93      1.0  0.51825  0.04660  0.90970  1.0000
  H   H1098     1.0  0.65295  0.09509  0.92379  1.0000
  Fe  Fe94      1.0  0.53893  0.09285  0.84358  1.0000
  S   S187      1.0  0.53151  0.10026  0.79047  1.0000
  S   S188      1.0  0.54753  0.09403  0.93489  1.0000
  S   S189      1.0  0.56971  0.14281  0.86435  1.0000
  C   C633      1.0  0.57316  0.08615  0.69760  1.0000
  C   C634      1.0  0.55823  0.10490  0.69609  1.0000
  C   C635      1.0  0.54589  0.10919  0.72482  1.0000
  C   C636      1.0  0.54845  0.09492  0.75526  1.0000
  C   C637      1.0  0.56348  0.07627  0.75676  1.0000
  C   C638      1.0  0.57598  0.07215  0.72804  1.0000
  H   H1099     1.0  0.55618  0.11605  0.67282  1.0000
  H   H1100     1.0  0.53422  0.12360  0.72344  1.0000
  H   H1101     1.0  0.56489  0.06450  0.77999  1.0000
  C   C639      1.0  0.60603  0.34822  0.65202  1.0000
  C   C640      1.0  0.92486  0.37432  0.92868  1.0000
  C   C641      1.0  0.95549  0.38180  0.93935  1.0000
  C   C642      1.0  0.95106  0.43847  0.91609  1.0000
  C   C643      1.0  0.67418  0.19854  0.72627  1.0000
  H   H1102     1.0  0.53790  0.46388  0.79365  1.0000
  C   C644      1.0  0.93578  0.12610  0.95952  1.0000
  C   C645      1.0  0.98394  0.41740  0.93767  1.0000
  H   H1103     1.0  0.61479  0.07671  0.81953  1.0000
  H   H1104     1.0  0.73090  0.19032  0.82240  1.0000
  C   C646      1.0  0.94819  0.18514  0.94362  1.0000
  Fe  Fe95      1.0  0.82105  0.19717  0.96848  1.0000
  H   H1105     1.0  0.70080  0.19941  0.83478  1.0000
  N   N46       1.0  0.50314  0.47961  0.80001  1.0000
  H   H1106     1.0  0.61588  0.33183  0.64943  1.0000
  H   H1107     1.0  0.66011  0.10699  0.80890  1.0000
  Fe  Fe96      1.0  0.87895  0.27775  0.95332  1.0000
  C   C647      1.0  0.68058  0.15204  0.91555  1.0000
  C   C648      1.0  0.67657  0.11990  0.92618  1.0000
  C   C649      1.0  0.73446  0.15188  0.94307  1.0000
  C   C650      1.0  0.73848  0.18398  0.93226  1.0000
  C   C651      1.0  0.71181  0.18401  0.91850  1.0000
  H   H1108     1.0  0.76216  0.20885  0.93453  1.0000
  S   S190      1.0  0.94107  0.21862  0.94753  1.0000
  H   H1109     1.0  0.57877  0.32937  0.66329  1.0000
  H   H1110     1.0  0.50408  0.46264  0.73604  1.0000
  H   H1111     1.0  0.53003  0.48545  0.89646  1.0000
  H   H1112     1.0  0.51081  0.03690  0.66074  1.0000
  H   H1113     1.0  0.95753  0.36019  0.94816  1.0000
  C   C652      1.0  0.70334  0.11988  0.93981  1.0000
  H   H1114     1.0  0.63154  0.09504  0.77809  1.0000
  C   C653      1.0  0.70344  0.18061  0.82342  1.0000
  H   H1115     1.0  0.96729  0.44022  0.82422  1.0000
  H   H1116     1.0  0.59675  0.16555  0.79362  1.0000
  H   H1117     1.0  0.51387  0.21565  0.93292  1.0000
  H   H1118     1.0  0.53181  0.00155  0.66160  1.0000
  S   S191      1.0  0.49289  0.06864  0.88147  1.0000
  H   H1119     1.0  0.83453  0.11495  0.97447  1.0000
  H   H1120     1.0  0.60469  0.12209  0.80330  1.0000
  H   H1121     1.0  0.58739  0.05748  0.72939  1.0000
  H   H1122     1.0  0.69706  0.20030  0.71596  1.0000
  H   H1123     1.0  0.52227  0.42770  0.89616  1.0000
  C   C654      1.0  0.92281  0.40287  0.91720  1.0000
  S   S192      1.0  0.97619  0.10445  0.93986  1.0000
  C   C655      1.0  0.63142  0.13159  0.80728  1.0000
  H   H1124     1.0  0.68324  0.22303  0.73605  1.0000
  H   H1125     1.0  0.90478  0.14282  0.97746  1.0000
  C   C656      1.0  0.50540  0.46072  0.90571  1.0000
  H   H1126     1.0  0.94908  0.46008  0.90706  1.0000
  H   H1127     1.0  0.65472  0.14448  0.74357  1.0000
  H   H1128     1.0  0.91973  0.09970  0.97402  1.0000
  H   H1129     1.0  0.62336  0.15259  0.74851  1.0000
  N   N47       1.0  0.65707  0.16725  0.78614  1.0000
  C   C657      1.0  0.62076  0.19265  0.78713  1.0000
  C   C658      1.0  0.92722  0.15056  0.96157  1.0000
  S   S193      1.0  0.51327  0.15590  0.91998  1.0000
  H   H1130     1.0  0.69992  0.09487  0.94790  1.0000
  H   H1131     1.0  0.63232  0.13369  0.83333  1.0000
  H   H1132     1.0  0.62404  0.20228  0.76084  1.0000
  C   C659      1.0  0.63519  0.10133  0.80276  1.0000
  H   H1133     1.0  0.65946  0.19858  0.70635  1.0000
  H   H1134     1.0  0.50095  0.03641  0.71511  1.0000
  H   H1135     1.0  0.61970  0.36657  0.66910  1.0000
  C   C660      1.0  0.50746  0.98963  0.67784  1.0000
  H   H1136     1.0  0.67539  0.22183  0.78878  1.0000
  S   S194      1.0  0.76680  0.15015  0.96171  1.0000
  H   H1137     1.0  0.89922  0.39740  0.90897  1.0000
  H   H1138     1.0  0.51225  0.11385  0.97864  1.0000
  H   H1139     1.0  0.61741  0.21024  0.79995  1.0000
  C   C661      1.0  0.53379  0.47978  0.80842  1.0000
  C   C662      1.0  0.65078  0.16405  0.75150  1.0000
  C   C663      1.0  0.65234  0.19413  0.79724  1.0000
  C   C664      1.0  0.98209  0.44598  0.92572  1.0000
  H   H1140     1.0  0.68823  0.15414  0.83935  1.0000
  H   H1141     1.0  0.64990  0.19098  0.82414  1.0000
  H   H1142     1.0  0.71217  0.20600  0.77432  1.0000
  Fe  Fe97      1.0  0.89714  0.22316  0.96429  1.0000
  C   C665      1.0  0.96506  0.13552  0.93917  1.0000
  C   C666      1.0  0.69347  0.17894  0.78885  1.0000
  H   H1143     1.0  0.69895  0.16157  0.77819  1.0000
  H   H1144     1.0  0.52917  0.46658  0.83395  1.0000
  H   H1145     1.0  0.98632  0.46158  0.85714  1.0000
  C   C667      1.0  0.50096  0.42795  0.90562  1.0000
  H   H1146     1.0  0.60501  0.08559  0.96586  1.0000
  C   C668      1.0  0.97745  0.19453  0.92331  1.0000
  H   H1147     1.0  0.95793  0.48330  0.81287  1.0000
  H   H1148     1.0  0.96947  0.39893  0.86080  1.0000
  C   C669      1.0  0.99140  0.45275  0.83565  1.0000
  C   C670      1.0  0.98555  0.16983  0.92070  1.0000
  H   H1149     1.0  0.51453  0.99363  0.70251  1.0000
  H   H1150     1.0  0.49488  0.48522  0.84920  1.0000
  H   H1151     1.0  0.97674  0.48727  0.77290  1.0000
  H   H1152     1.0  0.51459  0.69426  0.02259  1.0000
  Fe  Fe98      1.0  0.67782  0.73785  0.08422  1.0000
  S   S195      1.0  0.66316  0.68979  0.06222  1.0000
  S   S196      1.0  0.70903  0.79357  0.05397  1.0000
  Fe  Fe99      1.0  0.64670  0.69308  0.15002  1.0000
  S   S197      1.0  0.63066  0.64190  0.13433  1.0000
  S   S198      1.0  0.63455  0.69141  0.20194  1.0000
  Fe  Fe100     1.0  0.68273  0.67423  0.10450  1.0000
  S   S199      1.0  0.72237  0.66133  0.09608  1.0000
  Fe  Fe101     1.0  0.61195  0.66100  0.09408  1.0000
  S   S200      1.0  0.55965  0.62083  0.07879  1.0000
  S   S201      1.0  0.70018  0.72422  0.12409  1.0000
  S   S202      1.0  0.62514  0.71043  0.11180  1.0000
  S   S203      1.0  0.84344  0.74489  0.20114  1.0000
  Fe  Fe102     1.0  0.86177  0.71537  0.01937  1.0000
  C   C671      1.0  0.91123  0.96823  0.23534  1.0000
  S   S204      1.0  0.85690  0.69200  0.07197  1.0000
  C   C672      1.0  0.56962  0.65793  0.99323  1.0000
  C   C673      1.0  0.72552  0.50063  0.26215  1.0000
  N   N48       1.0  0.73044  0.52960  0.27905  1.0000
  C   C674      1.0  0.86626  0.93664  0.18540  1.0000
  H   H1153     1.0  0.54363  0.58266  0.27335  1.0000
  C   C675      1.0  0.97056  0.60085  0.26672  1.0000
  H   H1154     1.0  0.73956  0.74455  0.04891  1.0000
  H   H1155     1.0  0.82381  0.86000  0.00214  1.0000
  S   S205      1.0  0.81527  0.52648  0.12910  1.0000
  S   S206      1.0  0.78964  0.94927  0.09068  1.0000
  Fe  Fe103     1.0  0.82062  0.51686  0.22180  1.0000
  S   S207      1.0  0.83687  0.56857  0.19111  1.0000
  C   C676      1.0  0.78779  0.79585  0.04776  1.0000
  Fe  Fe104     1.0  0.78884  0.53668  0.16775  1.0000
  S   S208      1.0  0.74600  0.54620  0.16580  1.0000
  Fe  Fe105     1.0  0.86268  0.55583  0.15493  1.0000
  S   S209      1.0  0.91861  0.60306  0.13724  1.0000
  H   H1156     1.0  0.85564  0.60276  0.06788  1.0000
  H   H1157     1.0  0.80784  0.61202  0.03365  1.0000
  H   H1158     1.0  0.69704  0.51781  0.10040  1.0000
  C   C677      1.0  0.76318  0.56409  0.26297  1.0000
  H   H1159     1.0  0.89485  0.53148  0.24019  1.0000
  S   S210      1.0  0.84943  0.50651  0.18725  1.0000
  H   H1160     1.0  0.77228  0.78969  0.11289  1.0000
  H   H1161     1.0  0.50135  0.66626  0.23283  1.0000
  H   H1162     1.0  0.67147  0.54174  0.24305  1.0000
  H   H1163     1.0  0.82655  0.90445  0.22650  1.0000
  C   C678      1.0  0.82293  0.80367  0.09242  1.0000
  H   H1164     1.0  0.78841  0.80318  0.02148  1.0000
  H   H1165     1.0  0.67300  0.59816  0.01492  1.0000
  H   H1166     1.0  0.81818  0.92704  0.31059  1.0000
  C   C679      1.0  0.97320  0.63679  0.03462  1.0000
  H   H1167     1.0  0.79989  0.55109  0.25198  1.0000
  H   H1168     1.0  0.80772  0.83525  0.11317  1.0000
  C   C680      1.0  0.93871  0.69483  0.02042  1.0000
  H   H1169     1.0  0.85726  0.57302  0.30745  1.0000
  C   C681      1.0  0.84777  0.72981  0.16568  1.0000
  C   C682      1.0  0.85188  0.74940  0.13534  1.0000
  C   C683      1.0  0.85464  0.73820  0.10646  1.0000
  C   C684      1.0  0.85375  0.70742  0.10763  1.0000
  C   C685      1.0  0.85016  0.68811  0.13798  1.0000
  C   C686      1.0  0.84703  0.69911  0.16687  1.0000
  H   H1170     1.0  0.85307  0.77344  0.13432  1.0000
  H   H1171     1.0  0.85767  0.75335  0.08332  1.0000
  H   H1172     1.0  0.84966  0.66438  0.13920  1.0000
  H   H1173     1.0  0.84425  0.68393  0.18999  1.0000
  H   H1174     1.0  0.89300  0.81384  0.02617  1.0000
  H   H1175     1.0  0.88047  0.64349  0.08214  1.0000
  C   C687      1.0  0.95715  0.57750  0.12078  1.0000
  C   C688      1.0  0.95723  0.60614  0.12806  1.0000
  H   H1176     1.0  0.82586  0.89418  0.30735  1.0000
  C   C689      1.0  0.78348  0.60767  0.04339  1.0000
  C   C690      1.0  0.92172  0.87354  0.30212  1.0000
  H   H1177     1.0  0.93294  0.55200  0.12154  1.0000
  H   H1178     1.0  0.74701  0.49782  0.26494  1.0000
  Fe  Fe106     1.0  0.83282  0.71739  0.25368  1.0000
  C   C691      1.0  0.72882  0.62989  0.11726  1.0000
  C   C692      1.0  0.70218  0.59836  0.13730  1.0000
  C   C693      1.0  0.70814  0.57347  0.15211  1.0000
  C   C694      1.0  0.74078  0.57962  0.14737  1.0000
  C   C695      1.0  0.76752  0.61144  0.12784  1.0000
  C   C696      1.0  0.76149  0.63624  0.11284  1.0000
  H   H1179     1.0  0.67681  0.59282  0.14088  1.0000
  H   H1180     1.0  0.68712  0.54894  0.16699  1.0000
  H   H1181     1.0  0.79278  0.61678  0.12378  1.0000
  H   H1182     1.0  0.78234  0.66044  0.09744  1.0000
  C   C697      1.0  0.73122  0.83535  0.06737  1.0000
  C   C698      1.0  0.72766  0.83944  0.09957  1.0000
  C   C699      1.0  0.74531  0.87401  0.10774  1.0000
  C   C700      1.0  0.76679  0.90450  0.08377  1.0000
  C   C701      1.0  0.77065  0.89988  0.05204  1.0000
  C   C702      1.0  0.75305  0.86587  0.04394  1.0000
  H   H1183     1.0  0.71087  0.81613  0.11799  1.0000
  H   H1184     1.0  0.74206  0.87705  0.13238  1.0000
  H   H1185     1.0  0.78714  0.92298  0.03331  1.0000
  H   H1186     1.0  0.75616  0.86329  0.01909  1.0000
  C   C703      1.0  0.52788  0.58747  0.22668  1.0000
  C   C704      1.0  0.53789  0.60823  0.19591  1.0000
  C   C705      1.0  0.57046  0.64063  0.18859  1.0000
  C   C706      1.0  0.59282  0.65254  0.21212  1.0000
  C   C707      1.0  0.58269  0.63187  0.24292  1.0000
  C   C708      1.0  0.55049  0.59911  0.24999  1.0000
  S   S211      1.0  0.80538  0.65925  0.27210  1.0000
  H   H1187     1.0  0.57815  0.65637  0.16469  1.0000
  H   H1188     1.0  0.60014  0.64054  0.26096  1.0000
  H   H1189     1.0  0.88685  0.82031  0.06597  1.0000
  H   H1190     1.0  0.84518  0.91767  0.17249  1.0000
  C   C709      1.0  0.95971  0.68251  0.07052  1.0000
  C   C710      1.0  0.53271  0.68643  0.02442  1.0000
  H   H1191     1.0  0.86559  0.86857  0.05951  1.0000
  C   C711      1.0  0.94883  0.57290  0.21929  1.0000
  H   H1192     1.0  0.84016  0.80690  0.01191  1.0000
  H   H1193     1.0  0.94401  0.65876  0.23089  1.0000
  S   S212      1.0  0.78986  0.95816  0.25032  1.0000
  H   H1194     1.0  0.84921  0.81980  0.09955  1.0000
  H   H1195     1.0  0.68644  0.50630  0.06156  1.0000
  Fe  Fe107     1.0  0.84299  0.67369  0.30822  1.0000
  H   H1196     1.0  0.71341  0.98395  0.06900  1.0000
  H   H1197     1.0  0.82452  0.86099  0.06146  1.0000
  H   H1198     1.0  0.80231  0.79953  0.14100  1.0000
  C   C712      1.0  0.69020  0.97158  0.24900  1.0000
  H   H1199     1.0  0.92728  0.68428  0.99847  1.0000
  H   H1200     1.0  0.54308  0.66102  0.11384  1.0000
  H   H1201     1.0  0.74171  0.63210  0.04364  1.0000
  H   H1202     1.0  0.91174  0.59684  0.21833  1.0000
  H   H1203     1.0  0.90340  0.61908  0.02808  1.0000
  H   H1204     1.0  0.72743  0.98536  0.29978  1.0000
  H   H1205     1.0  0.90206  0.62914  0.25257  1.0000
  H   H1206     1.0  0.79910  0.55962  0.29230  1.0000
  H   H1207     1.0  0.80586  0.90514  0.27652  1.0000
  H   H1208     1.0  0.88010  0.95358  0.29314  1.0000
  H   H1209     1.0  0.86049  0.89979  0.01120  1.0000
  H   H1210     1.0  0.78943  0.63420  0.04509  1.0000
  H   H1211     1.0  0.71400  0.55942  0.22523  1.0000
  N   N49       1.0  0.71852  0.66524  0.21493  1.0000
  C   C713      1.0  0.74908  0.66539  0.22364  1.0000
  C   C714      1.0  0.71773  0.69241  0.23046  1.0000
  C   C715      1.0  0.72109  0.67513  0.17906  1.0000
  C   C716      1.0  0.68661  0.62806  0.22625  1.0000
  C   C717      1.0  0.75909  0.64630  0.20308  1.0000
  C   C718      1.0  0.70664  0.68248  0.26707  1.0000
  C   C719      1.0  0.75385  0.71189  0.16350  1.0000
  C   C720      1.0  0.65201  0.62221  0.22077  1.0000
  H   H1212     1.0  0.77233  0.69293  0.22216  1.0000
  H   H1213     1.0  0.74444  0.65278  0.24931  1.0000
  H   H1214     1.0  0.70059  0.69884  0.21928  1.0000
  H   H1215     1.0  0.74362  0.71823  0.22621  1.0000
  H   H1216     1.0  0.71951  0.65477  0.16668  1.0000
  H   H1217     1.0  0.69851  0.67501  0.17290  1.0000
  H   H1218     1.0  0.68739  0.60885  0.21364  1.0000
  H   H1219     1.0  0.68520  0.61817  0.25223  1.0000
  H   H1220     1.0  0.73742  0.61862  0.20276  1.0000
  H   H1221     1.0  0.76969  0.66077  0.17784  1.0000
  H   H1222     1.0  0.77974  0.64523  0.21308  1.0000
  H   H1223     1.0  0.70944  0.70537  0.27605  1.0000
  H   H1224     1.0  0.67916  0.65980  0.27329  1.0000
  H   H1225     1.0  0.72314  0.67648  0.27976  1.0000
  H   H1226     1.0  0.75542  0.71471  0.13684  1.0000
  H   H1227     1.0  0.77793  0.71548  0.16963  1.0000
  H   H1228     1.0  0.75312  0.73379  0.17034  1.0000
  H   H1229     1.0  0.64533  0.61564  0.19648  1.0000
  H   H1230     1.0  0.65193  0.64544  0.22347  1.0000
  H   H1231     1.0  0.63129  0.60020  0.23954  1.0000
  C   C721      1.0  0.51925  0.63722  0.11001  1.0000
  H   H1232     1.0  0.49451  0.57997  0.01424  1.0000
  N   N50       1.0  0.87420  0.93738  0.24635  1.0000
  H   H1233     1.0  0.63584  0.75346  0.04435  1.0000
  H   H1234     1.0  0.94872  0.58126  0.28592  1.0000
  C   C722      1.0  0.87240  0.90419  0.25826  1.0000
  C   C723      1.0  0.85112  0.93153  0.22053  1.0000
  H   H1235     1.0  0.70191  0.93687  0.27758  1.0000
  H   H1236     1.0  0.94903  0.60959  0.03865  1.0000
  H   H1237     1.0  0.59690  0.63719  0.01679  1.0000
  N   N51       1.0  0.94366  0.66919  0.04072  1.0000
  H   H1238     1.0  0.94092  0.57530  0.19503  1.0000
  H   H1239     1.0  0.74654  0.97815  0.07725  1.0000
  C   C724      1.0  0.94218  0.69319  0.09326  1.0000
  C   C725      1.0  0.88631  0.89152  0.23403  1.0000
  H   H1240     1.0  0.92835  0.70326  0.08128  1.0000
  C   C726      1.0  0.78351  0.96793  0.28821  1.0000
  C   C727      1.0  0.60619  0.70917  0.01917  1.0000
  H   H1241     1.0  0.77603  0.59161  0.06795  1.0000
  H   H1242     1.0  0.59053  0.69153  0.04247  1.0000
  C   C728      1.0  0.82579  0.91595  0.29302  1.0000
  H   H1243     1.0  0.64469  0.56038  0.31180  1.0000
  H   H1244     1.0  0.76793  0.60595  0.99624  1.0000
  H   H1245     1.0  0.91371  0.91176  0.22423  1.0000
  H   H1246     1.0  0.89678  0.81914  0.29494  1.0000
  C   C729      1.0  0.70502  0.94925  0.25216  1.0000
  H   H1247     1.0  0.84351  0.95031  0.21988  1.0000
  H   H1248     1.0  0.55204  0.64254  0.01617  1.0000
  C   C730      1.0  0.96796  0.66556  0.02026  1.0000
  H   H1249     1.0  0.93752  0.63981  0.27352  1.0000
  H   H1250     1.0  0.70674  0.55711  0.28595  1.0000
  H   H1251     1.0  0.75417  0.56390  0.01798  1.0000
  H   H1252     1.0  0.72335  0.58022  0.08133  1.0000
  H   H1253     1.0  0.77609  0.74396  0.04008  1.0000
  H   H1254     1.0  0.66971  0.54653  0.01787  1.0000
  C   C731      1.0  0.98909  0.63920  0.12645  1.0000
  C   C732      1.0  0.75633  0.58865  0.02053  1.0000
  H   H1255     1.0  0.60172  0.75272  0.02764  1.0000
  H   H1256     1.0  0.51685  0.65694  0.02895  1.0000
  H   H1257     1.0  0.72694  0.50770  0.23555  1.0000
  H   H1258     1.0  0.81906  0.59560  0.25994  1.0000
  H   H1259     1.0  0.92279  0.96417  0.21461  1.0000
  H   H1260     1.0  0.69769  0.64029  0.02729  1.0000
  H   H1261     1.0  0.64060  0.76725  0.00188  1.0000
  H   H1262     1.0  0.89641  0.85319  0.03100  1.0000
  Fe  Fe108     1.0  0.98350  0.52194  0.30195  1.0000
  H   H1263     1.0  0.88487  0.86814  0.24687  1.0000
  H   H1264     1.0  0.68937  0.97721  0.22265  1.0000
  C   C733      1.0  0.55761  0.70283  0.99250  1.0000
  H   H1265     1.0  0.67719  0.51037  0.29193  1.0000
  C   C734      1.0  0.98853  0.58226  0.11121  1.0000
  C   C735      1.0  0.88198  0.82437  0.04079  1.0000
  H   H1266     1.0  0.68125  0.51221  0.23189  1.0000
  H   H1267     1.0  0.77334  0.80472  0.05953  1.0000
  H   H1268     1.0  0.69672  0.53282  0.00948  1.0000
  C   C736      1.0  0.92813  0.63468  0.24985  1.0000
  N   N52       1.0  0.72145  0.58082  0.03008  1.0000
  C   C737      1.0  0.70775  0.56218  0.06473  1.0000
  C   C738      1.0  0.69666  0.55684  0.00880  1.0000
  H   H1269     1.0  0.67877  0.60117  0.05706  1.0000
  C   C739      1.0  0.70563  0.52764  0.07398  1.0000
  C   C740      1.0  0.69140  0.61298  0.03173  1.0000
  H   H1270     1.0  0.90603  0.57913  0.25996  1.0000
  H   H1271     1.0  0.98816  0.56022  0.10473  1.0000
  H   H1272     1.0  0.68132  0.55486  0.07114  1.0000
  C   C741      1.0  0.89826  0.83631  0.31097  1.0000
  S   S213      1.0  0.75898  0.97334  0.16836  1.0000
  C   C742      1.0  0.84779  0.87069  0.01335  1.0000
  H   H1273     1.0  0.96056  0.66186  0.08571  1.0000
  C   C743      1.0  0.79987  0.80746  0.11575  1.0000
  S   S214      1.0  0.79727  0.72110  0.28718  1.0000
  C   C744      1.0  0.52012  0.61286  0.09433  1.0000
  H   H1274     1.0  0.92629  0.53090  0.26285  1.0000
  C   C745      1.0  0.84315  0.80411  0.03797  1.0000
  S   S215      1.0  0.87315  0.73257  0.28730  1.0000
  C   C746      1.0  0.62168  0.74790  0.02301  1.0000
  H   H1275     1.0  0.83219  0.77546  0.04582  1.0000
  H   H1276     1.0  0.62120  0.66876  0.98075  1.0000
  C   C747      1.0  0.70100  0.53322  0.27648  1.0000
  H   H1277     1.0  0.88640  0.90770  0.27968  1.0000
  H   H1278     1.0  0.54607  0.69627  0.04567  1.0000
  H   H1279     1.0  0.96216  0.71537  0.10450  1.0000
  C   C748      1.0  0.84068  0.85406  0.04949  1.0000
  C   C749      1.0  0.79690  0.56727  0.26702  1.0000
  H   H1280     1.0  0.56851  0.73169  0.98736  1.0000
  H   H1281     1.0  0.73238  0.96492  0.24152  1.0000
  S   S216      1.0  0.82973  0.51215  0.27421  1.0000
  C   C750      1.0  0.92479  0.60193  0.24055  1.0000
  S   S217      1.0  0.82973  0.73149  0.99591  1.0000
  H   H1282     1.0  0.91197  0.61563  0.06870  1.0000
  H   H1283     1.0  0.69065  0.92705  0.23858  1.0000
  H   H1284     1.0  0.76289  0.74409  0.08089  1.0000
  H   H1285     1.0  0.86545  0.86732  0.99906  1.0000
  H   H1286     1.0  0.86994  0.88185  0.21449  1.0000
  S   S218      1.0  0.91205  0.76228  0.99174  1.0000
  C   C751      1.0  0.90991  0.63285  0.04933  1.0000
  H   H1287     1.0  0.93811  0.88470  0.27916  1.0000
  N   N53       1.0  0.82368  0.81447  0.05687  1.0000
  H   H1288     1.0  0.68551  0.97422  0.31048  1.0000
  C   C752      1.0  0.69174  0.53680  0.24209  1.0000
  H   H1289     1.0  0.73870  0.63203  0.00199  1.0000
  N   N54       1.0  0.58579  0.69707  0.99127  1.0000
  N   N55       1.0  0.95751  0.60398  0.23513  1.0000
  H   H1290     1.0  0.76553  0.58735  0.27045  1.0000
  H   H1291     1.0  0.92412  0.67058  0.11303  1.0000
  C   C753      1.0  0.76580  0.75485  0.05505  1.0000
  H   H1292     1.0  0.81473  0.77562  0.09811  1.0000
  Fe  Fe109     1.0  0.77223  0.66342  0.30807  1.0000
  H   H1293     1.0  0.84534  0.88105  0.26657  1.0000
  S   S219      1.0  0.85349  0.67918  0.98409  1.0000
  H   H1294     1.0  0.98886  0.62908  0.30708  1.0000
  C   C754      1.0  0.87773  0.63111  0.06069  1.0000
  H   H1295     1.0  0.91804  0.51539  0.22528  1.0000
  C   C755      1.0  0.59486  0.64699  0.99211  1.0000
  H   H1296     1.0  0.91976  0.69772  0.03287  1.0000
  H   H1297     1.0  0.98609  0.58997  0.26401  1.0000
  H   H1298     1.0  0.76300  0.56858  0.23637  1.0000
  H   H1299     1.0  0.52064  0.59931  0.17772  1.0000
  C   C756      1.0  0.72514  0.61564  0.02630  1.0000
  H   H1300     1.0  0.66285  0.95378  0.26050  1.0000
  C   C757      1.0  0.92026  0.53574  0.23840  1.0000
  H   H1301     1.0  0.87042  0.64292  0.04099  1.0000
  H   H1302     1.0  0.62819  0.70689  0.01684  1.0000
  C   C758      1.0  0.97162  0.73280  0.00932  1.0000
  C   C759      1.0  0.86178  0.94590  0.27492  1.0000
  H   H1303     1.0  0.73086  0.53176  0.06941  1.0000
  H   H1304     1.0  0.92743  0.97069  0.25480  1.0000
  H   H1305     1.0  0.95912  0.65963  0.99632  1.0000
  H   H1306     1.0  0.98739  0.70509  0.06446  1.0000
  H   H1307     1.0  0.98946  0.95518  0.01565  1.0000
  H   H1308     1.0  0.97167  0.57232  0.21492  1.0000
  H   H1309     1.0  0.98449  0.74527  0.02994  1.0000
  S   S220      1.0  0.95351  0.94307  0.30919  1.0000
  Fe  Fe110     1.0  0.79841  0.98254  0.12987  1.0000
  H   H1310     1.0  0.86067  0.96913  0.26743  1.0000
  H   H1311     1.0  0.98963  0.66169  0.13180  1.0000
  H   H1312     1.0  0.96463  0.74981  0.99646  1.0000
  H   H1313     1.0  0.88665  0.93226  0.18284  1.0000
  H   H1314     1.0  0.97246  0.63914  0.18948  1.0000
  H   H1315     1.0  0.98495  0.64222  0.05729  1.0000
  H   H1316     1.0  0.87599  0.96345  0.17189  1.0000
  C   C760      1.0  0.98388  0.63745  0.21165  1.0000
  H   H1317     1.0  0.98992  0.73341  0.99166  1.0000
  H   H1318     1.0  0.99133  0.63689  0.01711  1.0000
  H   H1319     1.0  0.99035  0.65673  0.27293  1.0000
  H   H1320     1.0  0.99156  0.66174  0.22119  1.0000
  H   H1321     1.0  0.75843  0.91383  0.31287  1.0000
  S   S221      1.0  0.97033  0.51150  0.39269  1.0000
  N   N56       1.0  0.68735  0.60528  0.43207  1.0000
  S   S222      1.0  0.57277  0.59268  0.36204  1.0000
  H   H1322     1.0  0.86368  0.83282  0.38456  1.0000
  H   H1323     1.0  0.55353  0.63407  0.47187  1.0000
  S   S223      1.0  0.94792  0.58218  0.36884  1.0000
  H   H1324     1.0  0.54152  0.53476  0.41506  1.0000
  C   C761      1.0  0.67608  0.61114  0.32698  1.0000
  H   H1325     1.0  0.74462  0.62632  0.46867  1.0000
  H   H1326     1.0  0.84219  0.58481  0.42011  1.0000
  C   C762      1.0  0.71872  0.61646  0.40964  1.0000
  H   H1327     1.0  0.70462  0.56647  0.39442  1.0000
  Fe  Fe111     1.0  0.51935  0.55470  0.34709  1.0000
  H   H1328     1.0  0.64204  0.78056  0.58448  1.0000
  H   H1329     1.0  0.74977  0.51217  0.31747  1.0000
  H   H1330     1.0  0.72638  0.57534  0.43036  1.0000
  H   H1331     1.0  0.71825  0.60525  0.50671  1.0000
  C   C763      1.0  0.68859  0.59227  0.46638  1.0000
  H   H1332     1.0  0.86231  0.93336  0.48174  1.0000
  H   H1333     1.0  0.95258  0.63463  0.45437  1.0000
  S   S224      1.0  0.80836  0.67498  0.34530  1.0000
  H   H1334     1.0  0.52951  0.61611  0.37278  1.0000
  Fe  Fe112     1.0  0.55334  0.58195  0.59304  1.0000
  S   S225      1.0  0.52718  0.53507  0.56696  1.0000
  Fe  Fe113     1.0  0.60231  0.63315  0.53315  1.0000
  S   S226      1.0  0.58015  0.59045  0.50278  1.0000
  S   S227      1.0  0.64879  0.68945  0.51264  1.0000
  Fe  Fe114     1.0  0.52799  0.57214  0.52644  1.0000
  H   H1335     1.0  0.56208  0.62213  0.41880  1.0000
  Fe  Fe115     1.0  0.58082  0.55577  0.54471  1.0000
  S   S228      1.0  0.59025  0.51534  0.53032  1.0000
  S   S229      1.0  0.55051  0.61783  0.55350  1.0000
  S   S230      1.0  0.60685  0.59986  0.57404  1.0000
  C   C764      1.0  0.86489  0.58428  0.42451  1.0000
  Fe  Fe116     1.0  0.72281  0.96273  0.50344  1.0000
  H   H1336     1.0  0.84391  0.87457  0.41288  1.0000
  Fe  Fe117     1.0  0.70108  0.88998  0.48794  1.0000
  H   H1337     1.0  0.64343  0.65055  0.36201  1.0000
  S   S231      1.0  0.65430  0.83168  0.49631  1.0000
  S   S232      1.0  0.50641  0.51335  0.31666  1.0000
  H   H1338     1.0  0.82887  0.95527  0.45480  1.0000
  H   H1339     1.0  0.69929  0.66055  0.34446  1.0000
  H   H1340     1.0  0.59390  0.66715  0.40389  1.0000
  S   S233      1.0  0.69627  0.93332  0.46363  1.0000
  S   S234      1.0  0.75234  0.91284  0.45921  1.0000
  H   H1341     1.0  0.60334  0.71723  0.38405  1.0000
  H   H1342     1.0  0.81797  0.56093  0.47411  1.0000
  C   C765      1.0  0.93713  0.52596  0.51038  1.0000
  C   C766      1.0  0.92989  0.52306  0.54362  1.0000
  H   H1343     1.0  0.61847  0.69501  0.57636  1.0000
  H   H1344     1.0  0.56307  0.65719  0.32338  1.0000
  H   H1345     1.0  0.53947  0.68947  0.43067  1.0000
  C   C767      1.0  0.50763  0.62425  0.42670  1.0000
  H   H1346     1.0  0.59655  0.73312  0.41840  1.0000
  H   H1347     1.0  0.64070  0.75888  0.63789  1.0000
  C   C768      1.0  0.62672  0.51345  0.52805  1.0000
  C   C769      1.0  0.65621  0.53589  0.54204  1.0000
  C   C770      1.0  0.68418  0.53292  0.53994  1.0000
  H   H1348     1.0  0.91615  0.51423  0.46530  1.0000
  H   H1349     1.0  0.91123  0.68167  0.44538  1.0000
  S   S235      1.0  0.96238  0.53878  0.56982  1.0000
  H   H1350     1.0  0.65738  0.55536  0.55472  1.0000
  H   H1351     1.0  0.70671  0.55028  0.55107  1.0000
  H   H1352     1.0  0.65494  0.97419  0.49030  1.0000
  H   H1353     1.0  0.58897  0.55083  0.32866  1.0000
  C   C771      1.0  0.64971  0.72864  0.50796  1.0000
  C   C772      1.0  0.61962  0.72731  0.51182  1.0000
  C   C773      1.0  0.62157  0.75910  0.50809  1.0000
  C   C774      1.0  0.65352  0.79256  0.50067  1.0000
  C   C775      1.0  0.68359  0.79384  0.49693  1.0000
  C   C776      1.0  0.68163  0.76204  0.50039  1.0000
  H   H1354     1.0  0.59488  0.70187  0.51760  1.0000
  H   H1355     1.0  0.59818  0.75784  0.51101  1.0000
  H   H1356     1.0  0.70832  0.81934  0.49126  1.0000
  H   H1357     1.0  0.70506  0.76339  0.49739  1.0000
  H   H1358     1.0  0.54656  0.53383  0.45667  1.0000
  C   C777      1.0  0.90359  0.65695  0.43646  1.0000
  H   H1359     1.0  0.52988  0.67199  0.61423  1.0000
  C   C778      1.0  0.87721  0.82134  0.34077  1.0000
  H   H1360     1.0  0.90486  0.89861  0.36858  1.0000
  Fe  Fe118     1.0  0.77556  0.94352  0.49979  1.0000
  S   S236      1.0  0.85608  0.63274  0.31348  1.0000
  H   H1361     1.0  0.68717  0.56731  0.46816  1.0000
  H   H1362     1.0  0.93352  0.61488  0.41979  1.0000
  H   H1363     1.0  0.85769  0.62351  0.46971  1.0000
  C   C779      1.0  0.87970  0.84416  0.36139  1.0000
  H   H1364     1.0  0.92754  0.66045  0.42714  1.0000
  C   C780      1.0  0.52573  0.97694  0.41992  1.0000
  H   H1365     1.0  0.94887  0.59556  0.44548  1.0000
  C   C781      1.0  0.91279  0.64318  0.34223  1.0000
  C   C782      1.0  0.93316  0.63165  0.35343  1.0000
  C   C783      1.0  0.80337  0.49598  0.33782  1.0000
  C   C784      1.0  0.72463  0.58739  0.40669  1.0000
  H   H1366     1.0  0.91851  0.66843  0.34635  1.0000
  H   H1367     1.0  0.95450  0.64835  0.36613  1.0000
  C   C785      1.0  0.61215  0.59991  0.34664  1.0000
  S   S237      1.0  0.81856  0.94186  0.52122  1.0000
  C   C786      1.0  0.53751  0.64391  0.37202  1.0000
  C   C787      1.0  0.71645  0.67391  0.42367  1.0000
  N   N57       1.0  0.54125  0.65250  0.40565  1.0000
  C   C788      1.0  0.64362  0.63086  0.35090  1.0000
  C   C789      1.0  0.56925  0.66812  0.34615  1.0000
  C   C790      1.0  0.61289  0.57483  0.33206  1.0000
  C   C791      1.0  0.53311  0.96574  0.47745  1.0000
  S   S238      1.0  0.71513  0.61565  0.31577  1.0000
  S   S239      1.0  0.71933  0.50515  0.52209  1.0000
  C   C792      1.0  0.87579  0.49562  0.50433  1.0000
  C   C793      1.0  0.56860  0.64931  0.41904  1.0000
  C   C794      1.0  0.89551  0.50686  0.55690  1.0000
  C   C795      1.0  0.62577  0.48817  0.51186  1.0000
  C   C796      1.0  0.83031  0.87093  0.43657  1.0000
  C   C797      1.0  0.50601  0.92521  0.48637  1.0000
  H   H1368     1.0  0.82896  0.51710  0.34122  1.0000
  C   C798      1.0  0.88159  0.62485  0.46431  1.0000
  C   C799      1.0  0.57474  0.65651  0.45383  1.0000
  N   N58       1.0  0.61592  0.70702  0.62438  1.0000
  C   C800      1.0  0.76754  0.94059  0.31551  1.0000
  H   H1369     1.0  0.59201  0.66882  0.35244  1.0000
  H   H1370     1.0  0.88601  0.60636  0.40645  1.0000
  H   H1371     1.0  0.71740  0.62681  0.38476  1.0000
  H   H1372     1.0  0.89231  0.55696  0.46737  1.0000
  C   C801      1.0  0.62074  0.56275  0.43675  1.0000
  H   H1373     1.0  0.60045  0.54034  0.42595  1.0000
  H   H1374     1.0  0.66822  0.63255  0.45320  1.0000
  S   S240      1.0  0.72406  0.91786  0.52972  1.0000
  C   C802      1.0  0.67539  0.63659  0.34100  1.0000
  S   S241      1.0  0.84792  0.77446  0.35337  1.0000
  H   H1375     1.0  0.65835  0.67731  0.58402  1.0000
  C   C803      1.0  0.64461  0.58030  0.32256  1.0000
  C   C804      1.0  0.76277  0.94747  0.34619  1.0000
  C   C805      1.0  0.49216  0.94406  0.41245  1.0000
  H   H1376     1.0  0.70974  0.69271  0.42754  1.0000
  H   H1377     1.0  0.85928  0.55657  0.52737  1.0000
  C   C806      1.0  0.72009  0.61844  0.48202  1.0000
  H   H1378     1.0  0.73611  0.67827  0.43944  1.0000
  C   C807      1.0  0.90298  0.88148  0.35237  1.0000
  H   H1379     1.0  0.81125  0.89462  0.46315  1.0000
  H   H1380     1.0  0.82997  0.91708  0.37436  1.0000
  H   H1381     1.0  0.66573  0.58510  0.48262  1.0000
  H   H1382     1.0  0.65292  0.75386  0.56773  1.0000
  C   C808      1.0  0.91020  0.51196  0.49096  1.0000
  C   C809      1.0  0.84024  0.56060  0.48096  1.0000
  H   H1383     1.0  0.80491  0.84476  0.43992  1.0000
  H   H1384     1.0  0.67867  0.72233  0.58851  1.0000
  H   H1385     1.0  0.61665  0.55277  0.46300  1.0000
  C   C810      1.0  0.92558  0.59838  0.34913  1.0000
  H   H1386     1.0  0.51069  0.91117  0.46972  1.0000
  H   H1387     1.0  0.84722  0.58761  0.52294  1.0000
  Fe  Fe119     1.0  0.83593  0.73301  0.32188  1.0000
  H   H1388     1.0  0.86554  0.91769  0.35840  1.0000
  C   C811      1.0  0.54790  0.68838  0.40604  1.0000
  H   H1389     1.0  0.88136  0.54985  0.41494  1.0000
  C   C812      1.0  0.68325  0.50771  0.52368  1.0000
  H   H1390     1.0  0.74995  0.92611  0.36693  1.0000
  H   H1391     1.0  0.83335  0.53381  0.47895  1.0000
  H   H1392     1.0  0.89330  0.93555  0.40175  1.0000
  Fe  Fe120     1.0  0.74951  0.95821  0.43801  1.0000
  H   H1393     1.0  0.66812  0.63517  0.41091  1.0000
  H   H1394     1.0  0.68466  0.79025  0.58418  1.0000
  C   C813      1.0  0.90081  0.58475  0.46686  1.0000
  N   N59       1.0  0.87274  0.58918  0.45865  1.0000
  H   H1395     1.0  0.53192  0.69233  0.38981  1.0000
  H   H1396     1.0  0.89524  0.63226  0.48599  1.0000
  C   C814      1.0  0.87830  0.58931  0.32059  1.0000
  C   C815      1.0  0.93582  0.60928  0.44540  1.0000
  H   H1397     1.0  0.58181  0.72362  0.63022  1.0000
  C   C816      1.0  0.89861  0.57777  0.33173  1.0000
  H   H1398     1.0  0.57559  0.69533  0.34042  1.0000
  H   H1399     1.0  0.57820  0.68150  0.45746  1.0000
  H   H1400     1.0  0.85214  0.54961  0.38935  1.0000
  H   H1401     1.0  0.61636  0.58394  0.43253  1.0000
  H   H1402     1.0  0.83604  0.52565  0.42941  1.0000
  H   H1403     1.0  0.89684  0.97558  0.39207  1.0000
  C   C817      1.0  0.88303  0.96874  0.53936  1.0000
  C   C818      1.0  0.52720  0.52214  0.43976  1.0000
  H   H1404     1.0  0.84444  0.86914  0.45624  1.0000
  H   H1405     1.0  0.50830  0.62939  0.45188  1.0000
  C   C819      1.0  0.62217  0.68812  0.60142  1.0000
  H   H1406     1.0  0.84413  0.98015  0.38099  1.0000
  H   H1407     1.0  0.92659  0.97861  0.47506  1.0000
  H   H1408     1.0  0.89250  0.55230  0.32784  1.0000
  H   H1409     1.0  0.65678  0.58132  0.39402  1.0000
  H   H1410     1.0  0.65634  0.55056  0.42426  1.0000
  C   C820      1.0  0.82668  0.96598  0.40407  1.0000
  H   H1411     1.0  0.59868  0.65905  0.45920  1.0000
  S   S242      1.0  0.93113  0.49761  0.32840  1.0000
  Fe  Fe121     1.0  0.95957  0.54299  0.35584  1.0000
  C   C821      1.0  0.82440  0.90019  0.43835  1.0000
  C   C822      1.0  0.84554  0.96283  0.43181  1.0000
  H   H1412     1.0  0.81521  0.54077  0.53058  1.0000
  H   H1413     1.0  0.80449  0.89560  0.42278  1.0000
  C   C823      1.0  0.58562  0.72151  0.39670  1.0000
  H   H1414     1.0  0.72817  0.68144  0.39805  1.0000
  H   H1415     1.0  0.50313  0.59770  0.42849  1.0000
  C   C824      1.0  0.68329  0.63556  0.43056  1.0000
  H   H1416     1.0  0.72065  0.64212  0.48499  1.0000
  H   H1417     1.0  0.74277  0.63889  0.41664  1.0000
  H   H1418     1.0  0.74953  0.59967  0.39123  1.0000
  H   H1419     1.0  0.53884  0.97662  0.50026  1.0000
  C   C825      1.0  0.65627  0.57472  0.42051  1.0000
  C   C826      1.0  0.87756  0.94638  0.39908  1.0000
  C   C827      1.0  0.55040  0.66932  0.62231  1.0000
  H   H1420     1.0  0.60275  0.65877  0.60792  1.0000
  H   H1421     1.0  0.81800  0.98264  0.40989  1.0000
  C   C828      1.0  0.85828  0.55027  0.41455  1.0000
  H   H1422     1.0  0.58858  0.71814  0.59057  1.0000
  H   H1423     1.0  0.87430  0.94123  0.54456  1.0000
  H   H1424     1.0  0.80350  0.94022  0.40083  1.0000
  H   H1425     1.0  0.51677  0.64501  0.36199  1.0000
  C   C829      1.0  0.65781  0.69454  0.59974  1.0000
  H   H1426     1.0  0.96345  0.53886  0.49967  1.0000
  C   C830      1.0  0.92418  0.89635  0.32264  1.0000
  H   H1427     1.0  0.88958  0.50457  0.58255  1.0000
  S   S243      1.0  0.49584  0.57853  0.31818  1.0000
  H   H1428     1.0  0.54644  0.97297  0.41537  1.0000
  H   H1429     1.0  0.50894  0.52954  0.44262  1.0000
  C   C831      1.0  0.74313  0.55045  0.33412  1.0000
  H   H1430     1.0  0.88725  0.92514  0.45736  1.0000
  C   C832      1.0  0.84117  0.56208  0.51740  1.0000
  C   C833      1.0  0.91041  0.98022  0.45751  1.0000
  H   H1431     1.0  0.88854  0.65497  0.41621  1.0000
  H   H1432     1.0  0.50790  0.91586  0.51135  1.0000
  N   N60       1.0  0.85626  0.93793  0.43077  1.0000
  C   C834      1.0  0.64621  0.74526  0.62138  1.0000
  C   C835      1.0  0.87794  0.94234  0.45767  1.0000
  C   C836      1.0  0.86052  0.97703  0.52778  1.0000
  H   H1433     1.0  0.90649  0.58908  0.49189  1.0000
  C   C837      1.0  0.73219  0.52064  0.31435  1.0000
  C   C838      1.0  0.85830  0.93351  0.36944  1.0000
  H   H1434     1.0  0.70673  0.49725  0.32679  1.0000
  C   C839      1.0  0.88463  0.62158  0.32635  1.0000
  H   H1435     1.0  0.58598  0.74257  0.38037  1.0000
  H   H1436     1.0  0.86617  0.95677  0.35066  1.0000
  S   S244      1.0  0.53133  0.57852  0.64381  1.0000
  H   H1437     1.0  0.55732  0.96916  0.46873  1.0000
  H   H1438     1.0  0.74395  0.54083  0.35941  1.0000
  C   C840      1.0  0.58495  0.70641  0.61649  1.0000
  H   H1439     1.0  0.55115  0.65113  0.60825  1.0000
  H   H1440     1.0  0.72440  0.55742  0.33501  1.0000
  C   C841      1.0  0.77401  0.98184  0.34981  1.0000
  N   N61       1.0  0.52550  0.98636  0.45300  1.0000
  H   H1441     1.0  0.66341  0.68769  0.62376  1.0000
  H   H1442     1.0  0.76925  0.57476  0.32496  1.0000
  C   C842      1.0  0.86865  0.49342  0.53741  1.0000
  H   H1443     1.0  0.51361  0.50052  0.50259  1.0000
  C   C843      1.0  0.65668  0.76860  0.58758  1.0000
  H   H1444     1.0  0.87942  0.49731  0.39078  1.0000
  H   H1445     1.0  0.49681  0.93928  0.38820  1.0000
  H   H1446     1.0  0.49261  0.97596  0.51615  1.0000
  H   H1447     1.0  0.66926  0.74758  0.62976  1.0000
  S   S245      1.0  0.87399  0.74473  0.92659  1.0000
  H   H1448     1.0  0.63452  0.72137  0.96061  1.0000
  H   H1449     1.0  0.54363  0.79618  0.93048  1.0000
  Fe  Fe122     1.0  0.59677  0.62727  0.89275  1.0000
  S   S246      1.0  0.58015  0.57897  0.87072  1.0000
  S   S247      1.0  0.64213  0.65921  0.92097  1.0000
  Fe  Fe123     1.0  0.53527  0.62847  0.87328  1.0000
  C   C844      1.0  0.61021  0.68798  0.65835  1.0000
  C   C845      1.0  0.51032  0.50076  0.76676  1.0000
  Fe  Fe124     1.0  0.52621  0.55722  0.89194  1.0000
  H   H1450     1.0  0.67161  0.62800  0.88807  1.0000
  Fe  Fe125     1.0  0.57035  0.60620  0.82841  1.0000
  S   S248      1.0  0.59190  0.60719  0.77836  1.0000
  S   S249      1.0  0.54327  0.60325  0.91776  1.0000
  S   S250      1.0  0.58990  0.65579  0.84951  1.0000
  C   C846      1.0  0.54893  0.58684  0.68084  1.0000
  C   C847      1.0  0.58134  0.59409  0.68453  1.0000
  C   C848      1.0  0.59421  0.60076  0.71441  1.0000
  C   C849      1.0  0.57499  0.60041  0.74090  1.0000
  C   C850      1.0  0.54272  0.59351  0.73711  1.0000
  C   C851      1.0  0.52977  0.58664  0.70728  1.0000
  H   H1451     1.0  0.56704  0.53302  0.82150  1.0000
  H   H1452     1.0  0.61917  0.60600  0.71711  1.0000
  H   H1453     1.0  0.52763  0.59316  0.75722  1.0000
  H   H1454     1.0  0.91574  0.64574  0.78628  1.0000
  C   C852      1.0  0.92127  0.87236  0.94352  1.0000
  C   C853      1.0  0.95430  0.88018  0.94354  1.0000
  H   H1455     1.0  0.89235  0.89480  0.93538  1.0000
  H   H1456     1.0  0.51143  0.79157  0.95954  1.0000
  H   H1457     1.0  0.49210  0.75869  0.89858  1.0000
  C   C854      1.0  0.91776  0.90049  0.93547  1.0000
  C   C855      1.0  0.94696  0.93608  0.92727  1.0000
  H   H1458     1.0  0.52226  0.89148  0.91041  1.0000
  S   S251      1.0  0.97111  0.60384  0.92743  1.0000
  C   C856      1.0  0.95286  0.69158  0.93163  1.0000
  H   H1459     1.0  0.61711  0.74626  0.95650  1.0000
  H   H1460     1.0  0.52974  0.52951  0.76650  1.0000
  H   H1461     1.0  0.89453  0.62997  0.83746  1.0000
  H   H1462     1.0  0.93701  0.57293  0.80270  1.0000
  H   H1463     1.0  0.55010  0.87255  0.83771  1.0000
  C   C857      1.0  0.59535  0.70414  0.92903  1.0000
  C   C858      1.0  0.67910  0.65891  0.92499  1.0000
  C   C859      1.0  0.68802  0.64218  0.90563  1.0000
  C   C860      1.0  0.74046  0.66283  0.93106  1.0000
  C   C861      1.0  0.73133  0.67920  0.95073  1.0000
  C   C862      1.0  0.70084  0.67722  0.94768  1.0000
  H   H1464     1.0  0.98073  0.52467  0.78552  1.0000
  H   H1465     1.0  0.58858  0.51333  0.81214  1.0000
  S   S252      1.0  0.94646  0.72602  0.93181  1.0000
  H   H1466     1.0  0.68497  0.55279  0.95938  1.0000
  C   C863      1.0  0.49402  0.77853  0.91237  1.0000
  H   H1467     1.0  0.93646  0.59501  0.86919  1.0000
  C   C864      1.0  0.98041  0.50076  0.79383  1.0000
  H   H1468     1.0  0.73588  0.73761  0.84428  1.0000
  H   H1469     1.0  0.51647  0.52532  0.82118  1.0000
  C   C865      1.0  0.98596  0.70086  0.92130  1.0000
  H   H1470     1.0  0.92996  0.63555  0.75243  1.0000
  C   C866      1.0  0.52505  0.87692  0.89291  1.0000
  H   H1471     1.0  0.90814  0.58857  0.84038  1.0000
  H   H1472     1.0  0.54823  0.49497  0.74189  1.0000
  H   H1473     1.0  0.95945  0.68490  0.82664  1.0000
  H   H1474     1.0  0.61412  0.72333  0.90767  1.0000
  H   H1475     1.0  0.96697  0.57951  0.83100  1.0000
  H   H1476     1.0  0.59014  0.65902  0.66062  1.0000
  H   H1477     1.0  0.59640  0.59439  0.66443  1.0000
  H   H1478     1.0  0.56286  0.84162  0.88571  1.0000
  H   H1479     1.0  0.62065  0.72832  0.68801  1.0000
  H   H1480     1.0  0.52967  0.84366  0.92830  1.0000
  H   H1481     1.0  0.57569  0.69875  0.68257  1.0000
  C   C867      1.0  0.70362  0.57344  0.97279  1.0000
  C   C868      1.0  0.51141  0.83931  0.91064  1.0000
  H   H1482     1.0  0.72343  0.73561  0.88535  1.0000
  H   H1483     1.0  0.75083  0.72174  0.87562  1.0000
  H   H1484     1.0  0.63378  0.69005  0.66442  1.0000
  N   N62       1.0  0.50734  0.81314  0.89000  1.0000
  C   C869      1.0  0.96534  0.63849  0.92928  1.0000
  N   N63       1.0  0.95963  0.63786  0.82791  1.0000
  H   H1485     1.0  0.54251  0.80352  0.86734  1.0000
  C   C870      1.0  0.92604  0.65548  0.94099  1.0000
  H   H1486     1.0  0.69977  0.59497  0.96919  1.0000
  Fe  Fe126     1.0  0.82563  0.69960  0.95828  1.0000
  C   C871      1.0  0.92595  0.63080  0.77928  1.0000
  C   C872      1.0  0.95020  0.65965  0.84330  1.0000
  H   H1487     1.0  0.72976  0.58365  0.96152  1.0000
  H   H1488     1.0  0.55232  0.64695  0.97441  1.0000
  H   H1489     1.0  0.57688  0.53184  0.78001  1.0000
  C   C873      1.0  0.94118  0.57337  0.82843  1.0000
  N   N64       1.0  0.79804  0.78723  0.89360  1.0000
  C   C874      1.0  0.77450  0.77794  0.92399  1.0000
  C   C875      1.0  0.77689  0.78030  0.86598  1.0000
  C   C876      1.0  0.82643  0.82643  0.88906  1.0000
  C   C877      1.0  0.81244  0.76531  0.89753  1.0000
  H   H1490     1.0  0.90892  0.66197  0.86361  1.0000
  C   C878      1.0  0.74515  0.74154  0.86827  1.0000
  C   C879      1.0  0.85435  0.84186  0.85985  1.0000
  C   C880      1.0  0.82424  0.75850  0.86624  1.0000
  H   H1491     1.0  0.76258  0.79289  0.92147  1.0000
  H   H1492     1.0  0.75271  0.74939  0.92836  1.0000
  H   H1493     1.0  0.79236  0.78791  0.84229  1.0000
  H   H1494     1.0  0.76734  0.79748  0.86386  1.0000
  H   H1495     1.0  0.81548  0.84232  0.88730  1.0000
  H   H1496     1.0  0.84081  0.83287  0.91024  1.0000
  H   H1497     1.0  0.83459  0.77757  0.91169  1.0000
  H   H1498     1.0  0.79286  0.73851  0.91205  1.0000
  C   C881      1.0  0.79081  0.78407  0.95568  1.0000
  H   H1499     1.0  0.59484  0.68343  0.70893  1.0000
  H   H1500     1.0  0.59232  0.67874  0.92825  1.0000
  H   H1501     1.0  0.90041  0.64776  0.94890  1.0000
  C   C882      1.0  0.59978  0.70082  0.68558  1.0000
  S   S253      1.0  0.51541  0.58128  0.84840  1.0000
  H   H1502     1.0  0.87268  0.87100  0.85893  1.0000
  H   H1503     1.0  0.84383  0.83833  0.83650  1.0000
  H   H1504     1.0  0.86979  0.83083  0.86259  1.0000
  H   H1505     1.0  0.84764  0.75918  0.86954  1.0000
  H   H1506     1.0  0.83121  0.77806  0.84418  1.0000
  H   H1507     1.0  0.80466  0.73116  0.86209  1.0000
  H   H1508     1.0  0.54136  0.69168  0.97312  1.0000
  C   C883      1.0  0.91192  0.64173  0.85582  1.0000
  H   H1509     1.0  0.97172  0.63165  0.78025  1.0000
  H   H1510     1.0  0.91128  0.60142  0.94705  1.0000
  H   H1511     1.0  0.74761  0.69315  0.96845  1.0000
  C   C884      1.0  0.96061  0.64408  0.79173  1.0000
  S   S254      1.0  0.77807  0.66359  0.93432  1.0000
  C   C885      1.0  0.93533  0.59890  0.84268  1.0000
  C   C886      1.0  0.71847  0.64410  0.90872  1.0000
  H   H1512     1.0  0.50473  0.58122  0.70464  1.0000
  H   H1513     1.0  0.57063  0.70072  0.92604  1.0000
  Fe  Fe127     1.0  0.87975  0.77627  0.96535  1.0000
  C   C887      1.0  0.60965  0.71846  0.96006  1.0000
  H   H1514     1.0  0.90657  0.60184  0.78745  1.0000
  C   C888      1.0  0.52306  0.49051  0.73894  1.0000
  H   H1515     1.0  0.53522  0.83385  0.81980  1.0000
  H   H1516     1.0  0.72507  0.63102  0.89360  1.0000
  H   H1517     1.0  0.95743  0.85887  0.94964  1.0000
  C   C889      1.0  0.56823  0.51677  0.80511  1.0000
  H   H1518     1.0  0.80510  0.77188  0.95925  1.0000
  H   H1519     1.0  0.76989  0.77124  0.97634  1.0000
  Fe  Fe128     1.0  0.90219  0.72654  0.95525  1.0000
  H   H1520     1.0  0.57839  0.86027  0.82845  1.0000
  S   S255      1.0  0.88362  0.82807  0.95357  1.0000
  C   C890      1.0  0.93230  0.62922  0.93986  1.0000
  H   H1521     1.0  0.92233  0.54591  0.84197  1.0000
  C   C891      1.0  0.55140  0.84953  0.83761  1.0000
  H   H1522     1.0  0.90334  0.62093  0.87754  1.0000
  H   H1523     1.0  0.94392  0.95744  0.92093  1.0000
  H   H1524     1.0  0.58560  0.62539  0.97781  1.0000
  C   C892      1.0  0.54146  0.82621  0.87137  1.0000
  H   H1525     1.0  0.50106  0.65116  0.94193  1.0000
  H   H1526     1.0  0.96341  0.66814  0.86497  1.0000
  H   H1527     1.0  0.50745  0.75325  0.95002  1.0000
  H   H1528     1.0  0.69404  0.68999  0.96301  1.0000
  C   C893      1.0  0.98003  0.94388  0.92707  1.0000
  S   S256      1.0  0.50554  0.65404  0.87148  1.0000
  H   H1529     1.0  0.51041  0.87698  0.87308  1.0000
  H   H1530     1.0  0.55291  0.89234  0.88402  1.0000
  H   H1531     1.0  0.97801  0.67293  0.78137  1.0000
  H   H1532     1.0  0.80787  0.81275  0.95708  1.0000
  C   C894      1.0  0.51580  0.78057  0.93947  1.0000
  C   C895      1.0  0.98346  0.91574  0.93542  1.0000
  H   H1533     1.0  0.49697  0.97289  0.88102  1.0000
  C   C896      1.0  0.49547  0.49647  0.82412  1.0000
  H   H1534     1.0  0.52695  0.50784  0.71593  1.0000
  H   H1535     1.0  0.49427  0.56365  0.97789  1.0000
  H   H1536     1.0  0.54244  0.65678  0.64823  1.0000
