data_image0
_chemical_formula_structural       FeS2FeSCFeSFeCS2FeSFeS3CSHSH2S3FeSFeSCH3NCHSC2H2C7H7FeHFeC3H3Fe2H2C7H5CH3C6H2SH3C2H3CHC2H2NCSH2CH3C2HC2HCH3CFeC2SCH6SCHCHSH5NC3H4SHCHNC8H25CHCH2C2H4CFeC2HC3HC2NHCH2NHC3H5SCH10C2NCH2CH2CNHCH3C2H2CH4CH2FeCHCHSC2H4C3HCSC2HCSH9CH2SHCHCHFeH2CHS3CH2C2HCH5SCHC2S2HCH2CSHFeSH2CHFeHSCHSH2FeS2FeS2FeCFeS3H2SHFeSHFeS2FeSFeS3CHSCSHFeSC8H4C6H4C2HNHC6HNH3C2H2CHC6H9CH2CHC6H7SHCHCHC2FeH2CNC8H20FeHC2H4CH3NHFeH3C4H5CH2CH4CHCHCHC2HNCHCSFeH2SFeH4C2HNH2C2H8SHCH2CHCH3C3H2CH2CHCHSH4SHFeH8FeH3CH3NSHC2HCHCHCH3CSH11CH2C2HCHNHSHCHC2SH4CH6CH3CH3SFeHC2SH2FeCSCH2CHCSHCH4CH3CSHC7H4CH2NH10C6H2NH2CHNCH2C2HCH8SH5CH2CH2C2HCHC2SH3CH8CH4CH7NCHC2H2CHCHFeCNH4C2HCSHSH4SHFeHFeS2HNHCH3FeCSC3HCFeHCH2SHCH3CHC2HCHSH2CH6CH2C3H4CHSHFeCH2CH2C2HCH2CH10SHCH2C2FeCSFeS2CFeS2FeS2FeSFeS3FeSFeSFeSFeSCSFeSCFeSHFeSFeS3FeS2FeSFeSFeS3HFeS2HCFeSHSHC2H2CH5C6H7C6H4C3H5C2SHCHSC6H4C6H6CSH2CHC6H4C3H2CH4NC8H20NC5HCH13CHC3H3NC8H21NHC3H3CH3C3H6CNHNH2CSHC3FeH2C3FeSC2H2CHCHC4H2CSCH3CHCNH2CH7CHC5HCH2CH3NH4CH2CHC2SHC2H3SCH2CH3N2H7CH4C2H3CH2CH5C2HCH5C2H4C2SHCH11CH3CH4NH3CH5C3H4CH2C4HC2HCHSHCH2CHCH2C3HC2HCH4FeS2FeS2FeSFeS3FeSHFeHFeS2FeS2FeSHFeNFeS3FeHFeS3FeSCFeHFeS3FeS2FeS2FeSFeS3C2H2C6H5CH2NC6H6C2HCH4SH3SH3NCHC2SCH2C6H4C6H4C6H4CH2SHC3H2NC8H20NC8H21NCNC5HCH16CNHCH6C3HCSH2CH2C2HCHCFeHNHS2FeCHCH4C6HCHCH2C2H2C2H3CH7CHCH7CH5NH2CNH5CHCH4CHCHSH3C2HC2HCH2C2HCSHCH2CHC2H2CHCH2CHC2H4CH4C2HC2HCS2CHCHCH2C2H3CH2CH5SHCHC2FeC2H2CH2C2H3C2HCH7C2H3CH4C2H10CHCH2CSH2CHC2SCHS2FeCFeSH3CSHCH2FeHC2H3SCSH3Fe2H3C2HC4HFeCH2SH2C3H5CHCH2CH2CH2CHCHC2H5CH2CHNSCH2CH2SH2SCNH4CHCHCH3NHCHC2H3CH2C2HCH3CSH2FeSC3SH4SH2CH2SC6H3NHNH5CHC3HCH4CHCH2CHC6H4CH2SH5C3H2CH3C2HCH4C2H10CH4C3HCNH3FeH6CHC3HCH2SH5CH2CHCHFeSH3FeS2FeS2FeSFeS3H2CSH3NSFeH3SCFeSHCHCHSHC2SHFeS2FeS2FeSFeS3HC2H2CH3NH2C6H4C6H6CH2CHSHC7H4C6H4C6H4SNSHC2NH2CNC3HC3H7CHCH7SH2CNC5H12CHCHCHCH3CHC3HCH5C2H9C3HCHSCH2CH3CHCHFeHNHCHC2HCH2CH9C3H8CH2CH2CHCHCH9CH4C2HCNH7CH6SCH3FeH4CHCH5SFeSFeSHFeSFeS2HS4FeS2FeS2FeSFeHS3HSFeSC3Fe2SCHFeHC7H2S2C6H5C6H5C3HCHCH5CH2FeH3FeHC2HNH2C2HCNCHCHC2H7CH2CHCH3C2HCHSHC2HCSHCH2CHSHC2H3CHC2FeH4NH2C2HCHFeCH2CH4CH2CHCNH5CH3CHSH3C2H3SHNH3CHC2SHCH3C2H2CHC2HSH8CH5CHC2FeH3C3H2CH3SFeCFeHSC2H2C3SH2CH4C3H5NHCFeH2CH2C4H3C2H2CH2SHCHCHCH2CHCSH2CH3SH3SC2
_chemical_formula_sum              "Fe128 S256 C896 H1536 N64"
_cell_length_a       37.419
_cell_length_b       56.2677
_cell_length_c       69.3634
_cell_angle_alpha    89.3041
_cell_angle_beta     90.1497
_cell_angle_gamma    86.3702

_space_group_name_H-M_alt    "P 1"
_space_group_IT_number       1

loop_
  _space_group_symop_operation_xyz
  'x, y, z'

loop_
  _atom_site_type_symbol
  _atom_site_label
  _atom_site_symmetry_multiplicity
  _atom_site_fract_x
  _atom_site_fract_y
  _atom_site_fract_z
  _atom_site_occupancy
  Fe  Fe1       1.0  0.08973  0.40349  0.26944  1.0000
  S   S1        1.0  0.10598  0.44043  0.27418  1.0000
  S   S2        1.0  0.11287  0.37205  0.28683  1.0000
  Fe  Fe2       1.0  0.04175  0.41895  0.23586  1.0000
  S   S3        1.0  0.05478  0.45745  0.23803  1.0000
  C   C1        1.0  0.03880  0.05039  0.35552  1.0000
  Fe  Fe3       1.0  0.11216  0.44320  0.24204  1.0000
  S   S4        1.0  0.16225  0.46241  0.23371  1.0000
  Fe  Fe4       1.0  0.04787  0.45144  0.27001  1.0000
  C   C2        1.0  0.18405  0.15384  0.33627  1.0000
  S   S5        1.0  0.09977  0.40515  0.23758  1.0000
  S   S6        1.0  0.03093  0.41399  0.26750  1.0000
  Fe  Fe5       1.0  0.33244  0.45793  0.16165  1.0000
  S   S7        1.0  0.27689  0.44364  0.16616  1.0000
  Fe  Fe6       1.0  0.40933  0.43964  0.15124  1.0000
  S   S8        1.0  0.45245  0.41019  0.14582  1.0000
  S   S9        1.0  0.37918  0.44255  0.17922  1.0000
  S   S10       1.0  0.36151  0.45163  0.13329  1.0000
  C   C3        1.0  0.50596  0.46214  0.11939  1.0000
  S   S11       1.0  0.27201  0.34930  0.34347  1.0000
  H   H1        1.0  0.27387  0.47632  0.19902  1.0000
  S   S12       1.0  0.29105  0.12568  0.30854  1.0000
  H   H2        1.0  0.49150  0.47966  0.12146  1.0000
  H   H3        1.0  0.46950  0.13587  0.28812  1.0000
  S   S13       1.0  0.40812  0.06357  0.11296  1.0000
  S   S14       1.0  0.12921  0.08198  0.25278  1.0000
  S   S15       1.0  0.06704  0.06262  0.28153  1.0000
  Fe  Fe7       1.0  0.06939  0.07954  0.25217  1.0000
  S   S16       1.0  0.02891  0.11052  0.24678  1.0000
  Fe  Fe8       1.0  0.12692  0.06139  0.28068  1.0000
  S   S17       1.0  0.15143  0.06903  0.30930  1.0000
  C   C4        1.0  0.11468  0.15252  0.29490  1.0000
  H   H4        1.0  0.39328  0.06039  0.29409  1.0000
  H   H5        1.0  0.38455  0.44721  0.29398  1.0000
  H   H6        1.0  0.38623  0.08711  0.28119  1.0000
  N   N1        1.0  0.42786  0.42951  0.27774  1.0000
  C   C5        1.0  0.48333  0.01322  0.22252  1.0000
  H   H7        1.0  0.22276  0.04150  0.23960  1.0000
  S   S18       1.0  0.41641  0.49452  0.20770  1.0000
  C   C6        1.0  0.44965  0.07612  0.10975  1.0000
  C   C7        1.0  0.47584  0.07401  0.12419  1.0000
  H   H8        1.0  0.50635  0.43049  0.04382  1.0000
  H   H9        1.0  0.47049  0.06485  0.13758  1.0000
  C   C8        1.0  0.49015  0.26382  0.06604  1.0000
  C   C9        1.0  0.25489  0.10731  0.30849  1.0000
  C   C10       1.0  0.24190  0.09838  0.29120  1.0000
  C   C11       1.0  0.21072  0.08563  0.29127  1.0000
  C   C12       1.0  0.19283  0.08182  0.30865  1.0000
  C   C13       1.0  0.20679  0.08984  0.32592  1.0000
  C   C14       1.0  0.23760  0.10262  0.32582  1.0000
  H   H10       1.0  0.25534  0.10185  0.27776  1.0000
  H   H11       1.0  0.20015  0.07926  0.27789  1.0000
  H   H12       1.0  0.19314  0.08683  0.33939  1.0000
  H   H13       1.0  0.24718  0.10949  0.33920  1.0000
  H   H14       1.0  0.20987  0.15187  0.32847  1.0000
  H   H15       1.0  0.46919  0.28150  0.09890  1.0000
  H   H16       1.0  0.40312  0.46143  0.26431  1.0000
  Fe  Fe9       1.0  0.37001  0.02426  0.17631  1.0000
  H   H17       1.0  0.46949  0.50178  0.07193  1.0000
  Fe  Fe10      1.0  0.39596  0.48004  0.17965  1.0000
  C   C15       1.0  0.45860  0.04281  0.31058  1.0000
  C   C16       1.0  0.46011  0.39935  0.12232  1.0000
  C   C17       1.0  0.43282  0.39922  0.10850  1.0000
  H   H18       1.0  0.11775  0.01687  0.31142  1.0000
  H   H19       1.0  0.44217  0.25726  0.04855  1.0000
  H   H20       1.0  0.40595  0.40593  0.11213  1.0000
  Fe  Fe11      1.0  0.38017  0.48880  0.13633  1.0000
  Fe  Fe12      1.0  0.07320  0.02805  0.26632  1.0000
  H   H21       1.0  0.02082  0.08781  0.35435  1.0000
  H   H22       1.0  0.45706  0.45103  0.19729  1.0000
  C   C18       1.0  0.39401  0.22498  0.34671  1.0000
  C   C19       1.0  0.13338  0.37913  0.30871  1.0000
  C   C20       1.0  0.12964  0.40217  0.31612  1.0000
  C   C21       1.0  0.14993  0.40824  0.33218  1.0000
  C   C22       1.0  0.17397  0.39127  0.34090  1.0000
  C   C23       1.0  0.17644  0.36795  0.33407  1.0000
  C   C24       1.0  0.15605  0.36187  0.31807  1.0000
  H   H23       1.0  0.11124  0.41536  0.30946  1.0000
  H   H24       1.0  0.14746  0.42621  0.33761  1.0000
  H   H25       1.0  0.19410  0.35455  0.34107  1.0000
  H   H26       1.0  0.15859  0.34390  0.31264  1.0000
  H   H27       1.0  0.43189  0.04374  0.31750  1.0000
  C   C25       1.0  0.42467  0.06814  0.25086  1.0000
  H   H28       1.0  0.50305  0.25484  0.07890  1.0000
  H   H29       1.0  0.38599  0.41307  0.24784  1.0000
  H   H30       1.0  0.09151  0.16002  0.30344  1.0000
  C   C26       1.0  0.19367  0.45686  0.21475  1.0000
  C   C27       1.0  0.18906  0.43970  0.20070  1.0000
  C   C28       1.0  0.21478  0.43593  0.18599  1.0000
  C   C29       1.0  0.24560  0.44907  0.18521  1.0000
  C   C30       1.0  0.25039  0.46605  0.19942  1.0000
  C   C31       1.0  0.22451  0.46996  0.21404  1.0000
  H   H31       1.0  0.16553  0.42947  0.20100  1.0000
  H   H32       1.0  0.21072  0.42279  0.17507  1.0000
  S   S19       1.0  0.33398  0.03321  0.20223  1.0000
  H   H33       1.0  0.33157  0.28751  0.34790  1.0000
  H   H34       1.0  0.49541  0.06493  0.29604  1.0000
  H   H35       1.0  0.12046  0.19825  0.27968  1.0000
  C   C32       1.0  0.45689  0.08803  0.09243  1.0000
  C   C33       1.0  0.45342  0.10107  0.27934  1.0000
  H   H36       1.0  0.47712  0.47373  0.29885  1.0000
  H   H37       1.0  0.44842  0.12038  0.30711  1.0000
  H   H38       1.0  0.48136  0.46976  0.05251  1.0000
  C   C34       1.0  0.18192  0.15066  0.29235  1.0000
  H   H39       1.0  0.10357  0.11737  0.30711  1.0000
  C   C35       1.0  0.43538  0.37364  0.32789  1.0000
  C   C36       1.0  0.45186  0.46715  0.29317  1.0000
  H   H40       1.0  0.01702  0.04549  0.34564  1.0000
  H   H41       1.0  0.45157  0.43860  0.08983  1.0000
  N   N2        1.0  0.48632  0.46698  0.08369  1.0000
  C   C37       1.0  0.49028  0.09768  0.08951  1.0000
  S   S20       1.0  0.49102  0.43234  0.33764  1.0000
  H   H42       1.0  0.09545  0.50434  0.29333  1.0000
  H   H43       1.0  0.49402  0.13915  0.34094  1.0000
  C   C38       1.0  0.45837  0.11480  0.35375  1.0000
  H   H44       1.0  0.46367  0.32219  0.05417  1.0000
  H   H45       1.0  0.34381  0.24566  0.34777  1.0000
  H   H46       1.0  0.39440  0.45916  0.07935  1.0000
  C   C39       1.0  0.37254  0.41035  0.29301  1.0000
  C   C40       1.0  0.33710  0.28727  0.31715  1.0000
  H   H47       1.0  0.12712  0.15207  0.33208  1.0000
  C   C41       1.0  0.49804  0.43320  0.05905  1.0000
  C   C42       1.0  0.36949  0.24657  0.33990  1.0000
  H   H48       1.0  0.43103  0.11096  0.27147  1.0000
  C   C43       1.0  0.35379  0.28899  0.33739  1.0000
  H   H49       1.0  0.44067  0.46479  0.10264  1.0000
  H   H50       1.0  0.09673  0.50332  0.22953  1.0000
  H   H51       1.0  0.38257  0.20836  0.34171  1.0000
  C   C44       1.0  0.12238  0.50643  0.28720  1.0000
  Fe  Fe13      1.0  0.45095  0.01509  0.17096  1.0000
  C   C45       1.0  0.40375  0.07841  0.29256  1.0000
  C   C46       1.0  0.48129  0.29758  0.03238  1.0000
  S   S21       1.0  0.13343  0.02523  0.26739  1.0000
  C   C47       1.0  0.39458  0.09237  0.31109  1.0000
  H   H52       1.0  0.42473  0.45679  0.05952  1.0000
  H   H53       1.0  0.49017  0.44847  0.12649  1.0000
  H   H54       1.0  0.50963  0.26029  0.05419  1.0000
  H   H55       1.0  0.01204  0.13797  0.19121  1.0000
  H   H56       1.0  0.27514  0.03274  0.17403  1.0000
  H   H57       1.0  0.18026  0.17205  0.34218  1.0000
  S   S22       1.0  0.16421  0.03629  0.21217  1.0000
  C   C48       1.0  0.42824  0.41461  0.35011  1.0000
  H   H58       1.0  0.11562  0.48868  0.26038  1.0000
  C   C49       1.0  0.14476  0.20137  0.28819  1.0000
  H   H59       1.0  0.51002  0.48140  0.25726  1.0000
  S   S23       1.0  0.34757  0.49610  0.16338  1.0000
  H   H60       1.0  0.44018  0.26328  0.33555  1.0000
  H   H61       1.0  0.20496  0.15515  0.26388  1.0000
  H   H62       1.0  0.16913  0.19925  0.27914  1.0000
  H   H63       1.0  0.11041  0.16035  0.28031  1.0000
  H   H64       1.0  0.46807  0.03433  0.06844  1.0000
  N   N3        1.0  0.14947  0.15917  0.30383  1.0000
  C   C50       1.0  0.45648  0.25034  0.06166  1.0000
  C   C51       1.0  0.28658  0.03624  0.20424  1.0000
  C   C52       1.0  0.44080  0.40430  0.27302  1.0000
  H   H65       1.0  0.36168  0.30743  0.33893  1.0000
  H   H66       1.0  0.41855  0.39329  0.26895  1.0000
  H   H67       1.0  0.12605  0.19155  0.31635  1.0000
  H   H68       1.0  0.48134  0.27857  0.02839  1.0000
  S   S24       1.0  0.36151  0.14231  0.34827  1.0000
  H   H69       1.0  0.20569  0.16055  0.29636  1.0000
  C   C53       1.0  0.21127  0.03758  0.20945  1.0000
  H   H70       1.0  0.38500  0.43897  0.23342  1.0000
  N   N4        1.0  0.22564  0.39637  0.26487  1.0000
  C   C54       1.0  0.22796  0.41310  0.24777  1.0000
  C   C55       1.0  0.19552  0.40626  0.27741  1.0000
  C   C56       1.0  0.21612  0.37261  0.25715  1.0000
  C   C57       1.0  0.26133  0.39442  0.27522  1.0000
  C   C58       1.0  0.25546  0.40549  0.23208  1.0000
  C   C59       1.0  0.19923  0.43178  0.28475  1.0000
  C   C60       1.0  0.21209  0.35248  0.27202  1.0000
  C   C61       1.0  0.26119  0.38701  0.29684  1.0000
  H   H71       1.0  0.20134  0.41584  0.24051  1.0000
  H   H72       1.0  0.23507  0.43108  0.25239  1.0000
  H   H73       1.0  0.19176  0.39497  0.29026  1.0000
  H   H74       1.0  0.16950  0.40621  0.26954  1.0000
  H   H75       1.0  0.19054  0.37469  0.24879  1.0000
  H   H76       1.0  0.23681  0.36542  0.24695  1.0000
  H   H77       1.0  0.28037  0.38168  0.26770  1.0000
  H   H78       1.0  0.27359  0.41196  0.27472  1.0000
  H   H79       1.0  0.24561  0.39121  0.22294  1.0000
  H   H80       1.0  0.25911  0.42087  0.22225  1.0000
  H   H81       1.0  0.28219  0.39998  0.23809  1.0000
  H   H82       1.0  0.17992  0.43536  0.29667  1.0000
  H   H83       1.0  0.22633  0.43447  0.29043  1.0000
  H   H84       1.0  0.19234  0.44519  0.27324  1.0000
  H   H85       1.0  0.20278  0.33669  0.26446  1.0000
  H   H86       1.0  0.19163  0.35718  0.28299  1.0000
  H   H87       1.0  0.23807  0.34680  0.27889  1.0000
  H   H88       1.0  0.28662  0.37651  0.30030  1.0000
  H   H89       1.0  0.23936  0.37584  0.30134  1.0000
  H   H90       1.0  0.26121  0.40288  0.30622  1.0000
  H   H91       1.0  0.18915  0.13183  0.29614  1.0000
  H   H92       1.0  0.41744  0.31227  0.33258  1.0000
  H   H93       1.0  0.35835  0.40975  0.27907  1.0000
  H   H94       1.0  0.31977  0.30370  0.31418  1.0000
  H   H95       1.0  0.49386  0.11176  0.30002  1.0000
  C   C62       1.0  0.44582  0.06029  0.26927  1.0000
  H   H96       1.0  0.43625  0.29802  0.05167  1.0000
  C   C63       1.0  0.46827  0.40154  0.25650  1.0000
  H   H97       1.0  0.45299  0.39523  0.28605  1.0000
  H   H98       1.0  0.36292  0.24317  0.32456  1.0000
  C   C64       1.0  0.40489  0.37758  0.33950  1.0000
  C   C65       1.0  0.49031  0.12081  0.34486  1.0000
  H   H99       1.0  0.17342  0.19103  0.31361  1.0000
  H   H100      1.0  0.38538  0.39251  0.29665  1.0000
  H   H101      1.0  0.35755  0.28567  0.30566  1.0000
  H   H102      1.0  0.43254  0.08547  0.24503  1.0000
  C   C66       1.0  0.48413  0.49383  0.08466  1.0000
  Fe  Fe14      1.0  0.30881  0.12888  0.33926  1.0000
  C   C67       1.0  0.46678  0.11801  0.29474  1.0000
  C   C68       1.0  0.46050  0.29390  0.08694  1.0000
  H   H103      1.0  0.15387  0.12786  0.32255  1.0000
  C   C69       1.0  0.48899  0.01342  0.24263  1.0000
  C   C70       1.0  0.08267  0.03349  0.33292  1.0000
  C   C71       1.0  0.14844  0.18576  0.30655  1.0000
  H   H104      1.0  0.44754  0.33269  0.08416  1.0000
  C   C72       1.0  0.45365  0.47869  0.21848  1.0000
  C   C73       1.0  0.46843  0.45769  0.21037  1.0000
  N   N5        1.0  0.44231  0.07698  0.28616  1.0000
  H   H105      1.0  0.05261  0.07990  0.33608  1.0000
  C   C74       1.0  0.26386  0.03474  0.18831  1.0000
  H   H106      1.0  0.13442  0.11592  0.28714  1.0000
  H   H107      1.0  0.15886  0.16486  0.26406  1.0000
  N   N6        1.0  0.38408  0.27085  0.34210  1.0000
  H   H108      1.0  0.43782  0.25064  0.07406  1.0000
  C   C75       1.0  0.38356  0.43268  0.24866  1.0000
  C   C76       1.0  0.27138  0.03902  0.22268  1.0000
  C   C77       1.0  0.46752  0.06697  0.30167  1.0000
  H   H109      1.0  0.50871  0.30371  0.03124  1.0000
  H   H110      1.0  0.43251  0.28946  0.08380  1.0000
  H   H111      1.0  0.18628  0.14138  0.34884  1.0000
  H   H112      1.0  0.13941  0.49073  0.29239  1.0000
  H   H113      1.0  0.43665  0.08973  0.08125  1.0000
  S   S25       1.0  0.42958  0.47614  0.15308  1.0000
  C   C78       1.0  0.41589  0.27251  0.32889  1.0000
  H   H114      1.0  0.43285  0.46759  0.30541  1.0000
  H   H115      1.0  0.46481  0.23135  0.05897  1.0000
  H   H116      1.0  0.28870  0.04036  0.23509  1.0000
  H   H117      1.0  0.08761  0.12265  0.28308  1.0000
  H   H118      1.0  0.41545  0.09031  0.32236  1.0000
  H   H119      1.0  0.43830  0.35778  0.31924  1.0000
  H   H120      1.0  0.09299  0.05101  0.32913  1.0000
  H   H121      1.0  0.41313  0.42743  0.30797  1.0000
  H   H122      1.0  0.03171  0.15429  0.17150  1.0000
  H   H123      1.0  0.35691  0.43862  0.25450  1.0000
  C   C79       1.0  0.46851  0.48703  0.23557  1.0000
  C   C80       1.0  0.46477  0.30252  0.05242  1.0000
  N   N7        1.0  0.48375  0.29016  0.06934  1.0000
  C   C81       1.0  0.42573  0.29781  0.32263  1.0000
  H   H124      1.0  0.43885  0.32022  0.10729  1.0000
  H   H125      1.0  0.17298  0.13345  0.26457  1.0000
  C   C82       1.0  0.50235  0.38192  0.09894  1.0000
  H   H126      1.0  0.50325  0.04269  0.03997  1.0000
  H   H127      1.0  0.47474  0.38229  0.25404  1.0000
  C   C83       1.0  0.12260  0.50668  0.26502  1.0000
  N   N8        1.0  0.07080  0.03282  0.35371  1.0000
  H   H128      1.0  0.46076  0.02820  0.29999  1.0000
  C   C84       1.0  0.42003  0.46533  0.07368  1.0000
  H   H129      1.0  0.41512  0.30236  0.30799  1.0000
  H   H130      1.0  0.22847  0.48325  0.22483  1.0000
  H   H131      1.0  0.45761  0.40931  0.24272  1.0000
  C   C85       1.0  0.46232  0.39001  0.32749  1.0000
  C   C86       1.0  0.26929  0.23630  0.35478  1.0000
  H   H132      1.0  0.14234  0.22038  0.29247  1.0000
  H   H133      1.0  0.49109  0.06789  0.05506  1.0000
  C   C87       1.0  0.47836  0.02308  0.08063  1.0000
  H   H134      1.0  0.45719  0.50329  0.24190  1.0000
  H   H135      1.0  0.27896  0.49066  0.03622  1.0000
  H   H136      1.0  0.31949  0.27214  0.31644  1.0000
  H   H137      1.0  0.45531  0.29799  0.32139  1.0000
  C   C88       1.0  0.50890  0.08400  0.12140  1.0000
  H   H138      1.0  0.46910  0.07922  0.31391  1.0000
  H   H139      1.0  0.48583  0.38664  0.31869  1.0000
  Fe  Fe15      1.0  0.13173  0.04567  0.23920  1.0000
  C   C89       1.0  0.23398  0.03969  0.22530  1.0000
  H   H140      1.0  0.43572  0.44694  0.25006  1.0000
  C   C90       1.0  0.45007  0.45825  0.08831  1.0000
  H   H141      1.0  0.47860  0.03789  0.32204  1.0000
  S   S26       1.0  0.07153  0.04481  0.23670  1.0000
  C   C91       1.0  0.45970  0.44174  0.28537  1.0000
  C   C92       1.0  0.41380  0.44329  0.26024  1.0000
  H   H142      1.0  0.31628  0.50427  0.04601  1.0000
  H   H143      1.0  0.42147  0.22533  0.34082  1.0000
  H   H144      1.0  0.43777  0.12854  0.35681  1.0000
  H   H145      1.0  0.43069  0.05478  0.23945  1.0000
  C   C93       1.0  0.45793  0.31939  0.09503  1.0000
  C   C94       1.0  0.15192  0.14762  0.32364  1.0000
  C   C95       1.0  0.44030  0.39014  0.08998  1.0000
  H   H146      1.0  0.37050  0.08525  0.31785  1.0000
  C   C96       1.0  0.40003  0.42965  0.29355  1.0000
  S   S27       1.0  0.48431  0.37090  0.06169  1.0000
  C   C97       1.0  0.11023  0.12556  0.29303  1.0000
  C   C98       1.0  0.17855  0.15132  0.27009  1.0000
  H   H147      1.0  0.41907  0.38997  0.07937  1.0000
  C   C99       1.0  0.47521  0.38172  0.08509  1.0000
  S   S28       1.0  0.37144  0.35673  0.33895  1.0000
  H   H148      1.0  0.48398  0.32465  0.10073  1.0000
  H   H149      1.0  0.49391  0.40926  0.26008  1.0000
  H   H150      1.0  0.13787  0.01695  0.33465  1.0000
  H   H151      1.0  0.44231  0.47991  0.28169  1.0000
  H   H152      1.0  0.47295  0.43100  0.29726  1.0000
  H   H153      1.0  0.39531  0.06872  0.25316  1.0000
  H   H154      1.0  0.49572  0.10684  0.07614  1.0000
  H   H155      1.0  0.43690  0.04238  0.27315  1.0000
  H   H156      1.0  0.25171  0.23472  0.34251  1.0000
  C   C100      1.0  0.04577  0.07669  0.35140  1.0000
  H   H157      1.0  0.41620  0.48487  0.07169  1.0000
  H   H158      1.0  0.47585  0.09895  0.26880  1.0000
  S   S29       1.0  0.41453  0.04828  0.16965  1.0000
  H   H159      1.0  0.05406  0.50287  0.25635  1.0000
  C   C101      1.0  0.49461  0.39024  0.11754  1.0000
  H   H160      1.0  0.38855  0.11159  0.30782  1.0000
  C   C102      1.0  0.45879  0.41064  0.33855  1.0000
  H   H161      1.0  0.48052  0.44330  0.27413  1.0000
  Fe  Fe16      1.0  0.40614  0.03873  0.13870  1.0000
  H   H162      1.0  0.41120  0.26294  0.31523  1.0000
  H   H163      1.0  0.35206  0.41419  0.30432  1.0000
  C   C103      1.0  0.22640  0.03530  0.19094  1.0000
  H   H164      1.0  0.47445  0.05745  0.26498  1.0000
  S   S30       1.0  0.02672  0.47953  0.29104  1.0000
  S   S31       1.0  0.24924  0.28381  0.35323  1.0000
  S   S32       1.0  0.31589  0.09487  0.35618  1.0000
  C   C104      1.0  0.49827  0.47459  0.24434  1.0000
  H   H165      1.0  0.45958  0.02648  0.09284  1.0000
  H   H166      1.0  0.02574  0.08083  0.21289  1.0000
  C   C105      1.0  0.30134  0.50194  0.03250  1.0000
  C   C106      1.0  0.48084  0.07356  0.35535  1.0000
  H   H167      1.0  0.28750  0.19915  0.35503  1.0000
  C   C107      1.0  0.11227  0.01460  0.32705  1.0000
  H   H168      1.0  0.46799  0.50038  0.09719  1.0000
  H   H169      1.0  0.05966  0.03147  0.32305  1.0000
  H   H170      1.0  0.50934  0.42916  0.21279  1.0000
  H   H171      1.0  0.47114  0.42622  0.06041  1.0000
  H   H172      1.0  0.20905  0.03373  0.17859  1.0000
  S   S33       1.0  0.35802  0.01773  0.14502  1.0000
  C   C108      1.0  0.40142  0.39812  0.35065  1.0000
  H   H173      1.0  0.15106  0.50814  0.26098  1.0000
  C   C109      1.0  0.49814  0.44536  0.21911  1.0000
  C   C110      1.0  0.49814  0.45995  0.06366  1.0000
  S   S34       1.0  0.50612  0.01685  0.18455  1.0000
  S   S35       1.0  0.39297  0.50822  0.10803  1.0000
  H   H174      1.0  0.03254  0.12243  0.17161  1.0000
  C   C111      1.0  0.01607  0.13885  0.17536  1.0000
  H   H175      1.0  0.22255  0.35134  0.43304  1.0000
  H   H176      1.0  0.06840  0.05142  0.39103  1.0000
  C   C112      1.0  0.11943  0.36874  0.40845  1.0000
  S   S36       1.0  0.31946  0.32328  0.37811  1.0000
  H   H177      1.0  0.13598  0.40484  0.38506  1.0000
  Fe  Fe17      1.0  0.28818  0.34722  0.39853  1.0000
  S   S37       1.0  0.30047  0.34101  0.43013  1.0000
  H   H178      1.0  0.25971  0.18439  0.41455  1.0000
  H   H179      1.0  0.11438  0.05460  0.39371  1.0000
  C   C113      1.0  0.09069  0.42672  0.39626  1.0000
  H   H180      1.0  0.12063  0.02520  0.59277  1.0000
  Fe  Fe18      1.0  0.09497  0.49422  0.64287  1.0000
  H   H181      1.0  0.15318  0.44536  0.42457  1.0000
  S   S38       1.0  0.12090  0.47281  0.61813  1.0000
  C   C114      1.0  0.06053  0.03810  0.47576  1.0000
  H   H182      1.0  0.18734  0.38788  0.40142  1.0000
  S   S39       1.0  0.29687  0.38024  0.38078  1.0000
  H   H183      1.0  0.37804  0.40138  0.35961  1.0000
  H   H184      1.0  0.18920  0.21393  0.46535  1.0000
  Fe  Fe19      1.0  0.08062  0.38870  0.52851  1.0000
  S   S40       1.0  0.04265  0.37625  0.50568  1.0000
  S   S41       1.0  0.05584  0.40334  0.55653  1.0000
  Fe  Fe20      1.0  0.14539  0.37852  0.50263  1.0000
  S   S42       1.0  0.11268  0.36632  0.47834  1.0000
  S   S43       1.0  0.20538  0.37878  0.50035  1.0000
  Fe  Fe21      1.0  0.07475  0.39732  0.48508  1.0000
  C   C115      1.0  0.05659  0.50321  0.57356  1.0000
  Fe  Fe22      1.0  0.08399  0.34582  0.50089  1.0000
  S   S44       1.0  0.07624  0.30845  0.48967  1.0000
  S   S45       1.0  0.11002  0.41151  0.50792  1.0000
  S   S46       1.0  0.11934  0.35638  0.52522  1.0000
  H   H185      1.0  0.01684  0.01676  0.46585  1.0000
  H   H186      1.0  0.20388  0.46067  0.61191  1.0000
  S   S47       1.0  0.09569  0.05214  0.62664  1.0000
  H   H187      1.0  0.37732  0.09004  0.41756  1.0000
  Fe  Fe23      1.0  0.06533  0.13741  0.48988  1.0000
  S   S48       1.0  0.11441  0.11235  0.48991  1.0000
  H   H188      1.0  0.07674  0.05189  0.46892  1.0000
  Fe  Fe24      1.0  0.09904  0.17226  0.51691  1.0000
  S   S49       1.0  0.14992  0.14900  0.51992  1.0000
  S   S50       1.0  0.09188  0.20773  0.53234  1.0000
  Fe  Fe25      1.0  0.14514  0.14540  0.48780  1.0000
  S   S51       1.0  0.19388  0.15480  0.47078  1.0000
  Fe  Fe26      1.0  0.11491  0.11792  0.52217  1.0000
  S   S52       1.0  0.12475  0.08294  0.53915  1.0000
  S   S53       1.0  0.09583  0.17008  0.48480  1.0000
  S   S54       1.0  0.06417  0.14147  0.52208  1.0000
  C   C116      1.0  0.41101  0.29689  0.36847  1.0000
  H   H189      1.0  0.02853  0.42251  0.59213  1.0000
  S   S55       1.0  0.33876  0.12685  0.39255  1.0000
  C   C117      1.0  0.01287  0.42248  0.45230  1.0000
  S   S56       1.0  0.05747  0.42217  0.46046  1.0000
  H   H190      1.0  0.31404  0.06643  0.45645  1.0000
  Fe  Fe27      1.0  0.28772  0.11518  0.37983  1.0000
  S   S57       1.0  0.24361  0.09841  0.39619  1.0000
  C   C118      1.0  0.02988  0.03326  0.46180  1.0000
  C   C119      1.0  0.29535  0.26056  0.37901  1.0000
  C   C120      1.0  0.20752  0.13818  0.45051  1.0000
  C   C121      1.0  0.18760  0.11990  0.44352  1.0000
  C   C122      1.0  0.19893  0.10758  0.42686  1.0000
  C   C123      1.0  0.22984  0.11375  0.41707  1.0000
  C   C124      1.0  0.24976  0.13193  0.42415  1.0000
  C   C125      1.0  0.23880  0.14394  0.44092  1.0000
  H   H191      1.0  0.16347  0.11535  0.45087  1.0000
  H   H192      1.0  0.18351  0.09346  0.42144  1.0000
  H   H193      1.0  0.27373  0.13669  0.41677  1.0000
  H   H194      1.0  0.25463  0.15774  0.44649  1.0000
  C   C126      1.0  0.10282  0.06028  0.60210  1.0000
  C   C127      1.0  0.11528  0.04363  0.58847  1.0000
  C   C128      1.0  0.12156  0.05092  0.56929  1.0000
  C   C129      1.0  0.11527  0.07487  0.56343  1.0000
  C   C130      1.0  0.10219  0.09146  0.57697  1.0000
  C   C131      1.0  0.09615  0.08420  0.59620  1.0000
  H   H195      1.0  0.29970  0.23239  0.44654  1.0000
  H   H196      1.0  0.13183  0.03794  0.55900  1.0000
  H   H197      1.0  0.09735  0.10995  0.57272  1.0000
  H   H198      1.0  0.08662  0.09725  0.60661  1.0000
  C   C132      1.0  0.27258  0.25858  0.36319  1.0000
  C   C133      1.0  0.21685  0.46505  0.65137  1.0000
  H   H199      1.0  0.22918  0.45442  0.68146  1.0000
  N   N9        1.0  0.22998  0.48805  0.64352  1.0000
  H   H200      1.0  0.15253  0.43938  0.45954  1.0000
  C   C134      1.0  0.08502  0.28099  0.50201  1.0000
  C   C135      1.0  0.08396  0.27920  0.52211  1.0000
  C   C136      1.0  0.08726  0.25664  0.53123  1.0000
  C   C137      1.0  0.09234  0.23575  0.52040  1.0000
  C   C138      1.0  0.09535  0.23766  0.50034  1.0000
  C   C139      1.0  0.09116  0.26016  0.49119  1.0000
  H   H201      1.0  0.07916  0.29510  0.53059  1.0000
  N   N10       1.0  0.14537  0.40914  0.41585  1.0000
  H   H202      1.0  0.09951  0.22179  0.49182  1.0000
  H   H203      1.0  0.09195  0.26140  0.47562  1.0000
  H   H204      1.0  0.06681  0.08310  0.36097  1.0000
  C   C140      1.0  0.28949  0.21617  0.36186  1.0000
  C   C141      1.0  0.31571  0.24051  0.38598  1.0000
  H   H205      1.0  0.10738  0.35362  0.41593  1.0000
  H   H206      1.0  0.29095  0.05434  0.38995  1.0000
  C   C142      1.0  0.12551  0.38835  0.42323  1.0000
  H   H207      1.0  0.29733  0.27750  0.38590  1.0000
  C   C143      1.0  0.10247  0.45302  0.60152  1.0000
  C   C144      1.0  0.06836  0.44455  0.60387  1.0000
  C   C145      1.0  0.05475  0.42920  0.59006  1.0000
  C   C146      1.0  0.07477  0.42232  0.57365  1.0000
  C   C147      1.0  0.10878  0.43092  0.57127  1.0000
  C   C148      1.0  0.12257  0.44605  0.58517  1.0000
  H   H208      1.0  0.05266  0.44957  0.61641  1.0000
  H   H209      1.0  0.09783  0.02521  0.39565  1.0000
  H   H210      1.0  0.12455  0.42578  0.55877  1.0000
  H   H211      1.0  0.14896  0.45248  0.58316  1.0000
  H   H212      1.0  0.21073  0.28605  0.42040  1.0000
  H   H213      1.0  0.04104  0.03044  0.44711  1.0000
  H   H214      1.0  0.02062  0.44943  0.43063  1.0000
  H   H215      1.0  0.31057  0.48775  0.66968  1.0000
  H   H216      1.0  0.23709  0.45006  0.64879  1.0000
  C   C149      1.0  0.14115  0.42905  0.43014  1.0000
  H   H217      1.0  0.17619  0.25152  0.41893  1.0000
  H   H218      1.0  0.06732  0.48493  0.57756  1.0000
  C   C150      1.0  0.34762  0.05473  0.39856  1.0000
  H   H219      1.0  0.26541  0.46865  0.62375  1.0000
  C   C151      1.0  0.27215  0.35179  0.44879  1.0000
  C   C152      1.0  0.28782  0.35602  0.46664  1.0000
  C   C153      1.0  0.26685  0.36442  0.48208  1.0000
  C   C154      1.0  0.22975  0.36822  0.48009  1.0000
  C   C155      1.0  0.21358  0.36334  0.46239  1.0000
  C   C156      1.0  0.23485  0.35520  0.44668  1.0000
  H   H220      1.0  0.31653  0.35321  0.46844  1.0000
  H   H221      1.0  0.27956  0.36806  0.49567  1.0000
  H   H222      1.0  0.18493  0.36608  0.46078  1.0000
  H   H223      1.0  0.18575  0.41838  0.45029  1.0000
  H   H224      1.0  0.19602  0.49185  0.60560  1.0000
  H   H225      1.0  0.18320  0.45492  0.67538  1.0000
  H   H226      1.0  0.03825  0.04045  0.65461  1.0000
  S   S58       1.0  0.20139  0.39957  0.35995  1.0000
  H   H227      1.0  0.24919  0.20052  0.44615  1.0000
  C   C157      1.0  0.24455  0.48365  0.62354  1.0000
  H   H228      1.0  0.39363  0.31292  0.36469  1.0000
  C   C158      1.0  0.10977  0.02504  0.50886  1.0000
  H   H229      1.0  0.21567  0.17871  0.40541  1.0000
  C   C159      1.0  0.37902  0.07259  0.42541  1.0000
  C   C160      1.0  0.19898  0.50651  0.64309  1.0000
  Fe  Fe28      1.0  0.10097  0.01417  0.63894  1.0000
  H   H230      1.0  0.24932  0.18835  0.38959  1.0000
  H   H231      1.0  0.33385  0.24222  0.39800  1.0000
  C   C161      1.0  0.21035  0.42038  0.40902  1.0000
  N   N11       1.0  0.20393  0.29278  0.49757  1.0000
  C   C162      1.0  0.17628  0.31113  0.48969  1.0000
  C   C163      1.0  0.20879  0.29767  0.51872  1.0000
  C   C164      1.0  0.18864  0.26873  0.49556  1.0000
  C   C165      1.0  0.23805  0.29433  0.48610  1.0000
  C   C166      1.0  0.16510  0.30796  0.46844  1.0000
  C   C167      1.0  0.21854  0.32314  0.52359  1.0000
  C   C168      1.0  0.21177  0.24696  0.50303  1.0000
  C   C169      1.0  0.27365  0.28667  0.49642  1.0000
  H   H232      1.0  0.15153  0.31164  0.49862  1.0000
  H   H233      1.0  0.18606  0.32934  0.49051  1.0000
  H   H234      1.0  0.22972  0.28533  0.52536  1.0000
  H   H235      1.0  0.18379  0.29438  0.52682  1.0000
  H   H236      1.0  0.16238  0.26860  0.50312  1.0000
  H   H237      1.0  0.18305  0.26482  0.48023  1.0000
  H   H238      1.0  0.23694  0.28362  0.47274  1.0000
  H   H239      1.0  0.24123  0.31292  0.48089  1.0000
  H   H240      1.0  0.14698  0.29322  0.46693  1.0000
  H   H241      1.0  0.14953  0.32426  0.46336  1.0000
  H   H242      1.0  0.18840  0.30537  0.45869  1.0000
  H   H243      1.0  0.22983  0.32344  0.53840  1.0000
  H   H244      1.0  0.23843  0.33010  0.51352  1.0000
  H   H245      1.0  0.19428  0.33552  0.52343  1.0000
  H   H246      1.0  0.19557  0.23107  0.50243  1.0000
  H   H247      1.0  0.22007  0.24854  0.51827  1.0000
  H   H248      1.0  0.23526  0.24308  0.49362  1.0000
  H   H249      1.0  0.28050  0.29965  0.50753  1.0000
  H   H250      1.0  0.29566  0.28638  0.48568  1.0000
  H   H251      1.0  0.27391  0.26875  0.50310  1.0000
  Fe  Fe29      1.0  0.32976  0.15859  0.37285  1.0000
  H   H252      1.0  0.37212  0.04473  0.39346  1.0000
  C   C170      1.0  0.09480  0.04253  0.38777  1.0000
  C   C171      1.0  0.10190  0.03925  0.36605  1.0000
  H   H253      1.0  0.02396  0.02885  0.68579  1.0000
  H   H254      1.0  0.04391  0.08652  0.52274  1.0000
  H   H255      1.0  0.01245  0.21624  0.46836  1.0000
  H   H256      1.0  0.14539  0.43360  0.39152  1.0000
  C   C172      1.0  0.15661  0.42332  0.45045  1.0000
  H   H257      1.0  0.12459  0.02188  0.49520  1.0000
  H   H258      1.0  0.32721  0.09585  0.44927  1.0000
  H   H259      1.0  0.28164  0.08888  0.44804  1.0000
  N   N12       1.0  0.04992  0.04540  0.49592  1.0000
  H   H260      1.0  0.37134  0.27115  0.37251  1.0000
  Fe  Fe30      1.0  0.06555  0.50079  0.68413  1.0000
  H   H261      1.0  0.01642  0.22842  0.53271  1.0000
  H   H262      1.0  0.47735  0.05525  0.35946  1.0000
  H   H263      1.0  0.42274  0.04552  0.43163  1.0000
  C   C173      1.0  0.02027  0.08075  0.51474  1.0000
  C   C174      1.0  0.25931  0.49702  0.65595  1.0000
  C   C175      1.0  0.03117  0.06995  0.49511  1.0000
  C   C176      1.0  0.41671  0.06093  0.42179  1.0000
  H   H264      1.0  0.23084  0.47413  0.59422  1.0000
  H   H265      1.0  0.24715  0.22750  0.40132  1.0000
  H   H266      1.0  0.19464  0.39104  0.42637  1.0000
  H   H267      1.0  0.09953  0.06218  0.50175  1.0000
  H   H268      1.0  0.17525  0.49967  0.63585  1.0000
  C   C177      1.0  0.08385  0.04745  0.50748  1.0000
  H   H269      1.0  0.10029  0.37514  0.39699  1.0000
  H   H270      1.0  0.19226  0.46034  0.64354  1.0000
  C   C178      1.0  0.20117  0.24939  0.42777  1.0000
  H   H271      1.0  0.24887  0.27025  0.43053  1.0000
  H   H272      1.0  0.16388  0.20951  0.42294  1.0000
  H   H273      1.0  0.07915  0.42301  0.38190  1.0000
  H   H274      1.0  0.03657  0.49567  0.60776  1.0000
  C   C179      1.0  0.03758  0.10116  0.44794  1.0000
  H   H275      1.0  0.11231  0.43454  0.43221  1.0000
  C   C180      1.0  0.30953  0.08132  0.44595  1.0000
  H   H276      1.0  0.18975  0.51065  0.65792  1.0000
  C   C181      1.0  0.24666  0.21962  0.44161  1.0000
  H   H277      1.0  0.28962  0.06340  0.42162  1.0000
  C   C182      1.0  0.01277  0.05159  0.65310  1.0000
  C   C183      1.0  0.28428  0.22541  0.43437  1.0000
  H   H278      1.0  0.15247  0.23125  0.45345  1.0000
  N   N13       1.0  0.21587  0.22377  0.42759  1.0000
  C   C184      1.0  0.29172  0.47928  0.65985  1.0000
  H   H279      1.0  0.07424  0.41751  0.40688  1.0000
  C   C185      1.0  0.31382  0.07319  0.42486  1.0000
  S   S59       1.0  0.23478  0.34042  0.38588  1.0000
  Fe  Fe31      1.0  0.36617  0.10958  0.36713  1.0000
  H   H280      1.0  0.24127  0.22980  0.45507  1.0000
  H   H281      1.0  0.37871  0.07683  0.44101  1.0000
  S   S60       1.0  0.33923  0.19382  0.38628  1.0000
  Fe  Fe32      1.0  0.32331  0.35551  0.35896  1.0000
  H   H282      1.0  0.29984  0.20896  0.42981  1.0000
  H   H283      1.0  0.28414  0.46276  0.66717  1.0000
  H   H284      1.0  0.13037  0.02805  0.52001  1.0000
  H   H285      1.0  0.31137  0.08956  0.41569  1.0000
  C   C186      1.0  0.31546  0.04215  0.39043  1.0000
  C   C187      1.0  0.21689  0.47728  0.60817  1.0000
  H   H286      1.0  0.30998  0.02581  0.39865  1.0000
  N   N14       1.0  0.34768  0.05834  0.42008  1.0000
  H   H287      1.0  0.07777  0.02130  0.47592  1.0000
  H   H288      1.0  0.35674  0.03816  0.44660  1.0000
  C   C188      1.0  0.22570  0.21692  0.40721  1.0000
  C   C189      1.0  0.23821  0.19055  0.40433  1.0000
  H   H289      1.0  0.08506  0.25535  0.54676  1.0000
  H   H290      1.0  0.14480  0.36171  0.40181  1.0000
  H   H291      1.0  0.43675  0.07412  0.42499  1.0000
  H   H292      1.0  0.14007  0.37941  0.43560  1.0000
  H   H293      1.0  0.39495  0.22356  0.36270  1.0000
  H   H294      1.0  0.34811  0.07221  0.39093  1.0000
  H   H295      1.0  0.03698  0.20465  0.50087  1.0000
  H   H296      1.0  0.20273  0.48237  0.67954  1.0000
  S   S61       1.0  0.03929  0.49662  0.65523  1.0000
  H   H297      1.0  0.32034  0.02918  0.43253  1.0000
  C   C190      1.0  0.18421  0.40086  0.41336  1.0000
  H   H298      1.0  0.09898  0.39427  0.42934  1.0000
  H   H299      1.0  0.43799  0.29821  0.36211  1.0000
  C   C191      1.0  0.20784  0.46464  0.67314  1.0000
  H   H300      1.0  0.20360  0.43031  0.39548  1.0000
  C   C192      1.0  0.13080  0.41814  0.39666  1.0000
  H   H301      1.0  0.14239  0.40905  0.45774  1.0000
  H   H302      1.0  0.28457  0.23885  0.42271  1.0000
  H   H303      1.0  0.06380  0.10698  0.45145  1.0000
  C   C193      1.0  0.18597  0.20850  0.43381  1.0000
  C   C194      1.0  0.45357  0.09115  0.35903  1.0000
  C   C195      1.0  0.03366  0.08458  0.43318  1.0000
  H   H304      1.0  0.05704  0.07760  0.42547  1.0000
  H   H305      1.0  0.02825  0.47503  0.54592  1.0000
  C   C196      1.0  0.31285  0.21833  0.37741  1.0000
  H   H306      1.0  0.07881  0.06248  0.66811  1.0000
  H   H307      1.0  0.20256  0.22102  0.39731  1.0000
  C   C197      1.0  0.16895  0.21416  0.45364  1.0000
  H   H308      1.0  0.23759  0.41172  0.40702  1.0000
  C   C198      1.0  0.22599  0.26844  0.42058  1.0000
  H   H309      1.0  0.15043  0.20010  0.45733  1.0000
  S   S62       1.0  0.41372  0.08311  0.37012  1.0000
  H   H310      1.0  0.19354  0.25489  0.44261  1.0000
  H   H311      1.0  0.19551  0.18937  0.43469  1.0000
  H   H312      1.0  0.08729  0.44616  0.39894  1.0000
  H   H313      1.0  0.21226  0.43295  0.42110  1.0000
  S   S63       1.0  0.12130  0.49430  0.67223  1.0000
  H   H314      1.0  0.23532  0.26550  0.40561  1.0000
  Fe  Fe33      1.0  0.26647  0.31888  0.36414  1.0000
  H   H315      1.0  0.39339  0.01837  0.41392  1.0000
  H   H316      1.0  0.02841  0.09353  0.66704  1.0000
  H   H317      1.0  0.07735  0.05209  0.52267  1.0000
  H   H318      1.0  0.25853  0.49925  0.61807  1.0000
  H   H319      1.0  0.41543  0.25933  0.36732  1.0000
  H   H320      1.0  0.41462  0.29713  0.38438  1.0000
  H   H321      1.0  0.02663  0.04994  0.37005  1.0000
  H   H322      1.0  0.42116  0.05580  0.40659  1.0000
  Fe  Fe34      1.0  0.24524  0.37144  0.36654  1.0000
  H   H323      1.0  0.02261  0.18551  0.53510  1.0000
  H   H324      1.0  0.04861  0.08273  0.48796  1.0000
  H   H325      1.0  0.30667  0.47483  0.64647  1.0000
  C   C199      1.0  0.34805  0.03530  0.43148  1.0000
  H   H326      1.0  0.01869  0.06622  0.64281  1.0000
  H   H327      1.0  0.02089  0.18485  0.47043  1.0000
  H   H328      1.0  0.24882  0.50321  0.67014  1.0000
  N   N15       1.0  0.01766  0.50684  0.57923  1.0000
  S   S64       1.0  0.27637  0.14828  0.36204  1.0000
  H   H329      1.0  0.05981  0.50457  0.55764  1.0000
  C   C200      1.0  0.37133  0.01386  0.42356  1.0000
  C   C201      1.0  0.01585  0.50828  0.60098  1.0000
  H   H330      1.0  0.03024  0.02836  0.52153  1.0000
  C   C202      1.0  0.02796  0.02706  0.50555  1.0000
  H   H331      1.0  0.32122  0.03700  0.37528  1.0000
  C   C203      1.0  0.39478  0.27343  0.36293  1.0000
  H   H332      1.0  0.08239  0.08318  0.68702  1.0000
  C   C204      1.0  0.06599  0.06886  0.68165  1.0000
  H   H333      1.0  0.01736  0.46890  0.47882  1.0000
  H   H334      1.0  0.02327  0.24570  0.50102  1.0000
  H   H335      1.0  0.42531  0.43054  0.35870  1.0000
  C   C205      1.0  0.02732  0.07917  0.67821  1.0000
  S   S65       1.0  0.01130  0.13127  0.47657  1.0000
  H   H336      1.0  0.12415  0.02523  0.36518  1.0000
  H   H337      1.0  0.11439  0.05540  0.36042  1.0000
  H   H338      1.0  0.04141  0.01316  0.38843  1.0000
  H   H339      1.0  0.39320  0.04876  0.71096  1.0000
  H   H340      1.0  0.39083  0.01966  0.78374  1.0000
  H   H341      1.0  0.42542  0.04860  0.72924  1.0000
  H   H342      1.0  0.05480  0.50377  0.77749  1.0000
  H   H343      1.0  0.40943  0.49512  0.87457  1.0000
  H   H344      1.0  0.42722  0.02341  0.75591  1.0000
  H   H345      1.0  0.46059  0.01959  0.71675  1.0000
  H   H346      1.0  0.31850  0.49121  0.02236  1.0000
  C   C206      1.0  0.39656  0.04591  0.72681  1.0000
  H   H347      1.0  0.34822  0.06326  0.74080  1.0000
  H   H348      1.0  0.45122  0.50648  0.86817  1.0000
  C   C207      1.0  0.33150  0.02349  0.71116  1.0000
  C   C208      1.0  0.34874  0.01701  0.73093  1.0000
  H   H349      1.0  0.37398  0.08249  0.72737  1.0000
  C   C209      1.0  0.37617  0.06670  0.73718  1.0000
  H   H350      1.0  0.33225  0.02711  0.74166  1.0000
  N   N16       1.0  0.38812  0.02108  0.73283  1.0000
  H   H351      1.0  0.39060  0.07150  0.75045  1.0000
  S   S66       1.0  0.45167  0.50446  0.77913  1.0000
  H   H352      1.0  0.01373  0.47675  0.74886  1.0000
  C   C210      1.0  0.40115  0.01551  0.75315  1.0000
  H   H353      1.0  0.01932  0.08860  0.69159  1.0000
  C   C211      1.0  0.49270  0.01912  0.94305  1.0000
  C   C212      1.0  0.37605  0.02295  0.76993  1.0000
  S   S67       1.0  0.04788  0.48457  0.71232  1.0000
  H   H354      1.0  0.30281  0.01945  0.71163  1.0000
  H   H355      1.0  0.48491  0.03447  0.95233  1.0000
  H   H356      1.0  0.33241  0.04272  0.70768  1.0000
  H   H357      1.0  0.36694  0.04199  0.76945  1.0000
  C   C213      1.0  0.49725  0.49503  0.80969  1.0000
  H   H358      1.0  0.46491  0.30782  0.02135  1.0000
  H   H359      1.0  0.49260  0.47650  0.80730  1.0000
  H   H360      1.0  0.23385  0.50155  0.72065  1.0000
  H   H361      1.0  0.41755  0.50230  0.84988  1.0000
  H   H362      1.0  0.01298  0.49610  0.78743  1.0000
  H   H363      1.0  0.47856  0.02253  0.92908  1.0000
  C   C214      1.0  0.42212  0.50799  0.86489  1.0000
  H   H364      1.0  0.49820  0.04152  0.99140  1.0000
  H   H365      1.0  0.04617  0.50621  0.80318  1.0000
  H   H366      1.0  0.06742  0.05445  0.69272  1.0000
  C   C215      1.0  0.03445  0.50878  0.78853  1.0000
  H   H367      1.0  0.34357  0.01273  0.69930  1.0000
  H   H368      1.0  0.10407  0.99614  0.32906  1.0000
  H   H369      1.0  0.08435  0.53390  0.22506  1.0000
  S   S68       1.0  0.41095  0.64753  0.03121  1.0000
  Fe  Fe35      1.0  0.37099  0.61955  0.03581  1.0000
  H   H370      1.0  0.34894  0.71394  0.10105  1.0000
  C   C216      1.0  0.23480  0.95009  0.06846  1.0000
  C   C217      1.0  0.35802  0.71479  0.06168  1.0000
  S   S69       1.0  0.35082  0.60739  0.06520  1.0000
  H   H371      1.0  0.27370  0.96711  0.16543  1.0000
  H   H372      1.0  0.29701  0.68899  0.11400  1.0000
  Fe  Fe36      1.0  0.39867  0.98656  0.14727  1.0000
  C   C218      1.0  0.37976  0.73502  0.06957  1.0000
  S   S70       1.0  0.38531  0.95088  0.13456  1.0000
  C   C219      1.0  0.30152  0.96022  0.16861  1.0000
  H   H373      1.0  0.37748  0.65296  0.09839  1.0000
  H   H374      1.0  0.41060  0.68560  0.06815  1.0000
  C   C220      1.0  0.01760  0.99286  0.29640  1.0000
  H   H375      1.0  0.27966  0.68772  0.06898  1.0000
  C   C221      1.0  0.34161  0.95288  0.03704  1.0000
  S   S71       1.0  0.42979  0.91992  0.04911  1.0000
  H   H376      1.0  0.31353  0.98943  0.18676  1.0000
  C   C222      1.0  0.28755  0.55862  0.04565  1.0000
  H   H377      1.0  0.30151  0.88641  0.05170  1.0000
  H   H378      1.0  0.27990  0.87712  0.07300  1.0000
  H   H379      1.0  0.28075  0.91534  0.08767  1.0000
  H   H380      1.0  0.08555  0.54838  0.28971  1.0000
  C   C223      1.0  0.28299  0.89265  0.06325  1.0000
  H   H381      1.0  0.24362  0.96222  0.19274  1.0000
  H   H382      1.0  0.39518  0.64576  0.07486  1.0000
  H   H383      1.0  0.27053  0.96299  0.04762  1.0000
  C   C224      1.0  0.33598  0.67518  0.06350  1.0000
  S   S72       1.0  0.40741  0.99130  0.17923  1.0000
  H   H384      1.0  0.27470  0.95758  0.09931  1.0000
  C   C225      1.0  0.06013  0.52147  0.25971  1.0000
  C   C226      1.0  0.39886  0.94224  0.11098  1.0000
  C   C227      1.0  0.41662  0.95749  0.09872  1.0000
  C   C228      1.0  0.42622  0.95024  0.07993  1.0000
  C   C229      1.0  0.41795  0.92779  0.07310  1.0000
  C   C230      1.0  0.40022  0.91251  0.08536  1.0000
  C   C231      1.0  0.39077  0.91971  0.10419  1.0000
  H   H385      1.0  0.42292  0.97488  0.10371  1.0000
  H   H386      1.0  0.43994  0.96218  0.07060  1.0000
  H   H387      1.0  0.39411  0.89507  0.08039  1.0000
  H   H388      1.0  0.37725  0.90773  0.11360  1.0000
  C   C232      1.0  0.03155  0.53800  0.24933  1.0000
  H   H389      1.0  0.05463  0.52297  0.27532  1.0000
  H   H390      1.0  0.36748  0.74322  0.08261  1.0000
  N   N17       1.0  0.30183  0.93604  0.06391  1.0000
  H   H391      1.0  0.34672  0.95120  0.07804  1.0000
  H   H392      1.0  0.36220  0.97808  0.23891  1.0000
  H   H393      1.0  0.29672  0.69655  0.04556  1.0000
  H   H394      1.0  0.10006  0.56289  0.24800  1.0000
  H   H395      1.0  0.30378  0.94050  0.16813  1.0000
  H   H396      1.0  0.23357  0.95030  0.22765  1.0000
  H   H397      1.0  0.35419  0.56186  0.03336  1.0000
  H   H398      1.0  0.13985  0.52310  0.20927  1.0000
  H   H399      1.0  0.25661  0.99028  0.20036  1.0000
  H   H400      1.0  0.46736  0.00962  0.25226  1.0000
  C   C233      1.0  0.36404  0.58030  0.07747  1.0000
  C   C234      1.0  0.38974  0.56394  0.06988  1.0000
  C   C235      1.0  0.39821  0.54212  0.07953  1.0000
  C   C236      1.0  0.38160  0.53645  0.09705  1.0000
  C   C237      1.0  0.35630  0.55300  0.10483  1.0000
  C   C238      1.0  0.34756  0.57479  0.09506  1.0000
  H   H401      1.0  0.40310  0.56806  0.05655  1.0000
  H   H402      1.0  0.41786  0.52959  0.07337  1.0000
  N   N18       1.0  0.30298  0.54792  0.02739  1.0000
  H   H403      1.0  0.32769  0.58734  0.10111  1.0000
  H   H404      1.0  0.04792  0.99983  0.34553  1.0000
  C   C239      1.0  0.33332  0.70177  0.09231  1.0000
  H   H405      1.0  0.25661  0.52689  0.02566  1.0000
  N   N19       1.0  0.35446  0.69354  0.07489  1.0000
  C   C240      1.0  0.31541  0.96964  0.18782  1.0000
  H   H406      1.0  0.14810  0.54457  0.22721  1.0000
  H   H407      1.0  0.16195  0.51339  0.23079  1.0000
  C   C241      1.0  0.39679  0.65790  0.08727  1.0000
  C   C242      1.0  0.10321  0.52174  0.23348  1.0000
  H   H408      1.0  0.35163  0.53246  0.04136  1.0000
  C   C243      1.0  0.39185  0.68414  0.08055  1.0000
  H   H409      1.0  0.34304  0.67844  0.11770  1.0000
  H   H410      1.0  0.27897  0.92732  0.19657  1.0000
  H   H411      1.0  0.36829  0.95497  0.22166  1.0000
  H   H412      1.0  0.28487  0.92955  0.22144  1.0000
  H   H413      1.0  0.33474  0.65810  0.07148  1.0000
  H   H414      1.0  0.30899  0.71312  0.08812  1.0000
  H   H415      1.0  0.31837  0.96672  0.15671  1.0000
  H   H416      1.0  0.32963  0.90272  0.20048  1.0000
  S   S73       1.0  0.37030  0.86210  0.03908  1.0000
  H   H417      1.0  0.31507  0.66573  0.09974  1.0000
  H   H418      1.0  0.07072  0.57418  0.27541  1.0000
  H   H419      1.0  0.33139  0.72322  0.05752  1.0000
  H   H420      1.0  0.23339  0.93673  0.08018  1.0000
  H   H421      1.0  0.28219  0.55424  0.07658  1.0000
  C   C244      1.0  0.10901  0.55021  0.25978  1.0000
  H   H422      1.0  0.29916  0.57603  0.04844  1.0000
  H   H423      1.0  0.47714  0.00394  0.07713  1.0000
  C   C245      1.0  0.29741  0.68235  0.05682  1.0000
  H   H424      1.0  0.37106  0.70896  0.04800  1.0000
  H   H425      1.0  0.30313  0.99107  0.22500  1.0000
  C   C246      1.0  0.29689  0.93479  0.20749  1.0000
  C   C247      1.0  0.34314  0.54468  0.02937  1.0000
  H   H426      1.0  0.30450  0.96280  0.23678  1.0000
  C   C248      1.0  0.32808  0.93090  0.04773  1.0000
  H   H427      1.0  0.20968  0.94862  0.06009  1.0000
  C   C249      1.0  0.32198  0.68245  0.10661  1.0000
  C   C250      1.0  0.26702  0.94559  0.05491  1.0000
  S   S74       1.0  0.03910  0.99755  0.27405  1.0000
  H   H428      1.0  0.34547  0.91808  0.22115  1.0000
  H   H429      1.0  0.24489  0.97996  0.23466  1.0000
  H   H430      1.0  0.32044  0.53793  0.06750  1.0000
  C   C251      1.0  0.09365  0.56121  0.27863  1.0000
  H   H431      1.0  0.35168  0.67049  0.05035  1.0000
  H   H432      1.0  0.32458  0.90623  0.08076  1.0000
  H   H433      1.0  0.13873  0.55062  0.26043  1.0000
  H   H434      1.0  0.02435  0.95485  0.29332  1.0000
  H   H435      1.0  0.42405  0.65451  0.09349  1.0000
  H   H436      1.0  0.31429  0.93923  0.10633  1.0000
  H   H437      1.0  0.31637  0.91975  0.03647  1.0000
  H   H438      1.0  0.35296  0.92840  0.19677  1.0000
  C   C252      1.0  0.31303  0.97208  0.22345  1.0000
  H   H439      1.0  0.40273  0.69510  0.09219  1.0000
  H   H440      1.0  0.31958  0.96390  0.03004  1.0000
  H   H441      1.0  0.23456  0.96821  0.07466  1.0000
  H   H442      1.0  0.28599  0.66669  0.05007  1.0000
  C   C253      1.0  0.14055  0.52604  0.22508  1.0000
  H   H443      1.0  0.40812  0.72908  0.07243  1.0000
  H   H444      1.0  0.25866  0.93419  0.04286  1.0000
  H   H445      1.0  0.25623  0.89769  0.05701  1.0000
  H   H446      1.0  0.34328  0.54892  0.11828  1.0000
  H   H447      1.0  0.11434  0.57172  0.28544  1.0000
  H   H448      1.0  0.34451  0.96477  0.18819  1.0000
  H   H449      1.0  0.20746  0.97618  0.21949  1.0000
  N   N20       1.0  0.09861  0.52550  0.25491  1.0000
  C   C254      1.0  0.31711  0.95430  0.07692  1.0000
  H   H450      1.0  0.02742  0.53226  0.23428  1.0000
  C   C255      1.0  0.35419  0.97242  0.22432  1.0000
  C   C256      1.0  0.29808  0.91298  0.07484  1.0000
  H   H451      1.0  0.36395  0.98584  0.21410  1.0000
  H   H452      1.0  0.38008  0.74940  0.05844  1.0000
  C   C257      1.0  0.25811  0.97112  0.20437  1.0000
  H   H453      1.0  0.31551  0.97068  0.10515  1.0000
  C   C258      1.0  0.33347  0.92058  0.20654  1.0000
  H   H454      1.0  0.35219  0.92025  0.05313  1.0000
  Fe  Fe37      1.0  0.40893  0.88972  0.03134  1.0000
  C   C259      1.0  0.23524  0.96901  0.22275  1.0000
  N   N21       1.0  0.29672  0.96154  0.20577  1.0000
  H   H455      1.0  0.27580  0.52766  0.06374  1.0000
  H   H456      1.0  0.13440  0.52234  0.29307  1.0000
  H   H457      1.0  0.25818  0.56255  0.04427  1.0000
  H   H458      1.0  0.03800  0.55692  0.24944  1.0000
  C   C260      1.0  0.01339  0.96930  0.30210  1.0000
  C   C261      1.0  0.30410  0.95525  0.09801  1.0000
  H   H459      1.0  0.31242  0.97257  0.07068  1.0000
  C   C262      1.0  0.29216  0.54341  0.06419  1.0000
  S   S75       1.0  0.44589  0.00725  0.13928  1.0000
  H   H460      1.0  0.35737  0.96397  0.04658  1.0000
  S   S76       1.0  0.42472  0.79924  0.02692  1.0000
  H   H461      1.0  0.45079  0.75014  0.02715  1.0000
  H   H462      1.0  0.45741  0.00948  0.21676  1.0000
  H   H463      1.0  0.36015  0.94670  0.02543  1.0000
  H   H464      1.0  0.04439  0.67272  0.56789  1.0000
  S   S77       1.0  0.16793  0.55607  0.67490  1.0000
  H   H465      1.0  0.16357  0.91940  0.67581  1.0000
  Fe  Fe38      1.0  0.13806  0.97800  0.66747  1.0000
  H   H466      1.0  0.27880  0.89267  0.64091  1.0000
  Fe  Fe39      1.0  0.10003  0.96124  0.63148  1.0000
  S   S78       1.0  0.14538  0.98535  0.63564  1.0000
  S   S79       1.0  0.09616  0.95151  0.66278  1.0000
  H   H467      1.0  0.01605  0.54511  0.57604  1.0000
  N   N22       1.0  0.19736  0.90685  0.65228  1.0000
  H   H468      1.0  0.02626  0.75532  0.55517  1.0000
  C   C263      1.0  0.01459  0.57680  0.61085  1.0000
  H   H469      1.0  0.22609  0.54025  0.64184  1.0000
  H   H470      1.0  0.07222  0.90045  0.58094  1.0000
  H   H471      1.0  0.27036  0.51306  0.64928  1.0000
  Fe  Fe40      1.0  0.12018  0.53396  0.66870  1.0000
  C   C264      1.0  0.05485  0.66942  0.53745  1.0000
  S   S80       1.0  0.09676  0.53390  0.63869  1.0000
  C   C265      1.0  0.26232  0.88697  0.65322  1.0000
  C   C266      1.0  0.20537  0.54564  0.68905  1.0000
  C   C267      1.0  0.08231  0.52064  0.58229  1.0000
  H   H472      1.0  0.04613  0.71531  0.56560  1.0000
  C   C268      1.0  0.06040  0.00783  0.35832  1.0000
  Fe  Fe41      1.0  0.04286  0.53632  0.65291  1.0000
  H   H473      1.0  0.01299  0.65690  0.55494  1.0000
  C   C269      1.0  0.05080  0.90552  0.59080  1.0000
  H   H474      1.0  0.14842  0.92431  0.64072  1.0000
  H   H475      1.0  0.12321  0.88728  0.62709  1.0000
  S   S81       1.0  0.05667  0.99035  0.63275  1.0000
  H   H476      1.0  0.21274  0.86909  0.65310  1.0000
  C   C270      1.0  0.18316  0.90423  0.67249  1.0000
  H   H477      1.0  0.26726  0.89813  0.66582  1.0000
  H   H478      1.0  0.03153  0.59236  0.58406  1.0000
  H   H479      1.0  0.08435  0.51864  0.59818  1.0000
  C   C271      1.0  0.05689  0.92148  0.60570  1.0000
  H   H480      1.0  0.30186  0.97848  0.67266  1.0000
  C   C272      1.0  0.03349  0.00484  0.37485  1.0000
  C   C273      1.0  0.16572  0.90774  0.63863  1.0000
  H   H481      1.0  0.12346  0.88818  0.65267  1.0000
  C   C274      1.0  0.22260  0.88590  0.64708  1.0000
  H   H482      1.0  0.03367  0.93973  0.63021  1.0000
  S   S82       1.0  0.09898  0.93369  0.60806  1.0000
  H   H483      1.0  0.19496  0.94516  0.65513  1.0000
  H   H484      1.0  0.35434  0.00127  0.41614  1.0000
  C   C275      1.0  0.21417  0.93044  0.65042  1.0000
  H   H485      1.0  0.04104  0.66920  0.52330  1.0000
  H   H486      1.0  0.03127  0.98554  0.37787  1.0000
  H   H487      1.0  0.23578  0.98195  0.66756  1.0000
  H   H488      1.0  0.24356  0.95260  0.63092  1.0000
  H   H489      1.0  0.08452  0.99588  0.36171  1.0000
  H   H490      1.0  0.22305  0.88368  0.63113  1.0000
  C   C276      1.0  0.02685  0.71663  0.55328  1.0000
  H   H491      1.0  0.17462  0.90853  0.62334  1.0000
  H   H492      1.0  0.20351  0.94277  0.62058  1.0000
  C   C277      1.0  0.02922  0.92771  0.61852  1.0000
  C   C278      1.0  0.22665  0.93711  0.62999  1.0000
  C   C279      1.0  0.14123  0.88668  0.63989  1.0000
  H   H493      1.0  0.06950  0.65173  0.53932  1.0000
  H   H494      1.0  0.18107  0.54215  0.63345  1.0000
  H   H495      1.0  0.23746  0.93164  0.66012  1.0000
  H   H496      1.0  0.24277  0.92239  0.62310  1.0000
  C   C280      1.0  0.20631  0.53063  0.63352  1.0000
  H   H497      1.0  0.15648  0.86916  0.63992  1.0000
  S   S83       1.0  0.06621  0.54050  0.68248  1.0000
  H   H498      1.0  0.16828  0.88786  0.67407  1.0000
  Fe  Fe42      1.0  0.05602  0.98253  0.66459  1.0000
  C   C281      1.0  0.21100  0.90238  0.68890  1.0000
  H   H499      1.0  0.04135  0.57052  0.61521  1.0000
  H   H500      1.0  0.07484  0.53945  0.57838  1.0000
  C   C282      1.0  0.02834  0.67317  0.55430  1.0000
  H   H501      1.0  0.04339  0.71708  0.53999  1.0000
  H   H502      1.0  0.07538  0.68279  0.53729  1.0000
  C   C283      1.0  0.28429  0.97245  0.68381  1.0000
  C   C284      1.0  0.02247  0.92026  0.53634  1.0000
  H   H503      1.0  0.02220  0.52629  0.60593  1.0000
  C   C285      1.0  0.24684  0.97445  0.68089  1.0000
  H   H504      1.0  0.03901  0.00879  0.50201  1.0000
  H   H505      1.0  0.22705  0.88513  0.68860  1.0000
  C   C286      1.0  0.23635  0.55857  0.68909  1.0000
  H   H506      1.0  0.23711  0.57455  0.68030  1.0000
  H   H507      1.0  0.02514  0.91618  0.55191  1.0000
  H   H508      1.0  0.01454  0.96487  0.54835  1.0000
  H   H509      1.0  0.01237  0.88387  0.57709  1.0000
  H   H510      1.0  0.38390  0.00360  0.43587  1.0000
  H   H511      1.0  0.27322  0.86869  0.65707  1.0000
  H   H512      1.0  0.04142  0.93378  0.53215  1.0000
  H   H513      1.0  0.03083  0.90367  0.52856  1.0000
  H   H514      1.0  0.10967  0.51635  0.57661  1.0000
  H   H515      1.0  0.22877  0.91732  0.68890  1.0000
  S   S84       1.0  0.09699  0.00866  0.67126  1.0000
  H   H516      1.0  0.21481  0.52889  0.61830  1.0000
  C   C287      1.0  0.01697  0.89616  0.58858  1.0000
  H   H517      1.0  0.09623  0.00893  0.51332  1.0000
  H   H518      1.0  0.04771  0.55092  0.85764  1.0000
  C   C288      1.0  0.09136  0.59768  0.91689  1.0000
  C   C289      1.0  0.47658  0.94648  0.83336  1.0000
  Fe  Fe43      1.0  0.42928  0.62534  0.00572  1.0000
  C   C290      1.0  0.02582  0.63163  0.92742  1.0000
  S   S85       1.0  0.48754  0.61556  0.99940  1.0000
  Fe  Fe44      1.0  0.35394  0.61750  0.99264  1.0000
  S   S86       1.0  0.32561  0.59696  0.97011  1.0000
  S   S87       1.0  0.39230  0.64500  0.98456  1.0000
  C   C291      1.0  0.23881  0.95708  0.71248  1.0000
  Fe  Fe45      1.0  0.19857  0.66081  0.86440  1.0000
  S   S88       1.0  0.14886  0.65920  0.88207  1.0000
  S   S89       1.0  0.22483  0.69473  0.85666  1.0000
  Fe  Fe46      1.0  0.20776  0.60687  0.86191  1.0000
  S   S90       1.0  0.15897  0.60104  0.87978  1.0000
  S   S91       1.0  0.24025  0.57526  0.85042  1.0000
  Fe  Fe47      1.0  0.13340  0.63087  0.86171  1.0000
  S   S92       1.0  0.07761  0.63433  0.84889  1.0000
  Fe  Fe48      1.0  0.17926  0.62984  0.89838  1.0000
  S   S93       1.0  0.17837  0.63261  0.93081  1.0000
  S   S94       1.0  0.18093  0.63479  0.84251  1.0000
  S   S95       1.0  0.23015  0.63310  0.88196  1.0000
  Fe  Fe49      1.0  0.41811  0.53226  0.76200  1.0000
  S   S96       1.0  0.42856  0.57099  0.76178  1.0000
  Fe  Fe50      1.0  0.35054  0.54007  0.73647  1.0000
  S   S97       1.0  0.35658  0.57946  0.73443  1.0000
  Fe  Fe51      1.0  0.41549  0.56976  0.73026  1.0000
  S   S98       1.0  0.44681  0.59276  0.71029  1.0000
  Fe  Fe52      1.0  0.36949  0.57702  0.76602  1.0000
  S   S99       1.0  0.34869  0.60529  0.78654  1.0000
  C   C292      1.0  0.01679  0.60165  0.90267  1.0000
  S   S100      1.0  0.35975  0.53834  0.76855  1.0000
  Fe  Fe53      1.0  0.42146  0.94875  0.76613  1.0000
  S   S101      1.0  0.41502  0.91163  0.77705  1.0000
  C   C293      1.0  0.20010  0.59122  0.75119  1.0000
  Fe  Fe54      1.0  0.37200  0.94237  0.73098  1.0000
  S   S102      1.0  0.36415  0.90436  0.73898  1.0000
  H   H519      1.0  0.32107  0.79985  0.76433  1.0000
  Fe  Fe55      1.0  0.35716  0.91847  0.76895  1.0000
  S   S103      1.0  0.30688  0.90912  0.78408  1.0000
  Fe  Fe56      1.0  0.42293  0.90125  0.74609  1.0000
  S   S104      1.0  0.46083  0.86884  0.74162  1.0000
  S   S105      1.0  0.36242  0.95673  0.76068  1.0000
  S   S106      1.0  0.43191  0.93810  0.73543  1.0000
  Fe  Fe57      1.0  0.20497  0.87323  0.90578  1.0000
  S   S107      1.0  0.24129  0.84014  0.90463  1.0000
  S   S108      1.0  0.20145  0.89843  0.93080  1.0000
  Fe  Fe58      1.0  0.17507  0.86684  0.86498  1.0000
  S   S109      1.0  0.21005  0.83335  0.86055  1.0000
  Fe  Fe59      1.0  0.19447  0.82383  0.89071  1.0000
  S   S110      1.0  0.17157  0.78920  0.89942  1.0000
  Fe  Fe60      1.0  0.25334  0.85298  0.87467  1.0000
  S   S111      1.0  0.31019  0.85500  0.86435  1.0000
  S   S112      1.0  0.15675  0.85609  0.89434  1.0000
  S   S113      1.0  0.21985  0.88728  0.87663  1.0000
  H   H520      1.0  0.39405  0.80767  0.96215  1.0000
  Fe  Fe61      1.0  0.34207  0.87356  0.01143  1.0000
  S   S114      1.0  0.37180  0.84676  0.99284  1.0000
  S   S115      1.0  0.28319  0.88423  0.01079  1.0000
  H   H521      1.0  0.49642  0.95546  0.98880  1.0000
  C   C294      1.0  0.35227  0.75235  0.00982  1.0000
  Fe  Fe62      1.0  0.41088  0.87512  0.98868  1.0000
  S   S116      1.0  0.42953  0.88358  0.95853  1.0000
  H   H522      1.0  0.29732  0.61760  0.75317  1.0000
  S   S117      1.0  0.37827  0.90267  0.00495  1.0000
  H   H523      1.0  0.46032  0.98894  0.71065  1.0000
  C   C295      1.0  0.47142  0.89593  0.95625  1.0000
  C   C296      1.0  0.48181  0.90477  0.93826  1.0000
  H   H524      1.0  0.38924  0.85258  0.80746  1.0000
  H   H525      1.0  0.27363  0.61124  0.73194  1.0000
  C   C297      1.0  0.40211  0.57624  0.86296  1.0000
  H   H526      1.0  0.39331  0.79489  0.78612  1.0000
  H   H527      1.0  0.46374  0.90451  0.92608  1.0000
  H   H528      1.0  0.06551  0.54985  0.73540  1.0000
  H   H529      1.0  0.22135  0.95095  0.72366  1.0000
  H   H530      1.0  0.46496  0.93333  0.84251  1.0000
  C   C298      1.0  0.22526  0.89332  0.95262  1.0000
  C   C299      1.0  0.25065  0.87414  0.95540  1.0000
  C   C300      1.0  0.26971  0.87152  0.97300  1.0000
  C   C301      1.0  0.26243  0.88765  0.98798  1.0000
  C   C302      1.0  0.23665  0.90646  0.98520  1.0000
  C   C303      1.0  0.21860  0.90948  0.96755  1.0000
  H   H531      1.0  0.25541  0.86131  0.94410  1.0000
  H   H532      1.0  0.28907  0.85664  0.97521  1.0000
  H   H533      1.0  0.23060  0.91883  0.99674  1.0000
  H   H534      1.0  0.19891  0.92424  0.96555  1.0000
  H   H535      1.0  0.09651  0.89353  0.87269  1.0000
  H   H536      1.0  0.35447  0.82271  0.82959  1.0000
  H   H537      1.0  0.43808  0.82682  0.77708  1.0000
  C   C304      1.0  0.30870  0.89608  0.80718  1.0000
  C   C305      1.0  0.34102  0.89194  0.81727  1.0000
  C   C306      1.0  0.34155  0.87953  0.83502  1.0000
  C   C307      1.0  0.30973  0.87151  0.84271  1.0000
  C   C308      1.0  0.27748  0.87623  0.83280  1.0000
  C   C309      1.0  0.27699  0.88843  0.81509  1.0000
  H   H538      1.0  0.36553  0.89800  0.81127  1.0000
  H   H539      1.0  0.36653  0.87603  0.84273  1.0000
  H   H540      1.0  0.25283  0.87009  0.83856  1.0000
  H   H541      1.0  0.25194  0.89161  0.80735  1.0000
  C   C310      1.0  0.36848  0.77370  0.01384  1.0000
  C   C311      1.0  0.27146  0.61137  0.74791  1.0000
  C   C312      1.0  0.40802  0.00379  0.71953  1.0000
  H   H542      1.0  0.13101  0.79341  0.84155  1.0000
  H   H543      1.0  0.09084  0.63397  0.90729  1.0000
  H   H544      1.0  0.25289  0.51970  0.77303  1.0000
  H   H545      1.0  0.03173  0.90600  0.87533  1.0000
  H   H546      1.0  0.04552  0.94653  0.82025  1.0000
  C   C313      1.0  0.27616  0.95498  0.71537  1.0000
  C   C314      1.0  0.37141  0.73013  0.01196  1.0000
  S   S118      1.0  0.44478  0.86402  0.01429  1.0000
  H   H547      1.0  0.39185  0.53101  0.01512  1.0000
  C   C315      1.0  0.50457  0.95941  0.84051  1.0000
  H   H548      1.0  0.24590  0.58701  0.01904  1.0000
  S   S119      1.0  0.30207  0.52032  0.72693  1.0000
  C   C316      1.0  0.20894  0.72125  0.86788  1.0000
  C   C317      1.0  0.22651  0.74225  0.86469  1.0000
  C   C318      1.0  0.21513  0.76336  0.87415  1.0000
  C   C319      1.0  0.18628  0.76345  0.88692  1.0000
  C   C320      1.0  0.16866  0.74252  0.89003  1.0000
  C   C321      1.0  0.17978  0.72157  0.88044  1.0000
  H   H549      1.0  0.24910  0.74213  0.85498  1.0000
  H   H550      1.0  0.22892  0.77945  0.87172  1.0000
  H   H551      1.0  0.14631  0.74252  0.89990  1.0000
  H   H552      1.0  0.16594  0.70568  0.88295  1.0000
  C   C322      1.0  0.27269  0.58355  0.83395  1.0000
  C   C323      1.0  0.29241  0.56598  0.82364  1.0000
  C   C324      1.0  0.31656  0.57247  0.80938  1.0000
  C   C325      1.0  0.32106  0.59652  0.80540  1.0000
  C   C326      1.0  0.30249  0.61403  0.81631  1.0000
  C   C327      1.0  0.27821  0.60757  0.83052  1.0000
  H   H553      1.0  0.28843  0.54737  0.82643  1.0000
  H   H554      1.0  0.33139  0.55886  0.80144  1.0000
  H   H555      1.0  0.30616  0.63267  0.81344  1.0000
  H   H556      1.0  0.26336  0.62122  0.83860  1.0000
  H   H557      1.0  0.49224  0.51678  0.73337  1.0000
  H   H558      1.0  0.09196  0.53625  0.77107  1.0000
  C   C328      1.0  0.26621  0.55119  0.70065  1.0000
  S   S120      1.0  0.40884  0.53026  0.72991  1.0000
  H   H559      1.0  0.03578  0.78309  0.86204  1.0000
  H   H560      1.0  0.07037  0.63666  0.94747  1.0000
  C   C329      1.0  0.41064  0.56942  0.82120  1.0000
  H   H561      1.0  0.48418  0.98182  0.94030  1.0000
  C   C330      1.0  0.28543  0.60834  0.95923  1.0000
  C   C331      1.0  0.27714  0.60083  0.94064  1.0000
  C   C332      1.0  0.24457  0.60847  0.93181  1.0000
  C   C333      1.0  0.21956  0.62318  0.94172  1.0000
  C   C334      1.0  0.22756  0.63048  0.96045  1.0000
  C   C335      1.0  0.26072  0.62341  0.96908  1.0000
  H   H562      1.0  0.29598  0.58897  0.93305  1.0000
  H   H563      1.0  0.23847  0.60241  0.91751  1.0000
  H   H564      1.0  0.20824  0.64179  0.96822  1.0000
  H   H565      1.0  0.26679  0.62910  0.98349  1.0000
  C   C336      1.0  0.22390  0.96662  0.69521  1.0000
  C   C337      1.0  0.49864  0.89053  0.71289  1.0000
  C   C338      1.0  0.46635  0.59306  0.96664  1.0000
  H   H566      1.0  0.02916  0.67770  0.88025  1.0000
  H   H567      1.0  0.31885  0.86502  0.75142  1.0000
  C   C339      1.0  0.39630  0.83641  0.79881  1.0000
  H   H568      1.0  0.36363  0.54960  0.99983  1.0000
  H   H569      1.0  0.43943  0.59967  0.97019  1.0000
  H   H570      1.0  0.35226  0.51950  0.00526  1.0000
  H   H571      1.0  0.39065  0.58422  0.82447  1.0000
  N   N23       1.0  0.26265  0.69783  0.92593  1.0000
  C   C340      1.0  0.26383  0.67930  0.91036  1.0000
  C   C341      1.0  0.23146  0.69342  0.93895  1.0000
  C   C342      1.0  0.29653  0.69636  0.93779  1.0000
  C   C343      1.0  0.25865  0.72212  0.91651  1.0000
  C   C344      1.0  0.29703  0.67840  0.89717  1.0000
  C   C345      1.0  0.19396  0.69945  0.93026  1.0000
  C   C346      1.0  0.30605  0.67210  0.94775  1.0000
  C   C347      1.0  0.25478  0.74359  0.93021  1.0000
  H   H572      1.0  0.26166  0.66109  0.91657  1.0000
  H   H573      1.0  0.24026  0.68215  0.90059  1.0000
  H   H574      1.0  0.23320  0.70306  0.95279  1.0000
  H   H575      1.0  0.23204  0.67436  0.94335  1.0000
  H   H576      1.0  0.31989  0.70114  0.92898  1.0000
  H   H577      1.0  0.29479  0.70977  0.94950  1.0000
  H   H578      1.0  0.28227  0.72530  0.90737  1.0000
  H   H579      1.0  0.23611  0.72347  0.90606  1.0000
  H   H580      1.0  0.29431  0.66423  0.88635  1.0000
  H   H581      1.0  0.29917  0.69520  0.88886  1.0000
  H   H582      1.0  0.32217  0.67374  0.90522  1.0000
  H   H583      1.0  0.17345  0.69397  0.94068  1.0000
  H   H584      1.0  0.18890  0.71885  0.92761  1.0000
  H   H585      1.0  0.18970  0.68957  0.91681  1.0000
  H   H586      1.0  0.30873  0.65719  0.93744  1.0000
  H   H587      1.0  0.28619  0.66816  0.95898  1.0000
  H   H588      1.0  0.33227  0.67279  0.95522  1.0000
  H   H589      1.0  0.28142  0.75005  0.93379  1.0000
  H   H590      1.0  0.24079  0.73977  0.94380  1.0000
  H   H591      1.0  0.23818  0.75828  0.92308  1.0000
  N   N24       1.0  0.09219  0.94460  0.78728  1.0000
  C   C348      1.0  0.11594  0.93860  0.80451  1.0000
  C   C349      1.0  0.06390  0.96340  0.79325  1.0000
  C   C350      1.0  0.11311  0.95413  0.77068  1.0000
  C   C351      1.0  0.07574  0.92227  0.78080  1.0000
  C   C352      1.0  0.14927  0.92166  0.80089  1.0000
  H   H592      1.0  0.42827  0.96568  0.96461  1.0000
  C   C353      1.0  0.13506  0.97569  0.77523  1.0000
  H   H593      1.0  0.50543  0.55781  0.73845  1.0000
  H   H594      1.0  0.12539  0.95501  0.81114  1.0000
  H   H595      1.0  0.10063  0.93010  0.81615  1.0000
  H   H596      1.0  0.05033  0.97219  0.78053  1.0000
  H   H597      1.0  0.07625  0.97817  0.80083  1.0000
  H   H598      1.0  0.13161  0.93995  0.76449  1.0000
  H   H599      1.0  0.09483  0.95986  0.75854  1.0000
  H   H600      1.0  0.09686  0.90849  0.77672  1.0000
  H   H601      1.0  0.06141  0.91372  0.79272  1.0000
  H   H602      1.0  0.16514  0.91978  0.81446  1.0000
  H   H603      1.0  0.14197  0.90346  0.79722  1.0000
  H   H604      1.0  0.16729  0.92850  0.78977  1.0000
  H   H605      1.0  0.40460  0.56349  0.80639  1.0000
  C   C354      1.0  0.44325  0.96318  0.97839  1.0000
  H   H606      1.0  0.28979  0.56137  0.70065  1.0000
  C   C355      1.0  0.45866  0.55314  0.85694  1.0000
  C   C356      1.0  0.49782  0.87163  0.72611  1.0000
  C   C357      1.0  0.44935  0.81687  0.96365  1.0000
  H   H607      1.0  0.34843  0.56795  0.85151  1.0000
  H   H608      1.0  0.10856  0.56928  0.81736  1.0000
  H   H609      1.0  0.49701  0.54298  0.76050  1.0000
  N   N25       1.0  0.34125  0.89752  0.91283  1.0000
  C   C358      1.0  0.35690  0.90582  0.89402  1.0000
  C   C359      1.0  0.30123  0.89776  0.91001  1.0000
  C   C360      1.0  0.35656  0.87242  0.91677  1.0000
  C   C361      1.0  0.35189  0.91417  0.92845  1.0000
  C   C362      1.0  0.39820  0.90435  0.89276  1.0000
  C   C363      1.0  0.28208  0.92244  0.90607  1.0000
  C   C364      1.0  0.33597  0.85698  0.93089  1.0000
  C   C365      1.0  0.33398  0.91191  0.94837  1.0000
  H   H610      1.0  0.34695  0.89542  0.88172  1.0000
  H   H611      1.0  0.34821  0.92472  0.89082  1.0000
  H   H612      1.0  0.28756  0.89014  0.92255  1.0000
  H   H613      1.0  0.29473  0.88598  0.89786  1.0000
  H   H614      1.0  0.35835  0.86212  0.90311  1.0000
  H   H615      1.0  0.38445  0.87256  0.92243  1.0000
  H   H616      1.0  0.38118  0.91181  0.93129  1.0000
  H   H617      1.0  0.34808  0.93314  0.92368  1.0000
  H   H618      1.0  0.40610  0.91101  0.87833  1.0000
  H   H619      1.0  0.41043  0.91575  0.90355  1.0000
  H   H620      1.0  0.40989  0.88579  0.89413  1.0000
  H   H621      1.0  0.28700  0.93524  0.91765  1.0000
  H   H622      1.0  0.28921  0.92985  0.89181  1.0000
  H   H623      1.0  0.25274  0.92056  0.90567  1.0000
  H   H624      1.0  0.33020  0.86571  0.94479  1.0000
  H   H625      1.0  0.35249  0.84031  0.93415  1.0000
  H   H626      1.0  0.31074  0.85158  0.92430  1.0000
  H   H627      1.0  0.34982  0.89918  0.95789  1.0000
  H   H628      1.0  0.30598  0.90689  0.94780  1.0000
  H   H629      1.0  0.33244  0.92955  0.95543  1.0000
  H   H630      1.0  0.25177  0.62222  0.78474  1.0000
  N   N26       1.0  0.36458  0.82976  0.78694  1.0000
  H   H631      1.0  0.49075  0.94975  0.96388  1.0000
  C   C366      1.0  0.33289  0.82870  0.80029  1.0000
  C   C367      1.0  0.03449  0.95492  0.80678  1.0000
  C   C368      1.0  0.37410  0.80631  0.77719  1.0000
  H   H632      1.0  0.45143  0.99866  0.95392  1.0000
  H   H633      1.0  0.08292  0.56619  0.76333  1.0000
  H   H634      1.0  0.43780  0.57618  0.82093  1.0000
  C   C369      1.0  0.34306  0.79044  0.77257  1.0000
  H   H635      1.0  0.02591  0.59433  0.88853  1.0000
  H   H636      1.0  0.21990  0.61826  0.80317  1.0000
  H   H637      1.0  0.30912  0.82227  0.79289  1.0000
  C   C370      1.0  0.50990  0.82977  0.96676  1.0000
  C   C371      1.0  0.32299  0.84816  0.75986  1.0000
  C   C372      1.0  0.01786  0.53436  0.78553  1.0000
  H   H638      1.0  0.38854  0.80929  0.76342  1.0000
  H   H639      1.0  0.02492  0.54225  0.74630  1.0000
  H   H640      1.0  0.19909  0.61089  0.75102  1.0000
  H   H641      1.0  0.02861  0.91253  0.76473  1.0000
  H   H642      1.0  0.08061  0.61421  0.88906  1.0000
  H   H643      1.0  0.40130  0.00779  0.70416  1.0000
  C   C373      1.0  0.40394  0.77302  0.02031  1.0000
  N   N27       1.0  0.06823  0.81340  0.86475  1.0000
  H   H644      1.0  0.29838  0.84679  0.76852  1.0000
  N   N28       1.0  0.03521  0.62412  0.90712  1.0000
  H   H645      1.0  0.46909  0.53998  0.88688  1.0000
  H   H646      1.0  0.41357  0.59152  0.85531  1.0000
  C   C374      1.0  0.07484  0.61852  0.90441  1.0000
  S   S121      1.0  0.13981  0.87844  0.83944  1.0000
  H   H647      1.0  0.03662  0.66013  0.94723  1.0000
  C   C375      1.0  0.04276  0.90061  0.86154  1.0000
  C   C376      1.0  0.43056  0.84118  0.78740  1.0000
  C   C377      1.0  0.29915  0.96258  0.70102  1.0000
  Fe  Fe63      1.0  0.37080  0.66505  0.01038  1.0000
  H   H648      1.0  0.24749  0.58035  0.79320  1.0000
  H   H649      1.0  0.07571  0.59051  0.80803  1.0000
  C   C378      1.0  0.48525  0.53664  0.80153  1.0000
  C   C379      1.0  0.49506  0.89619  0.97187  1.0000
  C   C380      1.0  0.05211  0.64755  0.93771  1.0000
  Fe  Fe64      1.0  0.40330  0.83720  0.01977  1.0000
  S   S122      1.0  0.34639  0.96021  0.70417  1.0000
  C   C381      1.0  0.08906  0.76919  0.86949  1.0000
  C   C382      1.0  0.40801  0.54824  0.83534  1.0000
  H   H650      1.0  0.15619  0.97133  0.78616  1.0000
  H   H651      1.0  0.40435  0.82208  0.80944  1.0000
  C   C383      1.0  0.02047  0.90130  0.84517  1.0000
  H   H652      1.0  0.04061  0.84817  0.85997  1.0000
  C   C384      1.0  0.40725  0.72950  0.01788  1.0000
  H   H653      1.0  0.11704  0.77450  0.86972  1.0000
  C   C385      1.0  0.03789  0.82919  0.85622  1.0000
  C   C386      1.0  0.07941  0.89346  0.86009  1.0000
  C   C387      1.0  0.47758  0.96772  0.80268  1.0000
  C   C388      1.0  0.46320  0.95055  0.81456  1.0000
  H   H654      1.0  0.48728  0.88955  0.98581  1.0000
  H   H655      1.0  0.44143  0.94059  0.80942  1.0000
  C   C389      1.0  0.48410  0.96304  0.97528  1.0000
  S   S123      1.0  0.46128  0.97317  0.77890  1.0000
  C   C390      1.0  0.48737  0.80312  0.99105  1.0000
  H   H656      1.0  0.25295  0.58363  0.99386  1.0000
  H   H657      1.0  0.44824  0.82194  0.94813  1.0000
  H   H658      1.0  0.12097  0.59833  0.91710  1.0000
  C   C391      1.0  0.48076  0.99556  0.95174  1.0000
  H   H659      1.0  0.28180  0.54351  0.77482  1.0000
  C   C392      1.0  0.35701  0.84947  0.77224  1.0000
  N   N29       1.0  0.41842  0.55273  0.85598  1.0000
  H   H660      1.0  0.23789  0.55906  0.00732  1.0000
  H   H661      1.0  0.49484  0.99405  0.00054  1.0000
  C   C393      1.0  0.09388  0.88678  0.84226  1.0000
  H   H662      1.0  0.39986  0.98539  0.72228  1.0000
  H   H663      1.0  0.14415  0.82261  0.83626  1.0000
  H   H664      1.0  0.32453  0.75304  0.00529  1.0000
  H   H665      1.0  0.24575  0.54064  0.79197  1.0000
  H   H666      1.0  0.40672  0.99599  0.75516  1.0000
  H   H667      1.0  0.06752  0.78536  0.84344  1.0000
  H   H668      1.0  0.08879  0.75194  0.86189  1.0000
  C   C394      1.0  0.03909  0.56842  0.85209  1.0000
  H   H669      1.0  0.37944  0.85039  0.76178  1.0000
  C   C395      1.0  0.20466  0.52509  0.70053  1.0000
  C   C396      1.0  0.05090  0.60985  0.84641  1.0000
  C   C397      1.0  0.06979  0.54948  0.76686  1.0000
  C   C398      1.0  0.40520  0.53324  0.86866  1.0000
  C   C399      1.0  0.29525  0.56584  0.01124  1.0000
  H   H670      1.0  0.05543  0.83846  0.82706  1.0000
  C   C400      1.0  0.06573  0.55306  0.80200  1.0000
  H   H671      1.0  0.42483  0.78354  0.95637  1.0000
  H   H672      1.0  0.32393  0.84684  0.80509  1.0000
  C   C401      1.0  0.50579  0.56426  0.69862  1.0000
  H   H673      1.0  0.04127  0.80561  0.89161  1.0000
  H   H674      1.0  0.28714  0.94740  0.72870  1.0000
  H   H675      1.0  0.27507  0.57359  0.74386  1.0000
  N   N30       1.0  0.04421  0.55345  0.78350  1.0000
  H   H676      1.0  0.46722  0.57213  0.88424  1.0000
  H   H677      1.0  0.17942  0.59474  0.72182  1.0000
  H   H678      1.0  0.03668  0.94286  0.76193  1.0000
  H   H679      1.0  0.10237  0.81396  0.82750  1.0000
  C   C402      1.0  0.22785  0.55363  0.76310  1.0000
  H   H680      1.0  0.28792  0.52190  0.00670  1.0000
  H   H681      1.0  0.25066  0.62504  0.75216  1.0000
  C   C403      1.0  0.22564  0.58829  0.78391  1.0000
  H   H682      1.0  0.06932  0.66431  0.89004  1.0000
  C   C404      1.0  0.07142  0.88678  0.82605  1.0000
  C   C405      1.0  0.26703  0.58586  0.75583  1.0000
  S   S124      1.0  0.39255  0.59629  0.01199  1.0000
  H   H683      1.0  0.46805  0.56835  0.84836  1.0000
  C   C406      1.0  0.02193  0.98309  0.71635  1.0000
  C   C407      1.0  0.36073  0.57946  0.86210  1.0000
  H   H684      1.0  0.30481  0.55857  0.99718  1.0000
  H   H685      1.0  0.08237  0.88092  0.81238  1.0000
  H   H686      1.0  0.28778  0.58224  0.76720  1.0000
  S   S125      1.0  0.34854  0.70378  0.00842  1.0000
  C   C408      1.0  0.03361  0.82929  0.83416  1.0000
  H   H687      1.0  0.47504  0.81842  0.99924  1.0000
  H   H688      1.0  0.37571  0.53224  0.86700  1.0000
  C   C409      1.0  0.47519  0.55502  0.87722  1.0000
  H   H689      1.0  0.45927  0.99672  0.73542  1.0000
  H   H690      1.0  0.20378  0.62567  0.77966  1.0000
  H   H691      1.0  0.04769  0.55315  0.81470  1.0000
  N   N31       1.0  0.23056  0.58034  0.76334  1.0000
  N   N32       1.0  0.49901  0.98665  0.97011  1.0000
  H   H692      1.0  0.03110  0.81135  0.82814  1.0000
  H   H693      1.0  0.48644  0.84849  0.94096  1.0000
  H   H694      1.0  0.34397  0.99801  0.73410  1.0000
  H   H695      1.0  0.50172  0.59384  0.74981  1.0000
  H   H696      1.0  0.06814  0.83904  0.91062  1.0000
  H   H697      1.0  0.47605  0.90341  0.71169  1.0000
  H   H698      1.0  0.04242  0.59205  0.78136  1.0000
  C   C410      1.0  0.47251  0.57961  0.94992  1.0000
  H   H699      1.0  0.33197  0.78261  0.78586  1.0000
  H   H700      1.0  0.45326  0.84238  0.79762  1.0000
  H   H701      1.0  0.47108  0.55044  0.79309  1.0000
  H   H702      1.0  0.40915  0.53718  0.88420  1.0000
  C   C411      1.0  0.06226  0.84006  0.89491  1.0000
  C   C412      1.0  0.22524  0.61522  0.78761  1.0000
  H   H703      1.0  0.43349  0.97662  0.98901  1.0000
  H   H704      1.0  0.38032  0.54222  0.83426  1.0000
  H   H705      1.0  0.50413  0.62366  0.70722  1.0000
  C   C413      1.0  0.20004  0.58359  0.72994  1.0000
  H   H706      1.0  0.35504  0.86706  0.77948  1.0000
  H   H707      1.0  0.31011  0.58218  0.01349  1.0000
  C   C414      1.0  0.49222  0.58694  0.70409  1.0000
  H   H708      1.0  0.08034  0.76603  0.88454  1.0000
  H   H709      1.0  0.03474  0.84845  0.89318  1.0000
  H   H710      1.0  0.43671  0.94545  0.98418  1.0000
  H   H711      1.0  0.06817  0.65851  0.92817  1.0000
  H   H712      1.0  0.47067  0.78819  0.99469  1.0000
  C   C415      1.0  0.06193  0.58723  0.85359  1.0000
  C   C416      1.0  0.33911  0.81324  0.81866  1.0000
  H   H713      1.0  0.10846  0.57586  0.79206  1.0000
  C   C417      1.0  0.01518  0.98271  0.73630  1.0000
  H   H714      1.0  0.06317  0.52117  0.74580  1.0000
  H   H715      1.0  0.01778  0.89400  0.81489  1.0000
  H   H716      1.0  0.45018  0.57599  0.94071  1.0000
  H   H717      1.0  0.08147  0.85180  0.88822  1.0000
  H   H718      1.0  0.20036  0.58185  0.78995  1.0000
  C   C418      1.0  0.09093  0.57348  0.80469  1.0000
  C   C419      1.0  0.42043  0.79881  0.96620  1.0000
  H   H719      1.0  0.08234  0.59850  0.93207  1.0000
  H   H720      1.0  0.19288  0.56487  0.72846  1.0000
  H   H721      1.0  0.35259  0.01182  0.77055  1.0000
  H   H722      1.0  0.22610  0.58602  0.72293  1.0000
  C   C420      1.0  0.06371  0.78796  0.85914  1.0000
  C   C421      1.0  0.03489  0.89412  0.82745  1.0000
  S   S126      1.0  0.17667  0.96717  0.69215  1.0000
  H   H723      1.0  0.12490  0.81752  0.87019  1.0000
  C   C422      1.0  0.10419  0.82193  0.85892  1.0000
  H   H724      1.0  0.32612  0.83375  0.74916  1.0000
  H   H725      1.0  0.20020  0.54885  0.76678  1.0000
  H   H726      1.0  0.04653  0.98974  0.71093  1.0000
  H   H727      1.0  0.47167  0.53697  0.85024  1.0000
  H   H728      1.0  0.42769  0.85849  0.77959  1.0000
  H   H729      1.0  0.17392  0.58679  0.75748  1.0000
  H   H730      1.0  0.31285  0.80999  0.82535  1.0000
  H   H731      1.0  0.01720  0.94255  0.79943  1.0000
  H   H732      1.0  0.08536  0.58027  0.91070  1.0000
  H   H733      1.0  0.01182  0.82438  0.86246  1.0000
  H   H734      1.0  0.10283  0.84163  0.85787  1.0000
  C   C423      1.0  0.12074  0.81225  0.83995  1.0000
  H   H735      1.0  0.08792  0.58426  0.86037  1.0000
  H   H736      1.0  0.08871  0.80524  0.89363  1.0000
  H   H737      1.0  0.35317  0.79576  0.81560  1.0000
  C   C424      1.0  0.06511  0.81475  0.88645  1.0000
  H   H738      1.0  0.34891  0.57574  0.87642  1.0000
  H   H739      1.0  0.44012  0.83318  0.97164  1.0000
  H   H740      1.0  0.14882  0.98119  0.76187  1.0000
  H   H741      1.0  0.35348  0.77527  0.76365  1.0000
  N   N33       1.0  0.48699  0.80884  0.96975  1.0000
  H   H742      1.0  0.42233  0.71255  0.01959  1.0000
  H   H743      1.0  0.11770  0.99123  0.77994  1.0000
  H   H744      1.0  0.03468  0.98915  0.74616  1.0000
  C   C425      1.0  0.50170  0.78832  0.95769  1.0000
  H   H745      1.0  0.40933  0.57894  0.87832  1.0000
  H   H746      1.0  0.50484  0.55435  0.87587  1.0000
  H   H747      1.0  0.08299  0.53628  0.80342  1.0000
  H   H748      1.0  0.02414  0.61559  0.93689  1.0000
  H   H749      1.0  0.23323  0.54653  0.74841  1.0000
  C   C426      1.0  0.05034  0.92500  0.76322  1.0000
  C   C427      1.0  0.49496  0.59812  0.97859  1.0000
  C   C428      1.0  0.26548  0.53059  0.71209  1.0000
  H   H750      1.0  0.06506  0.92123  0.74960  1.0000
  H   H751      1.0  0.19669  0.90307  0.70293  1.0000
  H   H752      1.0  0.48748  0.89144  0.79204  1.0000
  H   H753      1.0  0.41778  0.79266  0.98133  1.0000
  C   C429      1.0  0.42332  0.75084  0.02216  1.0000
  H   H754      1.0  0.42509  0.53322  0.82926  1.0000
  H   H755      1.0  0.35236  0.59805  0.85770  1.0000
  C   C430      1.0  0.25372  0.53885  0.77662  1.0000
  C   C431      1.0  0.49158  0.00373  0.98646  1.0000
  C   C432      1.0  0.49242  0.76295  0.96410  1.0000
  C   C433      1.0  0.50560  0.98073  0.80978  1.0000
  H   H756      1.0  0.48845  0.54958  0.69875  1.0000
  C   C434      1.0  0.25555  0.57410  0.00795  1.0000
  C   C435      1.0  0.05429  0.54020  0.74784  1.0000
  H   H757      1.0  0.02400  0.58737  0.91350  1.0000
  C   C436      1.0  0.04011  0.66662  0.89253  1.0000
  H   H758      1.0  0.50161  0.92052  0.76749  1.0000
  S   S127      1.0  0.32928  0.63865  0.01679  1.0000
  H   H759      1.0  0.35322  0.79062  0.01238  1.0000
  C   C437      1.0  0.23467  0.51751  0.71184  1.0000
  H   H760      1.0  0.46780  0.76187  0.97273  1.0000
  H   H761      1.0  0.46315  0.01088  0.98598  1.0000
  C   C438      1.0  0.50723  0.57085  0.94505  1.0000
  H   H762      1.0  0.48866  0.75207  0.95107  1.0000
  C   C439      1.0  0.47922  0.51276  0.79827  1.0000
  H   H763      1.0  0.18083  0.51517  0.70086  1.0000
  H   H764      1.0  0.01665  0.97053  0.81100  1.0000
  C   C440      1.0  0.02384  0.57741  0.78183  1.0000
  C   C441      1.0  0.01719  0.61345  0.83756  1.0000
  C   C442      1.0  0.02179  0.64290  0.89266  1.0000
  H   H765      1.0  0.02385  0.63576  0.87780  1.0000
  C   C443      1.0  0.28582  0.52516  0.02250  1.0000
  C   C444      1.0  0.44935  0.00253  0.72091  1.0000
  H   H766      1.0  0.03398  0.67694  0.90574  1.0000
  C   C445      1.0  0.36339  0.53562  0.01125  1.0000
  H   H767      1.0  0.01585  0.58295  0.75059  1.0000
  H   H768      1.0  0.49302  0.79093  0.94239  1.0000
  H   H769      1.0  0.50044  0.84491  0.97606  1.0000
  H   H770      1.0  0.50993  0.93351  0.73738  1.0000
  Fe  Fe65      1.0  0.77916  0.35141  0.16674  1.0000
  S   S128      1.0  0.75136  0.32595  0.18576  1.0000
  S   S129      1.0  0.77346  0.34419  0.13497  1.0000
  Fe  Fe66      1.0  0.80874  0.37800  0.20091  1.0000
  S   S130      1.0  0.78219  0.35478  0.22240  1.0000
  S   S131      1.0  0.83762  0.40731  0.21531  1.0000
  Fe  Fe67      1.0  0.80154  0.32474  0.20342  1.0000
  S   S132      1.0  0.82620  0.29119  0.21714  1.0000
  Fe  Fe68      1.0  0.73472  0.35827  0.20270  1.0000
  S   S133      1.0  0.67697  0.36550  0.21072  1.0000
  S   S134      1.0  0.83150  0.34747  0.18317  1.0000
  S   S135      1.0  0.75907  0.38415  0.18257  1.0000
  Fe  Fe69      1.0  0.54269  0.36485  0.05355  1.0000
  S   S136      1.0  0.57712  0.39451  0.04493  1.0000
  H   H771      1.0  0.55507  0.09534  0.22465  1.0000
  Fe  Fe70      1.0  0.60265  0.32604  0.04909  1.0000
  H   H772      1.0  0.88910  0.38828  0.18716  1.0000
  Fe  Fe71      1.0  0.61811  0.37530  0.06436  1.0000
  S   S137      1.0  0.64542  0.39601  0.08722  1.0000
  S   S138      1.0  0.58221  0.34739  0.07434  1.0000
  Fe  Fe72      1.0  0.60350  0.39838  0.30337  1.0000
  S   S139      1.0  0.62165  0.42831  0.28548  1.0000
  S   S140      1.0  0.64015  0.36562  0.29944  1.0000
  Fe  Fe73      1.0  0.54073  0.42877  0.31884  1.0000
  S   S141      1.0  0.55525  0.46137  0.30185  1.0000
  H   H773      1.0  0.92822  0.03930  0.27273  1.0000
  Fe  Fe74      1.0  0.56414  0.43578  0.27749  1.0000
  N   N34       1.0  0.54535  0.02844  0.07196  1.0000
  Fe  Fe75      1.0  0.61192  0.45092  0.31140  1.0000
  S   S142      1.0  0.65763  0.47516  0.31605  1.0000
  S   S143      1.0  0.54624  0.40393  0.29374  1.0000
  S   S144      1.0  0.59700  0.42030  0.33015  1.0000
  Fe  Fe76      1.0  0.58604  0.08290  0.31142  1.0000
  H   H774      1.0  0.67792  0.03978  0.19010  1.0000
  Fe  Fe77      1.0  0.62484  0.07726  0.27318  1.0000
  S   S145      1.0  0.63921  0.09262  0.24432  1.0000
  S   S146      1.0  0.56694  0.07926  0.28108  1.0000
  S   S147      1.0  0.64400  0.08488  0.30305  1.0000
  Fe  Fe78      1.0  0.57871  0.11674  0.07127  1.0000
  S   S148      1.0  0.62406  0.09320  0.05982  1.0000
  C   C446      1.0  0.83984  0.05406  0.29818  1.0000
  Fe  Fe79      1.0  0.58545  0.15337  0.03889  1.0000
  H   H775      1.0  0.71242  0.41915  0.30678  1.0000
  Fe  Fe80      1.0  0.65174  0.12683  0.05539  1.0000
  S   S149      1.0  0.70848  0.13084  0.06545  1.0000
  S   S150      1.0  0.62228  0.28729  0.05444  1.0000
  S   S151      1.0  0.60822  0.15011  0.06878  1.0000
  Fe  Fe81      1.0  0.77857  0.12829  0.16993  1.0000
  S   S152      1.0  0.76960  0.16409  0.18358  1.0000
  S   S153      1.0  0.73036  0.11391  0.15539  1.0000
  Fe  Fe82      1.0  0.85544  0.12164  0.18547  1.0000
  S   S154      1.0  0.85223  0.15674  0.20050  1.0000
  S   S155      1.0  0.90587  0.09720  0.18550  1.0000
  Fe  Fe83      1.0  0.79737  0.14693  0.20923  1.0000
  S   S156      1.0  0.77459  0.15342  0.23871  1.0000
  Fe  Fe84      1.0  0.82486  0.17062  0.17349  1.0000
  S   S157      1.0  0.83573  0.20541  0.15914  1.0000
  S   S158      1.0  0.80272  0.11041  0.19656  1.0000
  S   S159      1.0  0.83187  0.13624  0.15745  1.0000
  C   C447      1.0  0.93421  0.11675  0.21806  1.0000
  C   C448      1.0  0.93966  0.10109  0.20270  1.0000
  H   H776      1.0  0.90869  0.12658  0.21973  1.0000
  H   H777      1.0  0.82039  0.37924  0.33925  1.0000
  C   C449      1.0  0.71520  0.12450  0.09020  1.0000
  C   C450      1.0  0.68714  0.11730  0.10174  1.0000
  C   C451      1.0  0.69246  0.11346  0.12163  1.0000
  C   C452      1.0  0.72556  0.11732  0.13020  1.0000
  C   C453      1.0  0.75368  0.12446  0.11866  1.0000
  C   C454      1.0  0.74861  0.12773  0.09867  1.0000
  H   H778      1.0  0.66127  0.11474  0.09537  1.0000
  H   H779      1.0  0.67065  0.10785  0.13041  1.0000
  H   H780      1.0  0.77936  0.12730  0.12510  1.0000
  H   H781      1.0  0.77046  0.13313  0.08978  1.0000
  H   H782      1.0  0.94948  0.30406  0.25292  1.0000
  C   C455      1.0  0.51150  0.01736  0.20992  1.0000
  H   H783      1.0  0.90846  0.34342  0.19589  1.0000
  H   H784      1.0  0.82999  0.10827  0.25411  1.0000
  N   N35       1.0  0.60255  0.07984  0.18243  1.0000
  C   C456      1.0  0.67498  0.11118  0.24306  1.0000
  C   C457      1.0  0.69187  0.11403  0.22531  1.0000
  C   C458      1.0  0.72174  0.12767  0.22389  1.0000
  C   C459      1.0  0.73474  0.13870  0.24018  1.0000
  C   C460      1.0  0.71663  0.13706  0.25773  1.0000
  C   C461      1.0  0.68691  0.12304  0.25926  1.0000
  H   H785      1.0  0.68243  0.10523  0.21267  1.0000
  H   H786      1.0  0.73476  0.12939  0.21014  1.0000
  H   H787      1.0  0.72605  0.14616  0.27023  1.0000
  H   H788      1.0  0.67327  0.12136  0.27289  1.0000
  H   H789      1.0  0.61922  0.20038  0.05391  1.0000
  H   H790      1.0  0.94287  0.20831  0.18427  1.0000
  C   C462      1.0  0.51634  0.09566  0.10403  1.0000
  C   C463      1.0  0.95218  0.34693  0.23574  1.0000
  H   H791      1.0  0.82590  0.08991  0.30761  1.0000
  C   C464      1.0  0.74171  0.40703  0.25608  1.0000
  H   H792      1.0  0.70767  0.49113  0.25247  1.0000
  H   H793      1.0  0.52684  0.28446  0.10137  1.0000
  H   H794      1.0  0.84617  0.10152  0.27794  1.0000
  H   H795      1.0  0.95839  0.02443  0.20294  1.0000
  S   S160      1.0  0.55229  0.43846  0.24542  1.0000
  H   H796      1.0  0.80877  0.06962  0.26324  1.0000
  H   H797      1.0  0.61316  0.12348  0.14648  1.0000
  H   H798      1.0  0.61689  0.04747  0.19889  1.0000
  S   S161      1.0  0.56227  0.18943  0.02745  1.0000
  H   H799      1.0  0.77642  0.04287  0.28181  1.0000
  H   H800      1.0  0.56073  0.27516  0.08422  1.0000
  H   H801      1.0  0.70503  0.48803  0.27816  1.0000
  N   N36       1.0  0.69974  0.44242  0.24418  1.0000
  C   C465      1.0  0.51951  0.30060  0.07193  1.0000
  H   H802      1.0  0.88944  0.42760  0.23984  1.0000
  C   C466      1.0  0.94148  0.41829  0.22774  1.0000
  C   C467      1.0  0.58753  0.05026  0.15554  1.0000
  S   S162      1.0  0.56021  0.34139  0.02877  1.0000
  C   C468      1.0  0.58103  0.42282  0.17855  1.0000
  H   H803      1.0  0.93936  0.15477  0.19351  1.0000
  H   H804      1.0  0.65226  0.41766  0.21929  1.0000
  C   C469      1.0  0.83214  0.26789  0.20066  1.0000
  C   C470      1.0  0.84135  0.24478  0.20748  1.0000
  C   C471      1.0  0.84248  0.22552  0.19480  1.0000
  C   C472      1.0  0.83579  0.22941  0.17512  1.0000
  C   C473      1.0  0.82810  0.25267  0.16818  1.0000
  C   C474      1.0  0.82578  0.27186  0.18097  1.0000
  H   H805      1.0  0.84637  0.24165  0.22270  1.0000
  H   H806      1.0  0.84825  0.20771  0.20034  1.0000
  H   H807      1.0  0.82295  0.25581  0.15297  1.0000
  H   H808      1.0  0.81879  0.28969  0.17557  1.0000
  C   C475      1.0  0.73657  0.35817  0.12243  1.0000
  C   C476      1.0  0.72381  0.34763  0.10572  1.0000
  C   C477      1.0  0.69529  0.35880  0.09506  1.0000
  C   C478      1.0  0.68003  0.38093  0.10077  1.0000
  C   C479      1.0  0.69280  0.39149  0.11746  1.0000
  C   C480      1.0  0.72065  0.38001  0.12841  1.0000
  H   H809      1.0  0.73615  0.33082  0.10097  1.0000
  H   H810      1.0  0.68570  0.35056  0.08220  1.0000
  H   H811      1.0  0.68137  0.40871  0.12180  1.0000
  H   H812      1.0  0.73069  0.38844  0.14106  1.0000
  C   C481      1.0  0.66633  0.36334  0.23526  1.0000
  C   C482      1.0  0.69034  0.35230  0.24860  1.0000
  C   C483      1.0  0.68183  0.35226  0.26834  1.0000
  C   C484      1.0  0.64958  0.36353  0.27471  1.0000
  C   C485      1.0  0.62549  0.37418  0.26126  1.0000
  C   C486      1.0  0.63370  0.37391  0.24159  1.0000
  H   H813      1.0  0.71545  0.34394  0.24375  1.0000
  H   H814      1.0  0.70049  0.34399  0.27871  1.0000
  H   H815      1.0  0.60042  0.38272  0.26600  1.0000
  H   H816      1.0  0.61499  0.38245  0.23135  1.0000
  C   C487      1.0  0.76200  0.01751  0.33780  1.0000
  H   H817      1.0  0.90206  0.19255  0.18245  1.0000
  H   H818      1.0  0.56268  0.05363  0.18283  1.0000
  S   S163      1.0  0.64230  0.35278  0.04072  1.0000
  H   H819      1.0  0.71655  0.46976  0.22451  1.0000
  C   C488      1.0  0.94114  0.39633  0.19799  1.0000
  C   C489      1.0  0.90354  0.39661  0.19851  1.0000
  C   C490      1.0  0.88474  0.40773  0.21366  1.0000
  H   H820      1.0  0.77781  0.43797  0.30052  1.0000
  H   H821      1.0  0.51547  0.38978  0.12827  1.0000
  N   N37       1.0  0.73045  0.24206  0.21744  1.0000
  C   C491      1.0  0.71976  0.26772  0.21214  1.0000
  C   C492      1.0  0.74774  0.23103  0.19977  1.0000
  C   C493      1.0  0.75741  0.24232  0.23365  1.0000
  C   C494      1.0  0.69744  0.22999  0.22371  1.0000
  C   C495      1.0  0.70595  0.28391  0.22871  1.0000
  C   C496      1.0  0.72296  0.22864  0.18219  1.0000
  C   C497      1.0  0.77627  0.21833  0.23997  1.0000
  C   C498      1.0  0.70004  0.20238  0.22481  1.0000
  H   H822      1.0  0.74280  0.27655  0.20558  1.0000
  H   H823      1.0  0.69826  0.26883  0.20100  1.0000
  H   H824      1.0  0.76064  0.21313  0.20261  1.0000
  H   H825      1.0  0.77005  0.24169  0.19490  1.0000
  H   H826      1.0  0.77883  0.25441  0.22989  1.0000
  H   H827      1.0  0.74462  0.24969  0.24695  1.0000
  H   H828      1.0  0.68866  0.23635  0.23818  1.0000
  H   H829      1.0  0.67441  0.23534  0.21404  1.0000
  H   H830      1.0  0.72785  0.28785  0.23879  1.0000
  H   H831      1.0  0.69569  0.30138  0.22253  1.0000
  H   H832      1.0  0.68358  0.27646  0.23672  1.0000
  H   H833      1.0  0.71366  0.24623  0.17604  1.0000
  H   H834      1.0  0.73848  0.21912  0.17066  1.0000
  H   H835      1.0  0.69978  0.21803  0.18560  1.0000
  H   H836      1.0  0.75742  0.20614  0.24642  1.0000
  H   H837      1.0  0.79583  0.22175  0.25153  1.0000
  H   H838      1.0  0.79208  0.20938  0.22837  1.0000
  H   H839      1.0  0.69653  0.19622  0.23994  1.0000
  H   H840      1.0  0.72533  0.19360  0.21961  1.0000
  H   H841      1.0  0.67815  0.19519  0.21622  1.0000
  N   N38       1.0  0.70004  0.19836  0.10664  1.0000
  C   C499      1.0  0.68622  0.18161  0.12169  1.0000
  C   C500      1.0  0.74030  0.19431  0.10639  1.0000
  C   C501      1.0  0.68440  0.19207  0.08737  1.0000
  C   C502      1.0  0.68797  0.22343  0.11219  1.0000
  C   C503      1.0  0.64528  0.17935  0.12208  1.0000
  C   C504      1.0  0.75975  0.19911  0.12546  1.0000
  C   C505      1.0  0.70482  0.19915  0.06911  1.0000
  C   C506      1.0  0.70263  0.24403  0.10032  1.0000
  H   H842      1.0  0.69858  0.16332  0.11973  1.0000
  H   H843      1.0  0.69395  0.18681  0.13648  1.0000
  H   H844      1.0  0.75281  0.20511  0.09513  1.0000
  H   H845      1.0  0.74793  0.17561  0.10233  1.0000
  H   H846      1.0  0.68258  0.17244  0.08632  1.0000
  H   H847      1.0  0.65636  0.19978  0.08584  1.0000
  H   H848      1.0  0.65832  0.22611  0.11109  1.0000
  H   H849      1.0  0.69335  0.22673  0.12770  1.0000
  H   H850      1.0  0.63886  0.16707  0.13407  1.0000
  H   H851      1.0  0.63027  0.19660  0.12471  1.0000
  H   H852      1.0  0.63535  0.17132  0.10871  1.0000
  H   H853      1.0  0.75387  0.18599  0.13691  1.0000
  H   H854      1.0  0.96773  0.21859  0.14581  1.0000
  H   H855      1.0  0.84455  0.34820  0.25616  1.0000
  H   H856      1.0  0.71005  0.21823  0.06852  1.0000
  H   H857      1.0  0.73029  0.18806  0.06766  1.0000
  H   H858      1.0  0.78913  0.19705  0.12302  1.0000
  H   H859      1.0  0.68524  0.24871  0.08767  1.0000
  H   H860      1.0  0.73056  0.24073  0.09549  1.0000
  H   H861      1.0  0.70324  0.26002  0.10954  1.0000
  H   H862      1.0  0.89522  0.14828  0.12914  1.0000
  N   N39       1.0  0.94475  0.03117  0.24341  1.0000
  C   C507      1.0  0.96192  0.11971  0.23138  1.0000
  N   N40       1.0  0.78166  0.07951  0.28989  1.0000
  C   C508      1.0  0.81159  0.07374  0.30412  1.0000
  C   C509      1.0  0.75941  0.10075  0.29724  1.0000
  C   C510      1.0  0.68032  0.47612  0.33844  1.0000
  C   C511      1.0  0.75996  0.05799  0.28807  1.0000
  C   C512      1.0  0.73817  0.09667  0.31582  1.0000
  H   H863      1.0  0.78186  0.48109  0.31009  1.0000
  C   C513      1.0  0.72639  0.06089  0.27506  1.0000
  H   H864      1.0  0.61449  0.03730  0.10515  1.0000
  H   H865      1.0  0.80066  0.06768  0.31816  1.0000
  H   H866      1.0  0.74013  0.10783  0.28619  1.0000
  H   H867      1.0  0.77647  0.11577  0.30025  1.0000
  H   H868      1.0  0.75217  0.45423  0.23729  1.0000
  H   H869      1.0  0.77282  0.09123  0.26031  1.0000
  H   H870      1.0  0.57036  0.05360  0.05294  1.0000
  H   H871      1.0  0.75227  0.05082  0.30233  1.0000
  H   H872      1.0  0.72159  0.11318  0.31917  1.0000
  H   H873      1.0  0.71947  0.08236  0.31422  1.0000
  H   H874      1.0  0.75615  0.09283  0.32834  1.0000
  H   H875      1.0  0.63794  0.08596  0.15811  1.0000
  H   H876      1.0  0.74344  0.45036  0.31570  1.0000
  H   H877      1.0  0.99651  0.06237  0.25823  1.0000
  H   H878      1.0  0.82823  0.03646  0.29718  1.0000
  H   H879      1.0  0.71073  0.07799  0.27696  1.0000
  C   C514      1.0  0.92546  0.31569  0.21760  1.0000
  N   N41       1.0  0.92112  0.33108  0.23529  1.0000
  H   H880      1.0  0.66574  0.48498  0.26424  1.0000
  C   C515      1.0  0.92319  0.31456  0.25259  1.0000
  H   H881      1.0  0.66040  0.40688  0.18103  1.0000
  H   H882      1.0  0.86084  0.05220  0.30957  1.0000
  H   H883      1.0  0.73333  0.05883  0.25959  1.0000
  H   H884      1.0  0.78395  0.44308  0.35605  1.0000
  H   H885      1.0  0.70091  0.06342  0.34633  1.0000
  H   H886      1.0  0.53802  0.39486  0.19996  1.0000
  C   C516      1.0  0.92276  0.14732  0.13527  1.0000
  C   C517      1.0  0.88579  0.34550  0.23370  1.0000
  C   C518      1.0  0.92895  0.19247  0.18907  1.0000
  H   H887      1.0  0.86488  0.33447  0.22761  1.0000
  C   C519      1.0  0.54265  0.29039  0.08898  1.0000
  S   S164      1.0  0.55882  0.10687  0.10092  1.0000
  H   H888      1.0  0.91348  0.04360  0.21846  1.0000
  H   H889      1.0  0.95552  0.38760  0.18627  1.0000
  C   C520      1.0  0.90380  0.41885  0.22812  1.0000
  H   H890      1.0  0.62008  0.44208  0.21714  1.0000
  H   H891      1.0  0.74455  0.38730  0.25525  1.0000
  C   C521      1.0  0.81894  0.41727  0.33017  1.0000
  C   C522      1.0  0.62108  0.09607  0.16870  1.0000
  H   H892      1.0  0.53458  0.50145  0.09922  1.0000
  C   C523      1.0  0.92142  0.15720  0.15592  1.0000
  H   H893      1.0  0.99051  0.17269  0.14096  1.0000
  C   C524      1.0  0.54744  0.43990  0.17572  1.0000
  Fe  Fe85      1.0  0.64711  0.04508  0.30748  1.0000
  H   H894      1.0  0.77154  0.39706  0.30766  1.0000
  N   N42       1.0  0.77906  0.42326  0.32966  1.0000
  H   H895      1.0  0.66259  0.44475  0.20621  1.0000
  S   S165      1.0  0.58993  0.04359  0.31780  1.0000
  S   S166      1.0  0.63169  0.03758  0.27666  1.0000
  Fe  Fe86      1.0  0.57461  0.04007  0.28649  1.0000
  C   C525      1.0  0.88635  0.05856  0.24308  1.0000
  H   H896      1.0  0.94752  0.19969  0.12941  1.0000
  C   C526      1.0  0.56276  0.23841  0.02820  1.0000
  H   H897      1.0  0.93231  0.37730  0.25333  1.0000
  H   H898      1.0  0.68130  0.06798  0.17848  1.0000
  H   H899      1.0  0.56261  0.10762  0.19067  1.0000
  H   H900      1.0  0.95764  0.13198  0.24317  1.0000
  C   C527      1.0  0.97613  0.18095  0.15350  1.0000
  C   C528      1.0  0.96030  0.40686  0.21273  1.0000
  C   C529      1.0  0.92697  0.46948  0.32816  1.0000
  C   C530      1.0  0.86981  0.35651  0.25240  1.0000
  C   C531      1.0  0.72983  0.03180  0.33617  1.0000
  C   C532      1.0  0.57477  0.06601  0.17249  1.0000
  H   H901      1.0  0.88752  0.35552  0.26514  1.0000
  C   C533      1.0  0.97273  0.08809  0.20095  1.0000
  H   H902      1.0  0.68843  0.19539  0.05624  1.0000
  C   C534      1.0  0.59642  0.11352  0.15658  1.0000
  H   H903      1.0  0.57630  0.02680  0.24337  1.0000
  H   H904      1.0  0.59916  0.03273  0.16082  1.0000
  C   C535      1.0  0.57844  0.21663  0.03533  1.0000
  C   C536      1.0  0.97954  0.02774  0.23254  1.0000
  H   H905      1.0  0.64257  0.44373  0.24914  1.0000
  H   H906      1.0  0.53779  0.50033  0.07314  1.0000
  C   C537      1.0  0.71914  0.40689  0.31909  1.0000
  C   C538      1.0  0.70506  0.41589  0.24754  1.0000
  H   H907      1.0  0.95598  0.42650  0.23914  1.0000
  H   H908      1.0  0.76180  0.42603  0.21444  1.0000
  H   H909      1.0  0.64159  0.23883  0.06428  1.0000
  C   C539      1.0  0.95215  0.48547  0.33367  1.0000
  H   H910      1.0  0.86640  0.30563  0.25291  1.0000
  H   H911      1.0  0.68926  0.44563  0.27491  1.0000
  H   H912      1.0  0.96514  0.12428  0.17042  1.0000
  H   H913      1.0  0.90804  0.14403  0.16508  1.0000
  H   H914      1.0  0.76412  0.38639  0.33109  1.0000
  H   H915      1.0  0.61710  0.36825  0.16426  1.0000
  H   H916      1.0  0.54831  0.45463  0.18622  1.0000
  C   C540      1.0  0.95176  0.16928  0.18537  1.0000
  H   H917      1.0  0.52590  0.46511  0.06092  1.0000
  C   C541      1.0  0.66273  0.05367  0.18132  1.0000
  H   H918      1.0  0.52221  0.43111  0.17839  1.0000
  H   H919      1.0  0.57748  0.10411  0.14754  1.0000
  H   H920      1.0  0.92470  0.19429  0.20485  1.0000
  H   H921      1.0  0.97775  0.17183  0.19260  1.0000
  H   H922      1.0  0.93630  0.06596  0.23001  1.0000
  H   H923      1.0  0.54652  0.44816  0.16113  1.0000
  H   H924      1.0  0.59218  0.06077  0.09157  1.0000
  C   C542      1.0  0.98007  0.13914  0.16440  1.0000
  H   H925      1.0  0.75376  0.21751  0.13060  1.0000
  H   H926      1.0  0.56411  0.04713  0.14623  1.0000
  H   H927      1.0  0.97714  0.07591  0.18911  1.0000
  H   H928      1.0  0.60075  0.42331  0.14271  1.0000
  H   H929      1.0  0.86230  0.37572  0.24977  1.0000
  N   N43       1.0  0.95713  0.16226  0.16460  1.0000
  H   H930      1.0  0.54085  0.07353  0.20836  1.0000
  H   H931      1.0  0.64509  0.45394  0.35393  1.0000
  C   C543      1.0  0.95274  0.03865  0.26366  1.0000
  N   N44       1.0  0.58270  0.40095  0.16619  1.0000
  H   H932      1.0  0.98684  0.13384  0.14937  1.0000
  H   H933      1.0  0.53331  0.06581  0.34320  1.0000
  H   H934      1.0  0.91377  0.44358  0.30706  1.0000
  H   H935      1.0  0.60662  0.05875  0.14592  1.0000
  H   H936      1.0  0.89156  0.06740  0.25689  1.0000
  C   C544      1.0  0.70502  0.45412  0.26342  1.0000
  H   H937      1.0  0.60449  0.43356  0.17571  1.0000
  C   C545      1.0  0.55065  0.38643  0.16950  1.0000
  H   H938      1.0  0.70170  0.40577  0.23419  1.0000
  H   H939      1.0  0.58325  0.41794  0.19414  1.0000
  H   H940      1.0  0.51881  0.36911  0.19100  1.0000
  H   H941      1.0  0.65556  0.04542  0.16758  1.0000
  C   C546      1.0  0.62977  0.06323  0.19286  1.0000
  H   H942      1.0  0.70557  0.41389  0.33223  1.0000
  C   C547      1.0  0.58277  0.40858  0.14526  1.0000
  H   H943      1.0  0.97944  0.37343  0.25148  1.0000
  S   S167      1.0  0.55649  0.11122  0.32905  1.0000
  H   H944      1.0  0.55584  0.41634  0.14083  1.0000
  H   H945      1.0  0.70783  0.04712  0.27925  1.0000
  H   H946      1.0  0.93960  0.15759  0.12553  1.0000
  C   C548      1.0  0.00022  0.09076  0.21446  1.0000
  C   C549      1.0  0.57530  0.26030  0.03415  1.0000
  H   H947      1.0  0.92692  0.31616  0.18620  1.0000
  C   C550      1.0  0.76541  0.43096  0.34919  1.0000
  C   C551      1.0  0.54510  0.02188  0.21762  1.0000
  H   H948      1.0  0.62204  0.38299  0.13184  1.0000
  C   C552      1.0  0.61611  0.38589  0.17144  1.0000
  H   H949      1.0  0.96851  0.44780  0.28749  1.0000
  H   H950      1.0  0.54091  0.45973  0.09426  1.0000
  C   C553      1.0  0.79550  0.08558  0.27016  1.0000
  C   C554      1.0  0.93319  0.45588  0.31149  1.0000
  H   H951      1.0  0.56339  0.27688  0.02838  1.0000
  C   C555      1.0  0.72563  0.05238  0.34725  1.0000
  S   S168      1.0  0.69631  0.02342  0.31977  1.0000
  H   H952      1.0  0.88781  0.36023  0.22309  1.0000
  C   C556      1.0  0.99489  0.10659  0.22971  1.0000
  H   H953      1.0  0.52254  0.06981  0.03558  1.0000
  H   H954      1.0  0.89670  0.28289  0.24260  1.0000
  C   C557      1.0  0.59322  0.38877  0.13075  1.0000
  H   H955      1.0  0.92255  0.32427  0.26635  1.0000
  C   C558      1.0  0.78990  0.02390  0.35006  1.0000
  C   C559      1.0  0.64920  0.43735  0.21897  1.0000
  H   H956      1.0  0.52569  0.39582  0.16376  1.0000
  H   H957      1.0  0.55122  0.07771  0.16767  1.0000
  C   C560      1.0  0.66167  0.44862  0.23773  1.0000
  H   H958      1.0  0.57709  0.37305  0.13238  1.0000
  C   C561      1.0  0.66892  0.46382  0.35471  1.0000
  H   H959      1.0  0.71996  0.49880  0.32730  1.0000
  H   H960      1.0  0.86810  0.04404  0.24533  1.0000
  C   C562      1.0  0.98898  0.47462  0.30560  1.0000
  H   H961      1.0  0.58848  0.39587  0.11589  1.0000
  C   C563      1.0  0.65205  0.39738  0.16798  1.0000
  C   C564      1.0  0.58371  0.09540  0.19737  1.0000
  H   H962      1.0  0.64022  0.10673  0.17675  1.0000
  H   H963      1.0  0.52347  0.01591  0.09900  1.0000
  H   H964      1.0  0.70739  0.38976  0.31568  1.0000
  H   H965      1.0  0.97519  0.06604  0.28100  1.0000
  C   C565      1.0  0.54333  0.37925  0.19061  1.0000
  H   H966      1.0  0.61606  0.38116  0.18704  1.0000
  H   H967      1.0  0.95278  0.07786  0.25992  1.0000
  H   H968      1.0  0.65684  0.46814  0.23538  1.0000
  H   H969      1.0  0.56531  0.36742  0.19685  1.0000
  C   C566      1.0  0.52026  0.50553  0.08544  1.0000
  C   C567      1.0  0.95480  0.36353  0.25310  1.0000
  H   H970      1.0  0.55340  0.36953  0.16136  1.0000
  C   C568      1.0  0.69523  0.48114  0.26428  1.0000
  C   C569      1.0  0.96423  0.45822  0.30038  1.0000
  H   H971      1.0  0.80850  0.12299  0.27384  1.0000
  C   C570      1.0  0.76006  0.40251  0.32187  1.0000
  S   S169      1.0  0.55179  0.12139  0.04231  1.0000
  S   S170      1.0  0.52863  0.01940  0.27558  1.0000
  C   C571      1.0  0.55035  0.02307  0.23766  1.0000
  H   H972      1.0  0.64110  0.07212  0.20557  1.0000
  C   C572      1.0  0.52239  0.01865  0.25028  1.0000
  H   H973      1.0  0.85339  0.05839  0.28455  1.0000
  C   C573      1.0  0.82157  0.10572  0.26932  1.0000
  H   H974      1.0  0.97807  0.33603  0.23492  1.0000
  H   H975      1.0  0.58167  0.12700  0.16554  1.0000
  C   C574      1.0  0.97017  0.06264  0.26551  1.0000
  C   C575      1.0  0.72613  0.45176  0.22995  1.0000
  H   H976      1.0  0.94752  0.49615  0.34638  1.0000
  H   H977      1.0  0.73344  0.45168  0.26820  1.0000
  H   H978      1.0  0.82923  0.41395  0.31531  1.0000
  C   C576      1.0  0.60680  0.21699  0.04845  1.0000
  H   H979      1.0  0.87189  0.07216  0.23366  1.0000
  H   H980      1.0  0.79342  0.47163  0.33411  1.0000
  C   C577      1.0  0.92948  0.32892  0.19815  1.0000
  H   H981      1.0  0.55922  0.30442  0.09467  1.0000
  H   H982      1.0  0.90233  0.17303  0.15563  1.0000
  H   H983      1.0  0.74368  0.41152  0.27155  1.0000
  H   H984      1.0  0.94925  0.30283  0.21912  1.0000
  H   H985      1.0  0.52888  0.08246  0.13267  1.0000
  S   S171      1.0  0.88627  0.46690  0.34078  1.0000
  H   H986      1.0  0.95630  0.33615  0.19673  1.0000
  C   C578      1.0  0.56473  0.08220  0.21371  1.0000
  H   H987      1.0  0.97156  0.02032  0.33353  1.0000
  C   C579      1.0  0.89362  0.29669  0.25386  1.0000
  C   C580      1.0  0.61938  0.23882  0.05433  1.0000
  Fe  Fe87      1.0  0.59972  0.09991  0.03028  1.0000
  C   C581      1.0  0.98283  0.48821  0.32228  1.0000
  C   C582      1.0  0.71115  0.48906  0.33977  1.0000
  H   H988      1.0  0.89563  0.28720  0.26799  1.0000
  H   H989      1.0  0.60300  0.10698  0.20437  1.0000
  C   C583      1.0  0.60371  0.26055  0.04728  1.0000
  H   H990      1.0  0.68403  0.40965  0.25743  1.0000
  H   H991      1.0  0.71548  0.42365  0.20798  1.0000
  C   C584      1.0  0.77218  0.44380  0.31557  1.0000
  C   C585      1.0  0.79373  0.46594  0.31887  1.0000
  H   H992      1.0  0.76441  0.41406  0.24803  1.0000
  H   H993      1.0  0.83330  0.43253  0.33568  1.0000
  H   H994      1.0  0.82192  0.46281  0.31407  1.0000
  C   C586      1.0  0.73561  0.43613  0.21223  1.0000
  C   C587      1.0  0.51334  0.45379  0.23599  1.0000
  H   H995      1.0  0.73953  0.44787  0.19951  1.0000
  C   C588      1.0  0.54511  0.05188  0.06117  1.0000
  H   H996      1.0  0.95741  0.35386  0.26708  1.0000
  H   H997      1.0  0.65163  0.40988  0.15557  1.0000
  H   H998      1.0  0.67309  0.38320  0.16462  1.0000
  H   H999      1.0  0.54529  0.06690  0.07143  1.0000
  H   H1000     1.0  0.93240  0.12824  0.13531  1.0000
  H   H1001     1.0  0.99073  0.04519  0.22938  1.0000
  H   H1002     1.0  0.56726  0.02437  0.20805  1.0000
  C   C589      1.0  0.51730  0.10316  0.34081  1.0000
  C   C590      1.0  0.95261  0.20226  0.14501  1.0000
  H   H1003     1.0  0.90204  0.30467  0.21576  1.0000
  H   H1004     1.0  0.58285  0.06892  0.22142  1.0000
  H   H1005     1.0  0.92686  0.20644  0.15236  1.0000
  C   C591      1.0  0.92132  0.04993  0.23292  1.0000
  H   H1006     1.0  0.95156  0.35898  0.22297  1.0000
  H   H1007     1.0  0.52928  0.37548  0.09542  1.0000
  H   H1008     1.0  0.86186  0.39296  0.34075  1.0000
  H   H1009     1.0  0.97132  0.02510  0.27085  1.0000
  C   C592      1.0  0.83251  0.39604  0.34295  1.0000
  C   C593      1.0  0.97760  0.01501  0.21304  1.0000
  H   H1010     1.0  0.53643  0.29758  0.05894  1.0000
  H   H1011     1.0  0.00061  0.01797  0.24138  1.0000
  H   H1012     1.0  0.51747  0.42228  0.06804  1.0000
  H   H1013     1.0  0.00177  0.50100  0.32638  1.0000
  H   H1014     1.0  0.53190  0.46298  0.12708  1.0000
  H   H1015     1.0  0.00474  0.02970  0.30325  1.0000
  H   H1016     1.0  0.00440  0.01476  0.20613  1.0000
  H   H1017     1.0  0.73964  0.44154  0.34737  1.0000
  H   H1018     1.0  0.81460  0.01285  0.35097  1.0000
  H   H1019     1.0  0.99724  0.18829  0.16263  1.0000
  C   C594      1.0  0.58875  0.04290  0.09791  1.0000
  H   H1020     1.0  0.51677  0.32037  0.07287  1.0000
  C   C595      1.0  0.58099  0.02465  0.08222  1.0000
  H   H1021     1.0  0.60361  0.02527  0.07188  1.0000
  H   H1022     1.0  0.56827  0.02150  0.03276  1.0000
  C   C596      1.0  0.73109  0.48909  0.35703  1.0000
  S   S172      1.0  0.00760  0.40399  0.21237  1.0000
  H   H1023     1.0  0.56799  0.04417  0.10928  1.0000
  H   H1024     1.0  0.51325  0.43612  0.09750  1.0000
  C   C597      1.0  0.51251  0.07950  0.34609  1.0000
  H   H1025     1.0  0.51351  0.04656  0.09403  1.0000
  C   C598      1.0  0.51340  0.05814  0.04739  1.0000
  C   C599      1.0  0.51628  0.02887  0.08710  1.0000
  S   S173      1.0  0.63158  0.13220  0.02489  1.0000
  C   C600      1.0  0.51292  0.45589  0.09803  1.0000
  H   H1026     1.0  0.75513  0.49876  0.35779  1.0000
  S   S174      1.0  0.83363  0.48385  0.42309  1.0000
  S   S175      1.0  0.84410  0.44922  0.38607  1.0000
  Fe  Fe88      1.0  0.80506  0.47873  0.39501  1.0000
  C   C601      1.0  0.75772  0.41124  0.36411  1.0000
  Fe  Fe89      1.0  0.87572  0.45705  0.41245  1.0000
  S   S176      1.0  0.89563  0.42738  0.43280  1.0000
  H   H1027     1.0  0.99031  0.49648  0.54197  1.0000
  H   H1028     1.0  0.00240  0.09704  0.51220  1.0000
  H   H1029     1.0  0.00530  0.18327  0.50363  1.0000
  C   C602      1.0  0.00841  0.20150  0.49793  1.0000
  S   S177      1.0  0.92680  0.03663  0.37296  1.0000
  H   H1030     1.0  0.93345  0.39808  0.46116  1.0000
  C   C603      1.0  0.96973  0.08589  0.43857  1.0000
  H   H1031     1.0  0.98550  0.26693  0.52586  1.0000
  H   H1032     1.0  0.94354  0.07998  0.43509  1.0000
  Fe  Fe90      1.0  0.86411  0.51051  0.40694  1.0000
  H   H1033     1.0  0.00559  0.06842  0.52388  1.0000
  C   C604      1.0  0.94109  0.42526  0.43968  1.0000
  C   C605      1.0  0.96585  0.43961  0.43104  1.0000
  H   H1034     1.0  0.81266  0.03526  0.41480  1.0000
  H   H1035     1.0  0.95747  0.45175  0.41949  1.0000
  H   H1036     1.0  0.01059  0.46906  0.57985  1.0000
  S   S178      1.0  0.90862  0.48393  0.39776  1.0000
  C   C606      1.0  0.95246  0.40930  0.45448  1.0000
  S   S179      1.0  0.82055  0.05413  0.37605  1.0000
  H   H1037     1.0  0.97161  0.03493  0.51363  1.0000
  H   H1038     1.0  0.97585  0.19676  0.47173  1.0000
  H   H1039     1.0  0.98376  0.46584  0.54722  1.0000
  Fe  Fe91      1.0  0.87422  0.47787  0.37167  1.0000
  Fe  Fe92      1.0  0.94683  0.03552  0.40366  1.0000
  H   H1040     1.0  0.77219  0.05186  0.42244  1.0000
  H   H1041     1.0  0.94667  0.46053  0.50050  1.0000
  H   H1042     1.0  0.89550  0.48945  0.49506  1.0000
  C   C607      1.0  0.98029  0.50239  0.61063  1.0000
  C   C608      1.0  0.98826  0.40794  0.46082  1.0000
  H   H1043     1.0  0.96057  0.04552  0.63925  1.0000
  C   C609      1.0  0.89119  0.47238  0.46764  1.0000
  C   C610      1.0  0.97665  0.26608  0.51062  1.0000
  C   C611      1.0  0.95185  0.09310  0.68430  1.0000
  C   C612      1.0  0.00369  0.20012  0.47587  1.0000
  H   H1044     1.0  0.95019  0.10988  0.46078  1.0000
  Fe  Fe93      1.0  0.87179  0.03253  0.38536  1.0000
  C   C613      1.0  0.71994  0.47649  0.37322  1.0000
  H   H1045     1.0  0.97789  0.02914  0.68216  1.0000
  H   H1046     1.0  0.97858  0.03900  0.48821  1.0000
  S   S180      1.0  0.89135  0.03547  0.41607  1.0000
  H   H1047     1.0  0.97477  0.18296  0.53631  1.0000
  H   H1048     1.0  0.80697  0.04367  0.43932  1.0000
  C   C614      1.0  0.99389  0.24409  0.50027  1.0000
  C   C615      1.0  0.90676  0.49156  0.48032  1.0000
  C   C616      1.0  0.98727  0.02828  0.50100  1.0000
  H   H1049     1.0  0.67948  0.45460  0.38458  1.0000
  H   H1050     1.0  0.00927  0.47122  0.50462  1.0000
  H   H1051     1.0  0.92831  0.23024  0.51241  1.0000
  H   H1052     1.0  0.94845  0.50201  0.51089  1.0000
  H   H1053     1.0  0.00685  0.07078  0.48598  1.0000
  C   C617      1.0  0.96361  0.49708  0.46190  1.0000
  H   H1054     1.0  0.99670  0.39570  0.47231  1.0000
  C   C618      1.0  0.68841  0.46427  0.37210  1.0000
  H   H1055     1.0  0.76055  0.49847  0.43364  1.0000
  H   H1056     1.0  0.98563  0.28241  0.50338  1.0000
  C   C619      1.0  0.99926  0.04094  0.68640  1.0000
  H   H1057     1.0  0.94702  0.26702  0.50977  1.0000
  H   H1058     1.0  0.74766  0.03297  0.39803  1.0000
  C   C620      1.0  0.99151  0.21935  0.52936  1.0000
  H   H1059     1.0  0.77027  0.39338  0.36128  1.0000
  H   H1060     1.0  0.96706  0.10931  0.68257  1.0000
  C   C621      1.0  0.99978  0.07681  0.42848  1.0000
  H   H1061     1.0  0.95476  0.45320  0.47600  1.0000
  C   C622      1.0  0.96400  0.07396  0.66954  1.0000
  H   H1062     1.0  0.96965  0.22944  0.53723  1.0000
  C   C623      1.0  0.00165  0.43820  0.43733  1.0000
  C   C624      1.0  0.93033  0.19289  0.50739  1.0000
  H   H1063     1.0  0.96840  0.48080  0.45309  1.0000
  H   H1064     1.0  0.93824  0.22299  0.48855  1.0000
  H   H1065     1.0  0.91982  0.19156  0.52229  1.0000
  H   H1066     1.0  0.96226  0.08329  0.65524  1.0000
  H   H1067     1.0  0.98755  0.50816  0.49758  1.0000
  C   C625      1.0  0.94520  0.21750  0.50366  1.0000
  H   H1068     1.0  0.00846  0.44329  0.49303  1.0000
  H   H1069     1.0  0.75014  0.07494  0.36778  1.0000
  C   C626      1.0  0.97358  0.10280  0.45313  1.0000
  H   H1070     1.0  0.90795  0.19048  0.49717  1.0000
  N   N45       1.0  0.98433  0.22002  0.50790  1.0000
  S   S181      1.0  0.99670  0.05510  0.41045  1.0000
  C   C627      1.0  0.96067  0.46635  0.48724  1.0000
  H   H1071     1.0  0.89334  0.45461  0.47486  1.0000
  H   H1072     1.0  0.98662  0.24642  0.48477  1.0000
  C   C628      1.0  0.00749  0.11046  0.45789  1.0000
  H   H1073     1.0  0.76744  0.41657  0.37850  1.0000
  H   H1074     1.0  0.86224  0.47693  0.46509  1.0000
  S   S182      1.0  0.83280  0.50713  0.37921  1.0000
  H   H1075     1.0  0.90449  0.47103  0.45343  1.0000
  H   H1076     1.0  0.94962  0.17763  0.50467  1.0000
  S   S183      1.0  0.74498  0.47518  0.39491  1.0000
  C   C629      1.0  0.73418  0.01755  0.40422  1.0000
  N   N46       1.0  0.94707  0.49118  0.48110  1.0000
  H   H1077     1.0  0.99796  0.19703  0.55508  1.0000
  H   H1078     1.0  0.99065  0.50386  0.46399  1.0000
  H   H1079     1.0  0.75445  0.01811  0.44235  1.0000
  H   H1080     1.0  0.91811  0.50750  0.44253  1.0000
  C   C630      1.0  0.75358  0.05883  0.35944  1.0000
  H   H1081     1.0  0.97680  0.48293  0.61039  1.0000
  C   C631      1.0  0.78592  0.04473  0.36086  1.0000
  H   H1082     1.0  0.97035  0.48634  0.57643  1.0000
  C   C632      1.0  0.79265  0.03750  0.42644  1.0000
  H   H1083     1.0  0.92325  0.09871  0.68157  1.0000
  H   H1084     1.0  0.94302  0.06075  0.66931  1.0000
  H   H1085     1.0  0.95656  0.51209  0.60420  1.0000
  N   N47       1.0  0.00069  0.06152  0.67233  1.0000
  H   H1086     1.0  0.98191  0.01940  0.65115  1.0000
  C   C633      1.0  0.98650  0.03583  0.64277  1.0000
  H   H1087     1.0  0.72837  0.40990  0.36576  1.0000
  C   C634      1.0  0.99668  0.19465  0.53923  1.0000
  C   C635      1.0  0.95790  0.50806  0.49651  1.0000
  H   H1088     1.0  0.98102  0.50756  0.62602  1.0000
  H   H1089     1.0  0.71376  0.02513  0.41450  1.0000
  H   H1090     1.0  0.89503  0.50893  0.47499  1.0000
  C   C636      1.0  0.00131  0.46266  0.49109  1.0000
  H   H1091     1.0  0.99850  0.03006  0.62883  1.0000
  H   H1092     1.0  0.69429  0.02164  0.38149  1.0000
  C   C637      1.0  0.99903  0.48546  0.57242  1.0000
  C   C638      1.0  0.00071  0.48080  0.55056  1.0000
  H   H1093     1.0  0.00963  0.04835  0.46059  1.0000
  C   C639      1.0  0.77565  0.01393  0.43142  1.0000
  H   H1094     1.0  0.82905  0.40012  0.35846  1.0000
  H   H1095     1.0  0.72763  0.04556  0.92991  1.0000
  H   H1096     1.0  0.52850  0.50537  0.74805  1.0000
  C   C640      1.0  0.78516  0.50773  0.74569  1.0000
  S   S184      1.0  0.62743  0.49577  0.87980  1.0000
  H   H1097     1.0  0.56657  0.31322  0.98902  1.0000
  H   H1098     1.0  0.73041  0.48832  0.90342  1.0000
  Fe  Fe94      1.0  0.59625  0.48447  0.90600  1.0000
  S   S185      1.0  0.60550  0.44554  0.91564  1.0000
  C   C641      1.0  0.68579  0.46087  0.93959  1.0000
  C   C642      1.0  0.66681  0.29391  0.97287  1.0000
  C   C643      1.0  0.52216  0.50105  0.82379  1.0000
  S   S186      1.0  0.61290  0.37654  0.99010  1.0000
  H   H1099     1.0  0.58106  0.45453  0.95638  1.0000
  H   H1100     1.0  0.79028  0.01638  0.93104  1.0000
  H   H1101     1.0  0.62360  0.32606  0.99577  1.0000
  H   H1102     1.0  0.67422  0.34060  0.00343  1.0000
  S   S187      1.0  0.59630  0.03648  0.92437  1.0000
  H   H1103     1.0  0.71100  0.29019  0.00518  1.0000
  H   H1104     1.0  0.53676  0.48720  0.83209  1.0000
  C   C644      1.0  0.62194  0.30675  0.99831  1.0000
  H   H1105     1.0  0.71225  0.44743  0.96669  1.0000
  H   H1106     1.0  0.69576  0.28852  0.97108  1.0000
  S   S188      1.0  0.59677  0.06477  0.01369  1.0000
  C   C645      1.0  0.59842  0.04418  0.94923  1.0000
  C   C646      1.0  0.59123  0.06807  0.95458  1.0000
  C   C647      1.0  0.59169  0.07486  0.97413  1.0000
  C   C648      1.0  0.59914  0.05778  0.98866  1.0000
  C   C649      1.0  0.60684  0.03392  0.98328  1.0000
  C   C650      1.0  0.60689  0.02720  0.96371  1.0000
  H   H1107     1.0  0.58488  0.08143  0.94353  1.0000
  H   H1108     1.0  0.58557  0.09325  0.97798  1.0000
  H   H1109     1.0  0.71615  0.49725  0.75065  1.0000
  N   N48       1.0  0.71718  0.47340  0.93155  1.0000
  H   H1110     1.0  0.52975  0.02973  0.97448  1.0000
  N   N49       1.0  0.65666  0.29280  0.99391  1.0000
  H   H1111     1.0  0.67833  0.44877  0.90046  1.0000
  H   H1112     1.0  0.68471  0.48993  0.90871  1.0000
  H   H1113     1.0  0.67457  0.02972  0.91966  1.0000
  H   H1114     1.0  0.72612  0.44167  0.90068  1.0000
  H   H1115     1.0  0.53484  0.02280  0.99976  1.0000
  C   C651      1.0  0.78328  0.46188  0.92170  1.0000
  H   H1116     1.0  0.65654  0.33395  0.97141  1.0000
  C   C652      1.0  0.69688  0.32703  0.00277  1.0000
  C   C653      1.0  0.65163  0.26718  0.99952  1.0000
  C   C654      1.0  0.70492  0.45596  0.89805  1.0000
  H   H1117     1.0  0.74053  0.49467  0.84011  1.0000
  C   C655      1.0  0.65943  0.31811  0.96218  1.0000
  H   H1118     1.0  0.84298  0.50054  0.74306  1.0000
  H   H1119     1.0  0.59355  0.29749  0.97156  1.0000
  H   H1120     1.0  0.67796  0.30026  0.02212  1.0000
  H   H1121     1.0  0.95961  0.49623  0.76434  1.0000
  C   C656      1.0  0.75103  0.45786  0.93508  1.0000
  H   H1122     1.0  0.74540  0.43875  0.93352  1.0000
  C   C657      1.0  0.58871  0.29931  0.98721  1.0000
  H   H1123     1.0  0.63540  0.31772  0.95279  1.0000
  H   H1124     1.0  0.00335  0.06337  0.71261  1.0000
  C   C658      1.0  0.51524  0.02531  0.98774  1.0000
  H   H1125     1.0  0.78578  0.44793  0.91050  1.0000
  C   C659      1.0  0.60620  0.42832  0.93748  1.0000
  C   C660      1.0  0.62121  0.40494  0.93648  1.0000
  C   C661      1.0  0.62296  0.38991  0.95276  1.0000
  C   C662      1.0  0.60941  0.39764  0.97057  1.0000
  C   C663      1.0  0.59432  0.42117  0.97187  1.0000
  C   C664      1.0  0.59285  0.43654  0.95535  1.0000
  H   H1126     1.0  0.63151  0.39829  0.92288  1.0000
  H   H1127     1.0  0.63464  0.37194  0.95143  1.0000
  H   H1128     1.0  0.58374  0.42747  0.98551  1.0000
  H   H1129     1.0  0.78337  0.47960  0.91472  1.0000
  C   C665      1.0  0.70958  0.47816  0.91044  1.0000
  H   H1130     1.0  0.61577  0.30531  0.01397  1.0000
  H   H1131     1.0  0.68204  0.32111  0.95227  1.0000
  S   S189      1.0  0.54525  0.50335  0.89467  1.0000
  H   H1132     1.0  0.63023  0.25974  0.99068  1.0000
  H   H1133     1.0  0.72846  0.01354  0.95126  1.0000
  H   H1134     1.0  0.68825  0.03710  0.87620  1.0000
  H   H1135     1.0  0.80838  0.45962  0.93031  1.0000
  H   H1136     1.0  0.68359  0.44326  0.93268  1.0000
  C   C666      1.0  0.74386  0.03766  0.91785  1.0000
  C   C667      1.0  0.68578  0.30151  0.00662  1.0000
  C   C668      1.0  0.74510  0.50929  0.84961  1.0000
  H   H1137     1.0  0.69740  0.25045  0.98321  1.0000
  H   H1138     1.0  0.76033  0.45971  0.95023  1.0000
  C   C669      1.0  0.00920  0.49836  0.72300  1.0000
  H   H1139     1.0  0.66007  0.47122  0.93627  1.0000
  H   H1140     1.0  0.65208  0.28073  0.96461  1.0000
  H   H1141     1.0  0.72072  0.49423  0.95758  1.0000
  C   C670      1.0  0.68776  0.02311  0.90623  1.0000
  C   C671      1.0  0.71835  0.49690  0.94173  1.0000
  H   H1142     1.0  0.71092  0.32840  0.98878  1.0000
  C   C672      1.0  0.82343  0.50730  0.75406  1.0000
  H   H1143     1.0  0.57902  0.28246  0.99309  1.0000
  H   H1144     1.0  0.54094  0.23826  0.01793  1.0000
  H   H1145     1.0  0.00487  0.03263  0.71701  1.0000
  H   H1146     1.0  0.96264  0.04772  0.71073  1.0000
  C   C673      1.0  0.68464  0.24948  0.99757  1.0000
  C   C674      1.0  0.78311  0.03414  0.92469  1.0000
  H   H1147     1.0  0.68921  0.05987  0.89458  1.0000
  H   H1148     1.0  0.82659  0.49513  0.76676  1.0000
  H   H1149     1.0  0.64919  0.04552  0.88973  1.0000
  H   H1150     1.0  0.77543  0.50424  0.94154  1.0000
  H   H1151     1.0  0.67589  0.23107  0.99944  1.0000
  H   H1152     1.0  0.66570  0.44301  0.96499  1.0000
  H   H1153     1.0  0.69285  0.50792  0.93925  1.0000
  H   H1154     1.0  0.78764  0.04679  0.93650  1.0000
  H   H1155     1.0  0.77832  0.48880  0.74450  1.0000
  H   H1156     1.0  0.80181  0.03771  0.91274  1.0000
  C   C675      1.0  0.68631  0.45576  0.96153  1.0000
  H   H1157     1.0  0.61283  0.02054  0.99434  1.0000
  H   H1158     1.0  0.52166  0.01866  0.93967  1.0000
  H   H1159     1.0  0.74890  0.02580  0.88174  1.0000
  H   H1160     1.0  0.70589  0.46112  0.88256  1.0000
  C   C676      1.0  0.96808  0.50223  0.75030  1.0000
  C   C677      1.0  0.99852  0.49111  0.74146  1.0000
  C   C678      1.0  0.67881  0.04254  0.89073  1.0000
  H   H1161     1.0  0.67900  0.47209  0.96982  1.0000
  C   C679      1.0  0.99184  0.04690  0.70772  1.0000
  N   N50       1.0  0.72704  0.01635  0.90960  1.0000
  H   H1162     1.0  0.75892  0.49294  0.77827  1.0000
  H   H1163     1.0  0.74354  0.05238  0.90699  1.0000
  H   H1164     1.0  0.69791  0.50418  0.86656  1.0000
  Fe  Fe95      1.0  0.59838  0.36986  0.02173  1.0000
  H   H1165     1.0  0.64261  0.26595  0.01474  1.0000
  H   H1166     1.0  0.71616  0.33169  0.01412  1.0000
  H   H1167     1.0  0.95378  0.08662  0.69938  1.0000
  H   H1168     1.0  0.70461  0.25185  0.00913  1.0000
  H   H1169     1.0  0.94318  0.98704  0.26999  1.0000
  H   H1170     1.0  0.54416  0.99057  0.06721  1.0000
  C   C680      1.0  0.98365  0.00615  0.32488  1.0000
  H   H1171     1.0  0.76549  0.00147  0.32936  1.0000
  C   C681      1.0  0.98043  0.98234  0.33068  1.0000
  C   C682      1.0  0.54199  0.00758  0.05874  1.0000
  C   C683      1.0  0.99535  0.96411  0.31914  1.0000
  H   H1172     1.0  0.91564  0.00322  0.23005  1.0000
  C   C684      1.0  0.94636  0.98685  0.25406  1.0000
  H   H1173     1.0  0.59714  0.00147  0.04745  1.0000
  H   H1174     1.0  0.51512  0.52520  0.08465  1.0000
  S   S190      1.0  0.95862  0.97378  0.35207  1.0000
  H   H1175     1.0  0.58361  0.00665  0.08919  1.0000
  H   H1176     1.0  0.93636  0.97012  0.24838  1.0000
  H   H1177     1.0  0.97530  0.98580  0.25077  1.0000
  H   H1178     1.0  0.99281  0.94571  0.32337  1.0000
  H   H1179     1.0  0.56298  0.99021  0.03294  1.0000
  C   C685      1.0  0.56940  0.00538  0.04215  1.0000
  H   H1180     1.0  0.00547  0.53663  0.25678  1.0000
  H   H1181     1.0  0.97100  0.99618  0.21488  1.0000
  C   C686      1.0  0.92549  0.00848  0.24446  1.0000
  H   H1182     1.0  0.51527  0.00780  0.05182  1.0000
  C   C687      1.0  0.00247  0.01141  0.30778  1.0000
  H   H1183     1.0  0.90054  0.01116  0.25304  1.0000
  Fe  Fe96      1.0  0.89855  0.99532  0.41588  1.0000
  S   S191      1.0  0.87362  0.54639  0.42060  1.0000
  H   H1184     1.0  0.91484  0.93648  0.53167  1.0000
  H   H1185     1.0  0.70801  0.59239  0.65268  1.0000
  H   H1186     1.0  0.78441  0.74077  0.66215  1.0000
  Fe  Fe97      1.0  0.91080  0.62152  0.55558  1.0000
  S   S192      1.0  0.86477  0.59786  0.55795  1.0000
  S   S193      1.0  0.96798  0.61190  0.56502  1.0000
  Fe  Fe98      1.0  0.86777  0.66022  0.53316  1.0000
  S   S194      1.0  0.81868  0.63907  0.53302  1.0000
  S   S195      1.0  0.86714  0.69669  0.51832  1.0000
  Fe  Fe99      1.0  0.83164  0.63166  0.56431  1.0000
  S   S196      1.0  0.78411  0.63859  0.58431  1.0000
  Fe  Fe100     1.0  0.85535  0.60688  0.52641  1.0000
  S   S197      1.0  0.84040  0.57534  0.50798  1.0000
  S   S198      1.0  0.87864  0.65466  0.56473  1.0000
  S   S199      1.0  0.90348  0.62861  0.52378  1.0000
  H   H1187     1.0  0.83240  0.88005  0.68571  1.0000
  H   H1188     1.0  0.89329  0.58700  0.66607  1.0000
  C   C688      1.0  0.78576  0.97171  0.38799  1.0000
  S   S200      1.0  0.66906  0.63051  0.67429  1.0000
  H   H1189     1.0  0.74516  0.55601  0.65001  1.0000
  H   H1190     1.0  0.79107  0.95655  0.42824  1.0000
  H   H1191     1.0  0.55175  0.54331  0.68791  1.0000
  N   N51       1.0  0.00381  0.69552  0.55339  1.0000
  S   S201      1.0  0.77363  0.60973  0.67260  1.0000
  Fe  Fe101     1.0  0.72170  0.61941  0.68815  1.0000
  H   H1192     1.0  0.76268  0.76919  0.65831  1.0000
  H   H1193     1.0  0.85847  0.54382  0.68359  1.0000
  H   H1194     1.0  0.75089  0.94598  0.43822  1.0000
  S   S202      1.0  0.65943  0.81866  0.68119  1.0000
  C   C689      1.0  0.93302  0.95058  0.57542  1.0000
  Fe  Fe102     1.0  0.70975  0.83155  0.66794  1.0000
  S   S203      1.0  0.73879  0.81519  0.64221  1.0000
  H   H1195     1.0  0.89962  0.96794  0.50830  1.0000
  C   C690      1.0  0.72212  0.57950  0.61612  1.0000
  H   H1196     1.0  0.68414  0.54404  0.61497  1.0000
  C   C691      1.0  0.99559  0.91833  0.61635  1.0000
  H   H1197     1.0  0.79396  0.53457  0.42704  1.0000
  S   S204      1.0  0.87125  0.97654  0.44106  1.0000
  H   H1198     1.0  0.88268  0.93384  0.67927  1.0000
  C   C692      1.0  0.92775  0.96629  0.51357  1.0000
  C   C693      1.0  0.97433  0.59740  0.58751  1.0000
  S   S205      1.0  0.87682  0.99264  0.38560  1.0000
  H   H1199     1.0  0.86524  0.86313  0.67222  1.0000
  Fe  Fe103     1.0  0.92540  0.87527  0.57189  1.0000
  S   S206      1.0  0.88383  0.89620  0.55415  1.0000
  S   S207      1.0  0.94581  0.89262  0.59870  1.0000
  Fe  Fe104     1.0  0.91294  0.82849  0.55061  1.0000
  S   S208      1.0  0.87061  0.84633  0.53126  1.0000
  S   S209      1.0  0.92815  0.78890  0.55539  1.0000
  Fe  Fe105     1.0  0.90761  0.87662  0.52864  1.0000
  S   S210      1.0  0.92778  0.89480  0.50117  1.0000
  Fe  Fe106     1.0  0.85078  0.86451  0.55842  1.0000
  S   S211      1.0  0.79292  0.86904  0.56811  1.0000
  S   S212      1.0  0.95175  0.85733  0.54644  1.0000
  S   S213      1.0  0.89075  0.84511  0.57761  1.0000
  H   H1200     1.0  0.00625  0.01203  0.37059  1.0000
  C   C694      1.0  0.74191  0.98005  0.42307  1.0000
  C   C695      1.0  0.98367  0.92813  0.53046  1.0000
  H   H1201     1.0  0.84694  0.88585  0.60556  1.0000
  H   H1202     1.0  0.71148  0.72208  0.68357  1.0000
  C   C696      1.0  0.94475  0.53444  0.49407  1.0000
  H   H1203     1.0  0.83758  0.52259  0.45227  1.0000
  H   H1204     1.0  0.73970  0.59206  0.62311  1.0000
  H   H1205     1.0  0.62415  0.56261  0.64181  1.0000
  N   N52       1.0  0.96556  0.94801  0.54206  1.0000
  H   H1206     1.0  0.72928  0.96953  0.41186  1.0000
  H   H1207     1.0  0.76283  0.58953  0.45106  1.0000
  C   C697      1.0  0.88755  0.95374  0.45760  1.0000
  C   C698      1.0  0.92222  0.94296  0.45648  1.0000
  C   C699      1.0  0.93375  0.92485  0.46981  1.0000
  C   C700      1.0  0.91099  0.91730  0.48452  1.0000
  C   C701      1.0  0.87639  0.92819  0.48573  1.0000
  C   C702      1.0  0.86478  0.94623  0.47233  1.0000
  H   H1208     1.0  0.94003  0.94839  0.44522  1.0000
  H   H1209     1.0  0.96052  0.91655  0.46865  1.0000
  H   H1210     1.0  0.85852  0.92264  0.49692  1.0000
  H   H1211     1.0  0.83791  0.95437  0.47337  1.0000
  C   C703      1.0  0.75517  0.83289  0.62347  1.0000
  C   C704      1.0  0.73373  0.85115  0.61460  1.0000
  C   C705      1.0  0.74592  0.86260  0.59790  1.0000
  C   C706      1.0  0.77985  0.85624  0.59025  1.0000
  C   C707      1.0  0.80179  0.83875  0.59974  1.0000
  C   C708      1.0  0.78924  0.82680  0.61602  1.0000
  H   H1212     1.0  0.70718  0.85576  0.62010  1.0000
  H   H1213     1.0  0.72869  0.87610  0.59067  1.0000
  H   H1214     1.0  0.82768  0.83344  0.59400  1.0000
  H   H1215     1.0  0.80586  0.81258  0.62273  1.0000
  H   H1216     1.0  0.98464  0.93274  0.51487  1.0000
  H   H1217     1.0  0.99874  0.69935  0.52236  1.0000
  C   C709      1.0  0.66553  0.55977  0.61809  1.0000
  H   H1218     1.0  0.74120  0.74867  0.60800  1.0000
  H   H1219     1.0  0.83703  0.92713  0.68301  1.0000
  C   C710      1.0  0.78557  0.73583  0.55740  1.0000
  H   H1220     1.0  0.80075  0.95530  0.39345  1.0000
  S   S214      1.0  0.59461  0.87913  0.68642  1.0000
  H   H1221     1.0  0.83260  0.78430  0.59621  1.0000
  C   C711      1.0  0.69307  0.54215  0.40080  1.0000
  C   C712      1.0  0.88207  0.72266  0.52915  1.0000
  C   C713      1.0  0.88360  0.74364  0.51802  1.0000
  C   C714      1.0  0.89617  0.76448  0.52604  1.0000
  C   C715      1.0  0.90764  0.76442  0.54525  1.0000
  C   C716      1.0  0.90542  0.74360  0.55646  1.0000
  C   C717      1.0  0.89237  0.72288  0.54853  1.0000
  H   H1222     1.0  0.87554  0.74366  0.50302  1.0000
  H   H1223     1.0  0.89813  0.78031  0.51719  1.0000
  H   H1224     1.0  0.91392  0.74353  0.57138  1.0000
  H   H1225     1.0  0.89067  0.70703  0.55734  1.0000
  C   C718      1.0  0.78401  0.63215  0.60925  1.0000
  C   C719      1.0  0.81067  0.61714  0.61804  1.0000
  C   C720      1.0  0.80778  0.61089  0.63768  1.0000
  C   C721      1.0  0.77836  0.61967  0.64859  1.0000
  C   C722      1.0  0.75238  0.63530  0.63996  1.0000
  C   C723      1.0  0.75510  0.64137  0.62033  1.0000
  H   H1226     1.0  0.83299  0.60992  0.60959  1.0000
  H   H1227     1.0  0.82801  0.59880  0.64426  1.0000
  H   H1228     1.0  0.72987  0.64239  0.64829  1.0000
  H   H1229     1.0  0.73446  0.65303  0.61360  1.0000
  C   C724      1.0  0.84991  0.56800  0.48358  1.0000
  C   C725      1.0  0.86820  0.58282  0.47120  1.0000
  C   C726      1.0  0.87510  0.57600  0.45196  1.0000
  C   C727      1.0  0.86416  0.55425  0.44492  1.0000
  C   C728      1.0  0.84599  0.53943  0.45733  1.0000
  C   C729      1.0  0.83881  0.54632  0.47648  1.0000
  H   H1230     1.0  0.87688  0.59956  0.47643  1.0000
  H   H1231     1.0  0.88916  0.58764  0.44250  1.0000
  H   H1232     1.0  0.82316  0.58215  0.39517  1.0000
  H   H1233     1.0  0.82468  0.53471  0.48593  1.0000
  S   S215      1.0  0.69444  0.86990  0.67350  1.0000
  N   N53       1.0  0.72697  0.74038  0.65763  1.0000
  S   S216      1.0  0.95554  0.99560  0.40555  1.0000
  H   H1234     1.0  0.86831  0.86666  0.63759  1.0000
  C   C730      1.0  0.94228  0.51509  0.44859  1.0000
  C   C731      1.0  0.72157  0.58567  0.59437  1.0000
  N   N54       1.0  0.68621  0.57966  0.62611  1.0000
  H   H1235     1.0  0.95120  0.54407  0.50741  1.0000
  H   H1236     1.0  0.70697  0.53802  0.64711  1.0000
  C   C732      1.0  0.98048  0.69718  0.57121  1.0000
  N   N55       1.0  0.74895  0.55813  0.41730  1.0000
  C   C733      1.0  0.77747  0.57543  0.41335  1.0000
  C   C734      1.0  0.72765  0.56737  0.43438  1.0000
  C   C735      1.0  0.72475  0.55829  0.39984  1.0000
  H   H1237     1.0  0.97892  0.01001  0.49834  1.0000
  C   C736      1.0  0.79922  0.57143  0.39471  1.0000
  C   C737      1.0  0.74996  0.57234  0.45252  1.0000
  C   C738      1.0  0.84357  0.87876  0.63648  1.0000
  H   H1238     1.0  0.71912  0.98674  0.43226  1.0000
  H   H1239     1.0  0.76559  0.59411  0.41277  1.0000
  H   H1240     1.0  0.79761  0.57486  0.42525  1.0000
  H   H1241     1.0  0.70710  0.55506  0.43883  1.0000
  H   H1242     1.0  0.71213  0.58434  0.43050  1.0000
  H   H1243     1.0  0.71368  0.57677  0.39654  1.0000
  H   H1244     1.0  0.80238  0.92335  0.65063  1.0000
  C   C739      1.0  0.96890  0.67371  0.58029  1.0000
  H   H1245     1.0  0.64535  0.53329  0.63832  1.0000
  C   C740      1.0  0.86484  0.90731  0.65935  1.0000
  H   H1246     1.0  0.99580  0.97338  0.52598  1.0000
  H   H1247     1.0  0.80904  0.55261  0.39324  1.0000
  H   H1248     1.0  0.96804  0.91194  0.53136  1.0000
  H   H1249     1.0  0.77106  0.55807  0.45552  1.0000
  H   H1250     1.0  0.79922  0.00802  0.39247  1.0000
  H   H1251     1.0  0.75773  0.96783  0.38515  1.0000
  H   H1252     1.0  0.78377  0.85926  0.67311  1.0000
  S   S217      1.0  0.00159  0.97886  0.67822  1.0000
  H   H1253     1.0  0.95635  0.54529  0.58557  1.0000
  H   H1254     1.0  0.86381  0.92217  0.64857  1.0000
  C   C741      1.0  0.95893  0.67571  0.53115  1.0000
  N   N56       1.0  0.78818  0.78159  0.55165  1.0000
  C   C742      1.0  0.81004  0.79876  0.54050  1.0000
  C   C743      1.0  0.79377  0.78624  0.57277  1.0000
  C   C744      1.0  0.80085  0.75665  0.54612  1.0000
  C   C745      1.0  0.80558  0.79872  0.51834  1.0000
  C   C746      1.0  0.83246  0.78175  0.58036  1.0000
  H   H1255     1.0  0.80371  0.81742  0.54534  1.0000
  H   H1256     1.0  0.83918  0.79509  0.54322  1.0000
  H   H1257     1.0  0.77696  0.77549  0.58213  1.0000
  H   H1258     1.0  0.78475  0.80499  0.57594  1.0000
  H   H1259     1.0  0.83045  0.75421  0.54668  1.0000
  H   H1260     1.0  0.77760  0.80331  0.51370  1.0000
  H   H1261     1.0  0.82211  0.81251  0.51197  1.0000
  H   H1262     1.0  0.81547  0.78153  0.51204  1.0000
  H   H1263     1.0  0.84324  0.76328  0.57776  1.0000
  H   H1264     1.0  0.85079  0.79461  0.57426  1.0000
  H   H1265     1.0  0.81257  0.84260  0.65617  1.0000
  H   H1266     1.0  0.70247  0.52308  0.40000  1.0000
  C   C747      1.0  0.73351  0.73421  0.63680  1.0000
  H   H1267     1.0  0.77130  0.52413  0.40691  1.0000
  C   C748      1.0  0.69492  0.75778  0.65971  1.0000
  H   H1268     1.0  0.52862  0.90697  0.69039  1.0000
  C   C749      1.0  0.73758  0.75549  0.62286  1.0000
  H   H1269     1.0  0.69722  0.70890  0.66221  1.0000
  C   C750      1.0  0.65981  0.75064  0.65030  1.0000
  H   H1270     1.0  0.75851  0.72261  0.63532  1.0000
  H   H1271     1.0  0.95908  0.54316  0.48224  1.0000
  H   H1272     1.0  0.71182  0.72353  0.63113  1.0000
  C   C751      1.0  0.98828  0.96914  0.54111  1.0000
  H   H1273     1.0  0.81551  0.98736  0.41041  1.0000
  C   C752      1.0  0.92881  0.95328  0.53332  1.0000
  C   C753      1.0  0.96244  0.53619  0.57175  1.0000
  C   C754      1.0  0.83771  0.87191  0.67137  1.0000
  H   H1274     1.0  0.81821  0.83861  0.68150  1.0000
  C   C755      1.0  0.79138  0.99282  0.40159  1.0000
  H   H1275     1.0  0.75871  0.69150  0.65555  1.0000
  H   H1276     1.0  0.87354  0.90652  0.69088  1.0000
  H   H1277     1.0  0.99038  0.74564  0.54103  1.0000
  H   H1278     1.0  0.71362  0.76812  0.62259  1.0000
  H   H1279     1.0  0.96240  0.71288  0.53522  1.0000
  C   C756      1.0  0.98553  0.57279  0.62284  1.0000
  C   C757      1.0  0.98152  0.69695  0.53520  1.0000
  H   H1280     1.0  0.66186  0.74967  0.63440  1.0000
  H   H1281     1.0  0.63826  0.76451  0.65355  1.0000
  H   H1282     1.0  0.65091  0.73359  0.65616  1.0000
  H   H1283     1.0  0.76463  0.87640  0.64645  1.0000
  H   H1284     1.0  0.90644  0.94448  0.57129  1.0000
  H   H1285     1.0  0.89180  0.89789  0.65770  1.0000
  H   H1286     1.0  0.70059  0.77563  0.65392  1.0000
  H   H1287     1.0  0.94355  0.95659  0.50237  1.0000
  H   H1288     1.0  0.69397  0.78176  0.55400  1.0000
  C   C758      1.0  0.63575  0.55017  0.63099  1.0000
  C   C759      1.0  0.96286  0.93899  0.56264  1.0000
  C   C760      1.0  0.71651  0.55435  0.65361  1.0000
  H   H1289     1.0  0.78355  0.57740  0.38174  1.0000
  C   C761      1.0  0.00652  0.74143  0.55422  1.0000
  H   H1290     1.0  0.73216  0.57378  0.46531  1.0000
  S   S218      1.0  0.99111  0.55723  0.64492  1.0000
  C   C762      1.0  0.84888  0.89578  0.61925  1.0000
  H   H1291     1.0  0.91106  0.96455  0.54269  1.0000
  H   H1292     1.0  0.87599  0.90274  0.61962  1.0000
  C   C763      1.0  0.76670  0.53355  0.42080  1.0000
  H   H1293     1.0  0.80532  0.72020  0.55695  1.0000
  H   H1294     1.0  0.74829  0.52206  0.44956  1.0000
  H   H1295     1.0  0.70236  0.57539  0.58624  1.0000
  C   C764      1.0  0.75138  0.69879  0.66989  1.0000
  H   H1296     1.0  0.94849  0.67781  0.59158  1.0000
  C   C765      1.0  0.98921  0.90273  0.60129  1.0000
  H   H1297     1.0  0.93661  0.98463  0.51469  1.0000
  Fe  Fe107     1.0  0.93311  0.99695  0.37535  1.0000
  H   H1298     1.0  0.72025  0.79095  0.57369  1.0000
  N   N57       1.0  0.83560  0.89061  0.65554  1.0000
  H   H1299     1.0  0.79465  0.75338  0.53072  1.0000
  C   C766      1.0  0.86402  0.91924  0.67932  1.0000
  H   H1300     1.0  0.77413  0.89746  0.62777  1.0000
  C   C767      1.0  0.69367  0.57694  0.64745  1.0000
  C   C768      1.0  0.76932  0.89524  0.64343  1.0000
  H   H1301     1.0  0.62792  0.60427  0.64656  1.0000
  C   C769      1.0  0.71997  0.71789  0.66864  1.0000
  H   H1302     1.0  0.67583  0.54540  0.41356  1.0000
  H   H1303     1.0  0.91854  0.59984  0.59524  1.0000
  C   C770      1.0  0.79977  0.90468  0.65571  1.0000
  H   H1304     1.0  0.74392  0.90569  0.64670  1.0000
  H   H1305     1.0  0.93775  0.94468  0.59060  1.0000
  H   H1306     1.0  0.97434  0.92336  0.62633  1.0000
  H   H1307     1.0  0.99177  0.66357  0.58746  1.0000
  H   H1308     1.0  0.95677  0.66209  0.56978  1.0000
  H   H1309     1.0  0.60966  0.59658  0.62334  1.0000
  H   H1310     1.0  0.99430  0.70603  0.58317  1.0000
  H   H1311     1.0  0.74344  0.80638  0.54394  1.0000
  H   H1312     1.0  0.92843  0.57837  0.62647  1.0000
  C   C771      1.0  0.94533  0.59352  0.59955  1.0000
  C   C772      1.0  0.66683  0.60361  0.62231  1.0000
  C   C773      1.0  0.74928  0.78683  0.54622  1.0000
  H   H1313     1.0  0.61312  0.54544  0.62167  1.0000
  H   H1314     1.0  0.74315  0.77843  0.53223  1.0000
  H   H1315     1.0  0.76021  0.73064  0.55078  1.0000
  H   H1316     1.0  0.78156  0.73925  0.57290  1.0000
  H   H1317     1.0  0.95574  0.70857  0.56833  1.0000
  H   H1318     1.0  0.82219  0.86707  0.63229  1.0000
  H   H1319     1.0  0.94548  0.67859  0.51693  1.0000
  H   H1320     1.0  0.68876  0.76078  0.67514  1.0000
  C   C774      1.0  0.76557  0.96222  0.43544  1.0000
  H   H1321     1.0  0.83958  0.58408  0.68309  1.0000
  H   H1322     1.0  0.74866  0.58138  0.58831  1.0000
  C   C775      1.0  0.81139  0.85212  0.67004  1.0000
  H   H1323     1.0  0.82853  0.91096  0.61877  1.0000
  H   H1324     1.0  0.97511  0.65858  0.53031  1.0000
  C   C776      1.0  0.95097  0.58135  0.61721  1.0000
  H   H1325     1.0  0.72474  0.76049  0.56540  1.0000
  C   C777      1.0  0.72089  0.77934  0.56082  1.0000
  H   H1326     1.0  0.71592  0.60507  0.59179  1.0000
  C   C778      1.0  0.62894  0.60752  0.63081  1.0000
  H   H1327     1.0  0.69816  0.99219  0.39119  1.0000
  H   H1328     1.0  0.65315  0.56528  0.60397  1.0000
  H   H1329     1.0  0.68307  0.61813  0.62766  1.0000
  H   H1330     1.0  0.66308  0.60700  0.60660  1.0000
  H   H1331     1.0  0.79701  0.00277  0.43908  1.0000
  H   H1332     1.0  0.71508  0.55224  0.66954  1.0000
  H   H1333     1.0  0.77165  0.96971  0.44973  1.0000
  H   H1334     1.0  0.66888  0.57733  0.65612  1.0000
  H   H1335     1.0  0.73677  0.56172  0.61751  1.0000
  C   C779      1.0  0.00900  0.58925  0.59329  1.0000
  H   H1336     1.0  0.61934  0.62643  0.62841  1.0000
  H   H1337     1.0  0.87881  0.61815  0.66860  1.0000
  H   H1338     1.0  0.74282  0.68360  0.67878  1.0000
  H   H1339     1.0  0.76158  0.76526  0.62630  1.0000
  C   C780      1.0  0.75940  0.75168  0.66547  1.0000
  C   C781      1.0  0.71383  0.00751  0.38713  1.0000
  H   H1340     1.0  0.92521  0.60910  0.66582  1.0000
  C   C782      1.0  0.74709  0.51659  0.43429  1.0000
  N   N58       1.0  0.76081  0.00066  0.41465  1.0000
  H   H1341     1.0  0.73993  0.55228  0.38681  1.0000
  H   H1342     1.0  0.61403  0.74102  0.68860  1.0000
  H   H1343     1.0  0.93416  0.53204  0.45563  1.0000
  H   H1344     1.0  0.67583  0.54575  0.38789  1.0000
  H   H1345     1.0  0.98904  0.74352  0.56705  1.0000
  H   H1346     1.0  0.93737  0.67446  0.54188  1.0000
  H   H1347     1.0  0.91540  0.53719  0.49213  1.0000
  C   C783      1.0  0.00291  0.52976  0.56988  1.0000
  H   H1348     1.0  0.98033  0.99219  0.56626  1.0000
  H   H1349     1.0  0.71890  0.51470  0.43016  1.0000
  H   H1350     1.0  0.95836  0.91959  0.56299  1.0000
  H   H1351     1.0  0.78950  0.90641  0.67073  1.0000
  H   H1352     1.0  0.93216  0.97020  0.57533  1.0000
  H   H1353     1.0  0.77524  0.70537  0.67707  1.0000
  S   S219      1.0  0.60925  0.57502  0.68502  1.0000
  C   C784      1.0  0.97294  0.99212  0.55072  1.0000
  H   H1354     1.0  0.95375  0.54862  0.55981  1.0000
  H   H1355     1.0  0.98854  0.94066  0.57052  1.0000
  H   H1356     1.0  0.98407  0.00775  0.54355  1.0000
  Fe  Fe108     1.0  0.64706  0.85693  0.68965  1.0000
  H   H1357     1.0  0.94357  0.99503  0.54919  1.0000
  H   H1358     1.0  0.73204  0.00300  0.37496  1.0000
  H   H1359     1.0  0.79773  0.97556  0.37373  1.0000
  H   H1360     1.0  0.95918  0.51948  0.43605  1.0000
  C   C785      1.0  0.89977  0.60413  0.67257  1.0000
  H   H1361     1.0  0.94564  0.52089  0.57021  1.0000
  C   C786      1.0  0.75911  0.75667  0.68733  1.0000
  H   H1362     1.0  0.89923  0.55465  0.69111  1.0000
  H   H1363     1.0  0.01000  0.53080  0.55433  1.0000
  H   H1364     1.0  0.78425  0.76494  0.69127  1.0000
  H   H1365     1.0  0.73687  0.76958  0.69139  1.0000
  H   H1366     1.0  0.80735  0.55377  0.73759  1.0000
  S   S220      1.0  0.59277  0.54963  0.88761  1.0000
  Fe  Fe109     1.0  0.90084  0.54162  0.78241  1.0000
  S   S221      1.0  0.92596  0.57312  0.79484  1.0000
  Fe  Fe110     1.0  0.85184  0.53634  0.81824  1.0000
  S   S222      1.0  0.87388  0.56749  0.83323  1.0000
  H   H1367     1.0  0.94353  0.54178  0.71459  1.0000
  Fe  Fe111     1.0  0.87054  0.58524  0.80401  1.0000
  S   S223      1.0  0.84686  0.62141  0.79548  1.0000
  Fe  Fe112     1.0  0.92754  0.55231  0.82265  1.0000
  S   S224      1.0  0.97857  0.54765  0.84032  1.0000
  S   S225      1.0  0.84519  0.55530  0.78979  1.0000
  H   H1368     1.0  0.67611  0.52604  0.82744  1.0000
  S   S226      1.0  0.69619  0.60412  0.75898  1.0000
  S   S227      1.0  0.63384  0.62942  0.71785  1.0000
  S   S228      1.0  0.76025  0.89318  0.70849  1.0000
  S   S229      1.0  0.67547  0.85395  0.71822  1.0000
  Fe  Fe113     1.0  0.89735  0.90638  0.78698  1.0000
  S   S230      1.0  0.88010  0.94390  0.77819  1.0000
  S   S231      1.0  0.87843  0.87346  0.77288  1.0000
  Fe  Fe114     1.0  0.94059  0.92176  0.82133  1.0000
  S   S232      1.0  0.92532  0.96050  0.81549  1.0000
  S   S233      1.0  0.97472  0.91060  0.84748  1.0000
  Fe  Fe115     1.0  0.86942  0.94922  0.80993  1.0000
  S   S234      1.0  0.63780  0.97047  0.92280  1.0000
  Fe  Fe116     1.0  0.93721  0.95167  0.78444  1.0000
  H   H1369     1.0  0.86463  0.63543  0.71129  1.0000
  S   S235      1.0  0.88382  0.91122  0.81828  1.0000
  S   S236      1.0  0.95538  0.91347  0.79074  1.0000
  S   S237      1.0  0.81648  0.96973  0.81755  1.0000
  H   H1370     1.0  0.80394  0.55181  0.85728  1.0000
  S   S238      1.0  0.60354  0.93425  0.89250  1.0000
  Fe  Fe117     1.0  0.59168  0.94698  0.92238  1.0000
  S   S239      1.0  0.70364  0.94768  0.88333  1.0000
  C   C787      1.0  0.87091  0.55367  0.69538  1.0000
  C   C788      1.0  0.63559  0.73954  0.69906  1.0000
  C   C789      1.0  0.69131  0.73602  0.72598  1.0000
  Fe  Fe118     1.0  0.56590  0.96494  0.88279  1.0000
  Fe  Fe119     1.0  0.72370  0.86408  0.70153  1.0000
  S   S240      1.0  0.61190  0.51463  0.92450  1.0000
  C   C790      1.0  0.67678  0.75857  0.72011  1.0000
  H   H1371     1.0  0.69052  0.69797  0.72223  1.0000
  Fe  Fe120     1.0  0.64646  0.96056  0.89164  1.0000
  H   H1372     1.0  0.71303  0.73464  0.73633  1.0000
  C   C791      1.0  0.78438  0.96214  0.83506  1.0000
  C   C792      1.0  0.73281  0.95263  0.86365  1.0000
  C   C793      1.0  0.72519  0.97033  0.84963  1.0000
  C   C794      1.0  0.75099  0.97517  0.83553  1.0000
  C   C795      1.0  0.56344  0.93890  0.77782  1.0000
  C   C796      1.0  0.53783  0.93895  0.73723  1.0000
  C   C797      1.0  0.99460  0.59457  0.83579  1.0000
  H   H1373     1.0  0.99871  0.64100  0.92781  1.0000
  H   H1374     1.0  0.72451  0.54221  0.78995  1.0000
  S   S241      1.0  0.63804  0.69201  0.69170  1.0000
  S   S242      1.0  0.60966  0.99085  0.88013  1.0000
  C   C798      1.0  0.79460  0.88663  0.72535  1.0000
  C   C799      1.0  0.81865  0.90403  0.72937  1.0000
  C   C800      1.0  0.84495  0.89993  0.74368  1.0000
  C   C801      1.0  0.84745  0.87834  0.75393  1.0000
  C   C802      1.0  0.82418  0.86061  0.74942  1.0000
  C   C803      1.0  0.79763  0.86478  0.73520  1.0000
  H   H1375     1.0  0.81649  0.92092  0.72169  1.0000
  H   H1376     1.0  0.86332  0.91345  0.74675  1.0000
  H   H1377     1.0  0.82623  0.84380  0.75722  1.0000
  H   H1378     1.0  0.77925  0.85123  0.73208  1.0000
  H   H1379     1.0  0.66053  0.62371  0.86495  1.0000
  C   C804      1.0  0.80364  0.61833  0.78638  1.0000
  C   C805      1.0  0.79104  0.63216  0.77057  1.0000
  C   C806      1.0  0.75783  0.62811  0.76214  1.0000
  C   C807      1.0  0.73681  0.61065  0.76984  1.0000
  C   C808      1.0  0.74877  0.59756  0.78615  1.0000
  C   C809      1.0  0.78226  0.60119  0.79428  1.0000
  H   H1380     1.0  0.80736  0.64560  0.76456  1.0000
  H   H1381     1.0  0.74847  0.63861  0.74980  1.0000
  H   H1382     1.0  0.73259  0.58416  0.79221  1.0000
  H   H1383     1.0  0.79164  0.59074  0.80670  1.0000
  H   H1384     1.0  0.86983  0.54320  0.70905  1.0000
  C   C810      1.0  0.66090  0.54223  0.83275  1.0000
  C   C811      1.0  0.99616  0.97581  0.70344  1.0000
  C   C812      1.0  0.90113  0.60784  0.73868  1.0000
  H   H1385     1.0  0.56732  0.61734  0.69700  1.0000
  C   C813      1.0  0.97549  0.60398  0.90195  1.0000
  H   H1386     1.0  0.74547  0.58895  0.83815  1.0000
  C   C814      1.0  0.51474  0.89818  0.79183  1.0000
  H   H1387     1.0  0.65370  0.56985  0.86576  1.0000
  H   H1388     1.0  0.58426  0.53994  0.73314  1.0000
  H   H1389     1.0  0.96873  0.59751  0.82886  1.0000
  H   H1390     1.0  0.71005  0.86280  0.76508  1.0000
  H   H1391     1.0  0.99705  0.52242  0.69919  1.0000
  C   C815      1.0  0.65110  0.71705  0.70425  1.0000
  H   H1392     1.0  0.72995  0.61016  0.85628  1.0000
  H   H1393     1.0  0.76165  0.56089  0.88423  1.0000
  Fe  Fe121     1.0  0.57810  0.51799  0.87072  1.0000
  H   H1394     1.0  0.61133  0.58040  0.75750  1.0000
  H   H1395     1.0  0.78871  0.99193  0.87560  1.0000
  H   H1396     1.0  0.56612  0.58079  0.77652  1.0000
  Fe  Fe122     1.0  0.69095  0.81647  0.70883  1.0000
  H   H1397     1.0  0.78442  0.51729  0.78457  1.0000
  C   C816      1.0  0.81549  0.62020  0.71972  1.0000
  C   C817      1.0  0.77834  0.99343  0.89058  1.0000
  H   H1398     1.0  0.61055  0.86070  0.77122  1.0000
  N   N59       1.0  0.55962  0.91538  0.76780  1.0000
  H   H1399     1.0  0.58800  0.89360  0.78980  1.0000
  H   H1400     1.0  0.75704  0.98766  0.92530  1.0000
  C   C818      1.0  0.54150  0.56080  0.69231  1.0000
  C   C819      1.0  0.58992  0.87293  0.76412  1.0000
  H   H1401     1.0  0.72669  0.90394  0.81654  1.0000
  C   C820      1.0  0.55783  0.87574  0.70191  1.0000
  N   N60       1.0  0.55196  0.55242  0.75729  1.0000
  C   C821      1.0  0.58910  0.89736  0.77408  1.0000
  H   H1402     1.0  0.76916  0.87057  0.77861  1.0000
  C   C822      1.0  0.52841  0.89247  0.70077  1.0000
  H   H1403     1.0  0.60849  0.93232  0.79817  1.0000
  C   C823      1.0  0.57958  0.93806  0.79838  1.0000
  C   C824      1.0  0.79519  0.88404  0.81654  1.0000
  H   H1404     1.0  0.96565  0.61381  0.88880  1.0000
  H   H1405     1.0  0.55201  0.59319  0.98298  1.0000
  H   H1406     1.0  0.59613  0.59656  0.80781  1.0000
  H   H1407     1.0  0.77327  0.97503  0.89535  1.0000
  H   H1408     1.0  0.72422  0.99989  0.88164  1.0000
  H   H1409     1.0  0.69870  0.52605  0.75760  1.0000
  H   H1410     1.0  0.79976  0.00035  0.89946  1.0000
  C   C825      1.0  0.84891  0.62032  0.70671  1.0000
  H   H1411     1.0  0.92678  0.58745  0.69717  1.0000
  H   H1412     1.0  0.53906  0.95651  0.74418  1.0000
  C   C826      1.0  0.76161  0.54826  0.75683  1.0000
  H   H1413     1.0  0.73282  0.51674  0.71787  1.0000
  C   C827      1.0  0.64834  0.76024  0.70697  1.0000
  H   H1414     1.0  0.99957  0.53824  0.79794  1.0000
  H   H1415     1.0  0.67479  0.90970  0.79825  1.0000
  H   H1416     1.0  0.56349  0.56824  0.72957  1.0000
  C   C828      1.0  0.68451  0.56368  0.83091  1.0000
  C   C829      1.0  0.52978  0.58934  0.97378  1.0000
  H   H1417     1.0  0.82207  0.61531  0.73488  1.0000
  C   C830      1.0  0.53593  0.57563  0.95707  1.0000
  H   H1418     1.0  0.80225  0.63844  0.71987  1.0000
  S   S243      1.0  0.90845  0.53410  0.75056  1.0000
  H   H1419     1.0  0.77863  0.55337  0.76909  1.0000
  C   C831      1.0  0.53969  0.91349  0.95138  1.0000
  C   C832      1.0  0.98925  0.51679  0.71346  1.0000
  H   H1420     1.0  0.97944  0.56844  0.76229  1.0000
  C   C833      1.0  0.51087  0.54262  0.81517  1.0000
  S   S244      1.0  0.69873  0.59046  0.70573  1.0000
  H   H1421     1.0  0.51825  0.89143  0.76152  1.0000
  C   C834      1.0  0.56375  0.91952  0.74638  1.0000
  H   H1422     1.0  0.79537  0.60839  0.71412  1.0000
  H   H1423     1.0  0.55951  0.90305  0.73822  1.0000
  C   C835      1.0  0.00546  0.57200  0.84308  1.0000
  H   H1424     1.0  0.59786  0.87417  0.74875  1.0000
  S   S245      1.0  0.71681  0.64618  0.71194  1.0000
  H   H1425     1.0  0.77208  0.95759  0.76315  1.0000
  C   C836      1.0  0.51462  0.60599  0.70335  1.0000
  C   C837      1.0  0.85102  0.57841  0.69736  1.0000
  H   H1426     1.0  0.75798  0.74027  0.69625  1.0000
  H   H1427     1.0  0.53330  0.88326  0.79683  1.0000
  H   H1428     1.0  0.99284  0.64784  0.89485  1.0000
  C   C838      1.0  0.52931  0.90462  0.96936  1.0000
  H   H1429     1.0  0.71505  0.98024  0.91691  1.0000
  C   C839      1.0  0.77514  0.52268  0.84674  1.0000
  C   C840      1.0  0.72044  0.51663  0.74920  1.0000
  Fe  Fe123     1.0  0.64534  0.60373  0.69393  1.0000
  H   H1430     1.0  0.62166  0.57776  0.73297  1.0000
  H   H1431     1.0  0.57758  0.95631  0.80440  1.0000
  H   H1432     1.0  0.53661  0.52081  0.72538  1.0000
  H   H1433     1.0  0.92563  0.61411  0.73185  1.0000
  N   N61       1.0  0.75681  0.52177  0.75701  1.0000
  H   H1434     1.0  0.54510  0.94128  0.72182  1.0000
  H   H1435     1.0  0.61330  0.00887  0.95986  1.0000
  C   C841      1.0  0.54277  0.57479  0.76853  1.0000
  C   C842      1.0  0.56718  0.53264  0.77043  1.0000
  H   H1436     1.0  0.94420  0.96163  0.70076  1.0000
  C   C843      1.0  0.88343  0.58929  0.72624  1.0000
  H   H1437     1.0  0.90312  0.57372  0.72546  1.0000
  Fe  Fe124     1.0  0.64048  0.52676  0.89770  1.0000
  C   C844      1.0  0.51920  0.97653  0.82861  1.0000
  H   H1438     1.0  0.54058  0.98671  0.83400  1.0000
  H   H1439     1.0  0.77623  0.57882  0.73993  1.0000
  C   C845      1.0  0.90523  0.60173  0.69461  1.0000
  H   H1440     1.0  0.78807  0.86604  0.81221  1.0000
  H   H1441     1.0  0.73604  0.92446  0.76393  1.0000
  H   H1442     1.0  0.56412  0.86440  0.76534  1.0000
  H   H1443     1.0  0.61330  0.57879  0.83858  1.0000
  C   C846      1.0  0.67854  0.71525  0.71805  1.0000
  H   H1444     1.0  0.69344  0.89270  0.76937  1.0000
  H   H1445     1.0  0.76487  0.55474  0.72514  1.0000
  C   C847      1.0  0.52293  0.90650  0.77121  1.0000
  H   H1446     1.0  0.52667  0.84004  0.73734  1.0000
  C   C848      1.0  0.52968  0.52484  0.82619  1.0000
  N   N62       1.0  0.75646  0.90589  0.78994  1.0000
  H   H1447     1.0  0.74525  0.98931  0.82506  1.0000
  H   H1448     1.0  0.80106  0.94628  0.78183  1.0000
  H   H1449     1.0  0.96376  0.61249  0.91501  1.0000
  H   H1450     1.0  0.83091  0.52521  0.75822  1.0000
  H   H1451     1.0  0.98458  0.59930  0.76540  1.0000
  C   C849      1.0  0.73064  0.91675  0.80452  1.0000
  H   H1452     1.0  0.57967  0.84385  0.71618  1.0000
  H   H1453     1.0  0.54530  0.52397  0.77818  1.0000
  H   H1454     1.0  0.68652  0.51719  0.72377  1.0000
  C   C850      1.0  0.76087  0.92188  0.77261  1.0000
  H   H1455     1.0  0.56564  0.92655  0.80852  1.0000
  S   S246      1.0  0.51922  0.95364  0.86453  1.0000
  H   H1456     1.0  0.67350  0.00724  0.90190  1.0000
  H   H1457     1.0  0.69089  0.56579  0.81536  1.0000
  H   H1458     1.0  0.58980  0.97158  0.97969  1.0000
  C   C851      1.0  0.69267  0.92469  0.79739  1.0000
  C   C852      1.0  0.51572  0.91380  0.93587  1.0000
  H   H1459     1.0  0.75536  0.95670  0.78726  1.0000
  H   H1460     1.0  0.69186  0.93245  0.78269  1.0000
  H   H1461     1.0  0.93335  0.95962  0.73609  1.0000
  S   S247      1.0  0.69635  0.54070  0.89632  1.0000
  H   H1462     1.0  0.59155  0.92423  0.74294  1.0000
  N   N63       1.0  0.87214  0.59742  0.70624  1.0000
  H   H1463     1.0  0.88238  0.62326  0.74211  1.0000
  H   H1464     1.0  0.74192  0.93203  0.81197  1.0000
  H   H1465     1.0  0.54233  0.96888  0.95430  1.0000
  C   C853      1.0  0.72922  0.99518  0.92322  1.0000
  H   H1466     1.0  0.55136  0.99762  0.96118  1.0000
  C   C854      1.0  0.63113  0.59235  0.83284  1.0000
  C   C855      1.0  0.77294  0.94697  0.77677  1.0000
  S   S248      1.0  0.69529  0.78441  0.72881  1.0000
  H   H1467     1.0  0.57968  0.55045  0.79754  1.0000
  C   C856      1.0  0.71807  0.88134  0.76685  1.0000
  H   H1468     1.0  0.70898  0.54373  0.72668  1.0000
  H   H1469     1.0  0.62028  0.60947  0.83905  1.0000
  H   H1470     1.0  0.82334  0.88198  0.82167  1.0000
  C   C857      1.0  0.75884  0.51276  0.77765  1.0000
  C   C858      1.0  0.74536  0.88180  0.78357  1.0000
  H   H1471     1.0  0.65340  0.53840  0.84786  1.0000
  H   H1472     1.0  0.69990  0.98075  0.84999  1.0000
  C   C859      1.0  0.57702  0.55676  0.74084  1.0000
  H   H1473     1.0  0.74521  0.52981  0.94380  1.0000
  C   C860      1.0  0.52794  0.59664  0.75662  1.0000
  C   C861      1.0  0.59343  0.53931  0.78636  1.0000
  H   H1474     1.0  0.77889  0.89023  0.82905  1.0000
  S   S249      1.0  0.56556  0.53290  0.84067  1.0000
  H   H1475     1.0  0.62646  0.60592  0.87486  1.0000
  H   H1476     1.0  0.61571  0.90468  0.77155  1.0000
  H   H1477     1.0  0.63627  0.77749  0.70280  1.0000
  H   H1478     1.0  0.54712  0.60212  0.74550  1.0000
  H   H1479     1.0  0.73645  0.51826  0.80631  1.0000
  H   H1480     1.0  0.58121  0.95038  0.76944  1.0000
  H   H1481     1.0  0.53718  0.94934  0.77850  1.0000
  H   H1482     1.0  0.63632  0.54463  0.82382  1.0000
  C   C862      1.0  0.61292  0.56740  0.74568  1.0000
  H   H1483     1.0  0.63402  0.55317  0.74896  1.0000
  H   H1484     1.0  0.86054  0.58267  0.73453  1.0000
  H   H1485     1.0  0.53811  0.82511  0.97113  1.0000
  H   H1486     1.0  0.82692  0.57533  0.70613  1.0000
  H   H1487     1.0  0.91726  0.61832  0.69931  1.0000
  C   C863      1.0  0.56400  0.57988  0.69187  1.0000
  H   H1488     1.0  0.70333  0.51410  0.78849  1.0000
  C   C864      1.0  0.79140  0.94384  0.84861  1.0000
  C   C865      1.0  0.76586  0.93926  0.86288  1.0000
  Fe  Fe125     1.0  0.56235  0.53425  0.91202  1.0000
  H   H1489     1.0  0.77210  0.92556  0.87367  1.0000
  H   H1490     1.0  0.90930  0.59935  0.75270  1.0000
  H   H1491     1.0  0.81693  0.93366  0.84845  1.0000
  C   C866      1.0  0.71249  0.52408  0.72813  1.0000
  C   C867      1.0  0.96428  0.96727  0.71067  1.0000
  C   C868      1.0  0.75685  0.54649  0.87455  1.0000
  H   H1492     1.0  0.53940  0.81305  0.00226  1.0000
  H   H1493     1.0  0.55583  0.95250  0.98641  1.0000
  C   C869      1.0  0.78085  0.54140  0.85926  1.0000
  H   H1494     1.0  0.73548  0.55833  0.75918  1.0000
  H   H1495     1.0  0.56278  0.56900  0.95341  1.0000
  H   H1496     1.0  0.73411  0.87186  0.79589  1.0000
  S   S250      1.0  0.97527  0.97522  0.76868  1.0000
  Fe  Fe126     1.0  0.68903  0.61795  0.72844  1.0000
  C   C870      1.0  0.98325  0.97420  0.74356  1.0000
  Fe  Fe127     1.0  0.59855  0.99902  0.91169  1.0000
  H   H1497     1.0  0.74492  0.62019  0.83334  1.0000
  S   S251      1.0  0.58237  0.92455  0.94891  1.0000
  C   C871      1.0  0.55722  0.85692  0.71527  1.0000
  C   C872      1.0  0.65566  0.60662  0.87218  1.0000
  H   H1498     1.0  0.73025  0.88647  0.75293  1.0000
  H   H1499     1.0  0.63700  0.61098  0.80496  1.0000
  C   C873      1.0  0.79265  0.90225  0.79963  1.0000
  C   C874      1.0  0.77842  0.55911  0.73869  1.0000
  C   C875      1.0  0.73012  0.60614  0.84066  1.0000
  S   S252      1.0  0.55166  0.97608  0.91308  1.0000
  H   H1500     1.0  0.67853  0.62441  0.83504  1.0000
  H   H1501     1.0  0.69723  0.57902  0.86637  1.0000
  C   C876      1.0  0.62535  0.59475  0.81084  1.0000
  H   H1502     1.0  0.81353  0.89644  0.78898  1.0000
  H   H1503     1.0  0.54773  0.90445  0.98143  1.0000
  H   H1504     1.0  0.66977  0.60695  0.88629  1.0000
  H   H1505     1.0  0.80139  0.91922  0.80561  1.0000
  C   C877      1.0  0.95807  0.96610  0.73067  1.0000
  C   C878      1.0  0.69183  0.60654  0.83229  1.0000
  C   C879      1.0  0.67003  0.58457  0.86087  1.0000
  H   H1506     1.0  0.00847  0.63095  0.83205  1.0000
  H   H1507     1.0  0.68160  0.93927  0.80674  1.0000
  H   H1508     1.0  0.78073  0.91330  0.76258  1.0000
  H   H1509     1.0  0.69481  0.60610  0.81633  1.0000
  H   H1510     1.0  0.63655  0.57903  0.80295  1.0000
  N   N64       1.0  0.66930  0.58684  0.83921  1.0000
  H   H1511     1.0  0.71055  0.55809  0.83788  1.0000
  C   C880      1.0  0.72653  0.53327  0.87724  1.0000
  Fe  Fe128     1.0  0.66215  0.65539  0.69934  1.0000
  H   H1512     1.0  0.96528  0.58589  0.90103  1.0000
  H   H1513     1.0  0.53152  0.78797  0.95752  1.0000
  C   C881      1.0  0.55046  0.60244  0.69751  1.0000
  H   H1514     1.0  0.60388  0.52276  0.79391  1.0000
  H   H1515     1.0  0.61669  0.54824  0.78069  1.0000
  C   C882      1.0  0.51955  0.52046  0.73840  1.0000
  C   C883      1.0  0.74346  0.00962  0.89037  1.0000
  C   C884      1.0  0.72085  0.51463  0.86467  1.0000
  C   C885      1.0  0.52716  0.85480  0.72722  1.0000
  H   H1516     1.0  0.58107  0.51821  0.76188  1.0000
  H   H1517     1.0  0.55677  0.98195  0.99674  1.0000
  H   H1518     1.0  0.52356  0.92060  0.92194  1.0000
  C   C886      1.0  0.71418  0.99973  0.94365  1.0000
  C   C887      1.0  0.56098  0.97141  0.98349  1.0000
  H   H1519     1.0  0.54089  0.78379  0.99148  1.0000
  H   H1520     1.0  0.52128  0.82561  0.93556  1.0000
  C   C888      1.0  0.53842  0.98168  0.96632  1.0000
  H   H1521     1.0  0.53199  0.85344  0.94549  1.0000
  H   H1522     1.0  0.83895  0.62535  0.69200  1.0000
  S   S253      1.0  0.51292  0.55465  0.92349  1.0000
  H   H1523     1.0  0.00684  0.58063  0.79485  1.0000
  C   C889      1.0  0.51734  0.54451  0.74895  1.0000
  H   H1524     1.0  0.71808  0.98302  0.95232  1.0000
  C   C890      1.0  0.72881  0.52261  0.79114  1.0000
  H   H1525     1.0  0.51652  0.56107  0.81702  1.0000
  C   C891      1.0  0.99973  0.58179  0.76392  1.0000
  H   H1526     1.0  0.99962  0.53396  0.77304  1.0000
  H   H1527     1.0  0.52270  0.57127  0.77985  1.0000
  C   C892      1.0  0.94815  0.52064  0.74069  1.0000
  H   H1528     1.0  0.78667  0.51431  0.73060  1.0000
  C   C893      1.0  0.95879  0.52775  0.72223  1.0000
  S   S254      1.0  0.90583  0.51951  0.80960  1.0000
  H   H1529     1.0  0.00853  0.83998  0.83032  1.0000
  H   H1530     1.0  0.51435  0.91308  0.80208  1.0000
  C   C894      1.0  0.52453  0.79683  0.00009  1.0000
  H   H1531     1.0  0.52087  0.78882  0.01463  1.0000
  H   H1532     1.0  0.52328  0.61200  0.76641  1.0000
  H   H1533     1.0  0.68500  0.00454  0.94358  1.0000
  S   S255      1.0  0.80434  0.51533  0.82727  1.0000
  H   H1534     1.0  0.51524  0.75377  0.97204  1.0000
  H   H1535     1.0  0.75056  0.51666  0.92080  1.0000
  H   H1536     1.0  0.51679  0.99413  0.80072  1.0000
  S   S256      1.0  0.74206  0.82646  0.69509  1.0000
  C   C895      1.0  0.74936  0.51245  0.93640  1.0000
  C   C896      1.0  0.51213  0.83954  0.94591  1.0000
