data_image0
_chemical_formula_structural       CH2CSC6H3CNC6H13CHCH3FeC3H7SH3C2HC2NH2CH2NCSH2CFeCH2CHC2H3CSCSHSH2CSCH3CH3SCHCFeHC2HSH2FeCHCHFe2S2FeS2FeSFeHSHCHCH4CH2SC2H2CH6SH3CH2CH3CH2CH2NC4HC2NCH5CHC2HC2HCH3CHNHFeH3CS2CHC7H3CHC2H3CHC2HC2H2CH2NCHCH6C2H2SH4CHCHSCHFeH4FeSFeSFeSFeCFeSC2S2CNHC4H3CH2SH4CH2CSCHCH4SHCH2C2HSCH4FeHCH2CH4SHSH4CHSHFeH4CH2CH7CHSH4FeC3H2S2CHCHCHC2HNSCHCH2CHCHC2HCHCH7S2C3H2C3H2CH3Fe2S2FeS2CH3C2HCHCFeSCHNCHCH3NHCH2CH5FeH3CHC2H5C2H4C2H2CH3CH2SFeHSH2SCSC3HCHCHC2H3CHFeH2CSH2CH2NHCH3CH3CH5CSC4H2C2H5SHC2SC3NHSH3C2H2FeCSH2CHCH2CH9C3HCH2S2NHC2H5CH2CHCHC2H3CNHC2H3CHCH3C3H4C2FeH3SC2SH2CHCHSCSH8CHFeC2FeH5NHSHC2NCHFeH2CH4CHCHC2HCH4CH2CNSCH3C2HCHCFe2CHSCH4CHCHC2H2CNCH4NH2CH2FeHC2H8SC2HC4H2SH2CH3CHCH3CFeH3CH2CHSCSHCHFeCH2CNSHFeSFe2SH2SH2CHCHC2SH2CHSCH5SHC2H4CH3CNH4CHCH2SHFeCHCH4CH2SHCH2C2H2CH2C2H2CH4C3HCHSH4SH3CFeH4Fe2S2FeHFeS4HC6H4CH3Fe2H2SHCH3CH5CNC4H3C3SCH2CHCSHCHC2HCH4C2SHC2HNCH2SH7CH4SHSHCH3C2SH2C2H3FeH2SHC2HC4HSH2NCH2CHFeS2Fe3S2FeSHC6SH3SCH2C2HCH2CHC3H3C2H3CNHCSH3C2H5CH3C2HCHNH3CH4CHCH3C2H5CSH5CH3FeSFeSFe2S2CHSCH2NC2H3SHC6H4SHCHCHNH2C2SHSHCH5SHCH14CH5CH2C3H2CH4NH2C3H5C2H2C2H3FeC2H2C3H2C2SHFeCH2C3NSCH2C2H5CHSC2HC2FeSHFeSCFeSFeS4CHCH5CHC6H5CHCH2NSC4HFeCH4CH7CHC2HCHCHCH2SCH2SC3HSHCH2CH6C4HCH4CH8CHCH2CH2
_chemical_formula_sum              "C448 H768 S128 N32 Fe64"
_cell_length_a       30.4874
_cell_length_b       43.4168
_cell_length_c       32.9748
_cell_angle_alpha    90.0798
_cell_angle_beta     116.291
_cell_angle_gamma    90.0654

_space_group_name_H-M_alt    "P 1"
_space_group_IT_number       1

loop_
  _space_group_symop_operation_xyz
  'x, y, z'

loop_
  _atom_site_type_symbol
  _atom_site_label
  _atom_site_symmetry_multiplicity
  _atom_site_fract_x
  _atom_site_fract_y
  _atom_site_fract_z
  _atom_site_occupancy
  C   C1        1.0  0.05727  0.30335  0.11191  1.0000
  H   H1        1.0  0.05813  0.32090  0.13561  1.0000
  H   H2        1.0  0.07369  0.19147  0.19666  1.0000
  C   C2        1.0  0.08524  0.30688  0.08823  1.0000
  S   S1        1.0  0.12011  0.09672  0.06234  1.0000
  C   C3        1.0  0.23900  0.10460  0.20884  1.0000
  C   C4        1.0  0.25135  0.09829  0.17361  1.0000
  C   C5        1.0  0.21451  0.09617  0.12883  1.0000
  C   C6        1.0  0.16524  0.10108  0.11875  1.0000
  C   C7        1.0  0.15281  0.10747  0.15392  1.0000
  C   C8        1.0  0.18958  0.10885  0.19889  1.0000
  H   H3        1.0  0.22437  0.09084  0.10186  1.0000
  H   H4        1.0  0.11485  0.11066  0.14661  1.0000
  H   H5        1.0  0.17982  0.11335  0.22614  1.0000
  C   C9        1.0  0.08383  0.28390  0.05763  1.0000
  N   N1        1.0  0.16684  0.20377  0.16345  1.0000
  C   C10       1.0  0.13909  0.19396  0.11453  1.0000
  C   C11       1.0  0.14106  0.18977  0.18890  1.0000
  C   C12       1.0  0.21778  0.19058  0.18077  1.0000
  C   C13       1.0  0.16812  0.23855  0.16553  1.0000
  C   C14       1.0  0.16230  0.20330  0.08312  1.0000
  C   C15       1.0  0.17594  0.25373  0.21073  1.0000
  H   H6        1.0  0.13398  0.16846  0.11178  1.0000
  H   H7        1.0  0.10151  0.20373  0.09901  1.0000
  H   H8        1.0  0.15894  0.19579  0.22527  1.0000
  H   H9        1.0  0.14305  0.16427  0.18829  1.0000
  H   H10       1.0  0.21590  0.16566  0.17200  1.0000
  H   H11       1.0  0.19659  0.24778  0.15631  1.0000
  H   H12       1.0  0.13277  0.24793  0.13980  1.0000
  H   H13       1.0  0.19561  0.18960  0.09016  1.0000
  H   H14       1.0  0.17056  0.22827  0.08497  1.0000
  H   H15       1.0  0.06371  0.18511  0.13989  1.0000
  H   H16       1.0  0.19692  0.27545  0.21520  1.0000
  H   H17       1.0  0.19617  0.23977  0.24131  1.0000
  H   H18       1.0  0.14029  0.26099  0.20924  1.0000
  C   C16       1.0  0.08655  0.19815  0.17121  1.0000
  H   H19       1.0  0.13611  0.19825  0.04755  1.0000
  C   C17       1.0  0.05419  0.25761  0.05044  1.0000
  H   H20       1.0  0.07973  0.22313  0.16477  1.0000
  H   H21       1.0  0.06085  0.05816  0.08884  1.0000
  H   H22       1.0  0.23832  0.20172  0.16401  1.0000
  Fe  Fe1       1.0  0.04668  0.12098  0.03338  1.0000
  C   C18       1.0  0.02795  0.27704  0.10494  1.0000
  C   C19       1.0  0.02615  0.25413  0.07416  1.0000
  C   C20       1.0  0.25132  0.19319  0.23185  1.0000
  H   H23       1.0  0.23593  0.18170  0.25272  1.0000
  H   H24       1.0  0.10536  0.28658  0.03913  1.0000
  H   H25       1.0  0.26159  0.21738  0.24242  1.0000
  H   H26       1.0  0.05275  0.24017  0.02640  1.0000
  H   H27       1.0  0.13776  0.03696  0.11031  1.0000
  H   H28       1.0  0.26461  0.31579  0.22301  1.0000
  H   H29       1.0  0.19188  0.03542  0.18957  1.0000
  S   S2        1.0  0.28418  0.10796  0.26539  1.0000
  H   H30       1.0  0.13430  0.04854  0.18439  1.0000
  H   H31       1.0  0.10727  0.02289  0.03749  1.0000
  H   H32       1.0  0.05485  0.04805  0.13793  1.0000
  C   C21       1.0  0.04826  0.03932  0.10398  1.0000
  C   C22       1.0  0.15330  0.02833  0.17912  1.0000
  H   H33       1.0  0.04622  0.03782  0.02003  1.0000
  C   C23       1.0  0.13060  0.01796  0.12915  1.0000
  C   C24       1.0  0.06849  0.01658  0.02714  1.0000
  N   N2        1.0  0.07682  0.01014  0.10813  1.0000
  H   H34       1.0  0.25920  0.33347  0.27065  1.0000
  H   H35       1.0  0.15413  0.00950  0.20210  1.0000
  C   C25       1.0  0.27662  0.33515  0.24750  1.0000
  H   H36       1.0  0.28929  0.09484  0.18091  1.0000
  H   H37       1.0  0.28605  0.18086  0.23934  1.0000
  N   N3        1.0  0.35904  0.31136  0.30471  1.0000
  C   C26       1.0  0.33297  0.33754  0.27302  1.0000
  S   S3        1.0  0.50568  0.28968  0.47044  1.0000
  H   H38       1.0  0.47875  0.32681  0.32031  1.0000
  H   H39       1.0  0.43760  0.00991  0.21555  1.0000
  C   C27       1.0  0.50540  0.11761  0.17625  1.0000
  Fe  Fe2       1.0  0.43774  0.09049  0.24331  1.0000
  C   C28       1.0  0.50230  0.26179  0.43000  1.0000
  H   H40       1.0  0.43609  0.02053  0.12344  1.0000
  H   H41       1.0  0.50475  0.02029  0.19423  1.0000
  C   C29       1.0  0.46213  0.08772  0.10804  1.0000
  H   H42       1.0  0.49926  0.02362  0.10643  1.0000
  C   C30       1.0  0.47925  0.02122  0.50282  1.0000
  C   C31       1.0  0.48148  0.23280  0.42948  1.0000
  H   H43       1.0  0.46828  0.22757  0.45421  1.0000
  H   H44       1.0  0.43513  0.07047  0.08929  1.0000
  H   H45       1.0  0.32974  0.33205  0.34759  1.0000
  C   C32       1.0  0.43969  0.32115  0.29853  1.0000
  S   S4        1.0  0.50199  0.10150  0.30945  1.0000
  C   C33       1.0  0.37009  0.29315  0.38422  1.0000
  S   S5        1.0  0.42365  0.11631  0.35092  1.0000
  H   H46       1.0  0.31046  0.27596  0.26195  1.0000
  S   S6        1.0  0.43993  0.07392  0.17836  1.0000
  H   H47       1.0  0.41417  0.25808  0.32911  1.0000
  H   H48       1.0  0.30260  0.29613  0.32343  1.0000
  C   C34       1.0  0.49474  0.21699  0.36498  1.0000
  S   S7        1.0  0.48918  0.19055  0.32223  1.0000
  C   C35       1.0  0.47757  0.21046  0.39698  1.0000
  H   H49       1.0  0.38395  0.27030  0.38071  1.0000
  H   H50       1.0  0.37225  0.01674  0.13990  1.0000
  H   H51       1.0  0.40132  0.30812  0.40585  1.0000
  C   C36       1.0  0.47639  0.03278  0.46165  1.0000
  H   H52       1.0  0.43397  0.30387  0.35627  1.0000
  H   H53       1.0  0.46138  0.18821  0.39666  1.0000
  H   H54       1.0  0.48031  0.09749  0.05284  1.0000
  S   S8        1.0  0.39571  0.13270  0.24401  1.0000
  C   C37       1.0  0.48749  0.10313  0.08719  1.0000
  H   H55       1.0  0.44546  0.04663  0.43981  1.0000
  C   C38       1.0  0.41260  0.31989  0.32844  1.0000
  Fe  Fe3       1.0  0.45758  0.14210  0.31266  1.0000
  H   H56       1.0  0.43917  0.29860  0.28247  1.0000
  C   C39       1.0  0.33812  0.30874  0.33849  1.0000
  C   C40       1.0  0.37770  0.25321  0.30153  1.0000
  H   H57       1.0  0.35676  0.28600  0.24678  1.0000
  S   S9        1.0  0.40196  0.06042  0.27601  1.0000
  H   H58       1.0  0.35629  0.23966  0.31517  1.0000
  H   H59       1.0  0.49609  0.01094  0.26198  1.0000
  Fe  Fe4       1.0  0.36467  0.10388  0.28136  1.0000
  C   C41       1.0  0.34985  0.28235  0.27690  1.0000
  H   H60       1.0  0.38492  0.23839  0.27762  1.0000
  C   C42       1.0  0.47096  0.09486  0.15267  1.0000
  H   H61       1.0  0.34791  0.28967  0.40298  1.0000
  Fe  Fe5       1.0  0.46353  0.07451  0.34313  1.0000
  Fe  Fe6       1.0  0.08386  0.09557  0.71726  1.0000
  S   S10       1.0  0.10821  0.14281  0.70875  1.0000
  S   S11       1.0  0.08474  0.08058  0.78374  1.0000
  Fe  Fe7       1.0  0.07582  0.07302  0.62524  1.0000
  S   S12       1.0  0.09929  0.11908  0.61010  1.0000
  S   S13       1.0  0.07120  0.02870  0.58559  1.0000
  Fe  Fe8       1.0  0.15605  0.11901  0.68287  1.0000
  S   S14       1.0  0.23287  0.13652  0.70171  1.0000
  Fe  Fe9       1.0  0.04980  0.13928  0.63727  1.0000
  H   H62       1.0  0.21847  0.04981  0.52550  1.0000
  S   S15       1.0  0.13646  0.07187  0.69660  1.0000
  H   H63       1.0  0.01332  0.13015  0.74906  1.0000
  C   C43       1.0  0.19588  0.13072  0.57258  1.0000
  H   H64       1.0  0.19038  0.16869  0.80572  1.0000
  C   C44       1.0  0.02431  0.26744  0.57617  1.0000
  H   H65       1.0  0.16959  0.14687  0.54745  1.0000
  H   H66       1.0  0.27046  0.13370  0.94079  1.0000
  H   H67       1.0  0.25497  0.08347  0.84041  1.0000
  H   H68       1.0  0.24975  0.07947  0.75270  1.0000
  C   C45       1.0  0.31294  0.09800  0.93107  1.0000
  H   H69       1.0  0.17160  0.25017  0.67054  1.0000
  H   H70       1.0  0.44719  0.31419  0.67526  1.0000
  S   S16       1.0  0.04201  0.16702  0.00081  1.0000
  C   C46       1.0  0.43175  0.00724  0.85332  1.0000
  C   C47       1.0  0.49028  0.32140  0.63820  1.0000
  H   H71       1.0  0.45036  0.02649  0.51230  1.0000
  H   H72       1.0  0.23954  0.28647  0.68753  1.0000
  C   C48       1.0  0.02521  0.21241  0.59143  1.0000
  H   H73       1.0  0.26701  0.16201  0.87869  1.0000
  H   H74       1.0  0.31006  0.07553  0.91414  1.0000
  H   H75       1.0  0.44489  0.05865  0.80872  1.0000
  H   H76       1.0  0.08701  0.07831  0.87168  1.0000
  H   H77       1.0  0.03001  0.02139  0.90598  1.0000
  H   H78       1.0  0.20863  0.13663  0.78149  1.0000
  S   S17       1.0  0.38898  0.33257  0.83287  1.0000
  H   H79       1.0  0.33331  0.09388  0.96806  1.0000
  H   H80       1.0  0.06576  0.18440  0.56600  1.0000
  H   H81       1.0  0.16671  0.26564  0.61879  1.0000
  C   C49       1.0  0.05470  0.20753  0.56945  1.0000
  H   H82       1.0  0.49965  0.05257  0.89351  1.0000
  H   H83       1.0  0.19258  0.09330  0.80825  1.0000
  C   C50       1.0  0.22184  0.15511  0.80728  1.0000
  H   H84       1.0  0.41147  0.01707  0.81910  1.0000
  H   H85       1.0  0.28681  0.13259  0.85366  1.0000
  H   H86       1.0  0.15392  0.13171  0.83044  1.0000
  C   C51       1.0  0.47849  0.30564  0.85300  1.0000
  H   H87       1.0  0.16345  0.11209  0.88024  1.0000
  H   H88       1.0  0.33574  0.11389  0.92201  1.0000
  C   C52       1.0  0.50573  0.03788  0.86871  1.0000
  H   H89       1.0  0.24854  0.04938  0.68311  1.0000
  H   H90       1.0  0.24445  0.17089  0.79773  1.0000
  N   N4        1.0  0.22944  0.11825  0.87155  1.0000
  C   C53       1.0  0.25355  0.14216  0.85489  1.0000
  C   C54       1.0  0.26250  0.11202  0.92075  1.0000
  C   C55       1.0  0.18048  0.12931  0.86673  1.0000
  C   C56       1.0  0.22120  0.08944  0.84345  1.0000
  H   H91       1.0  0.49603  0.04460  0.79903  1.0000
  C   C57       1.0  0.50704  0.27445  0.60379  1.0000
  C   C58       1.0  0.05194  0.26237  0.55244  1.0000
  N   N5        1.0  0.19769  0.32737  0.65661  1.0000
  C   C59       1.0  0.21132  0.04405  0.55494  1.0000
  H   H92       1.0  0.11903  0.32740  0.61584  1.0000
  H   H93       1.0  0.12672  0.27890  0.64276  1.0000
  H   H94       1.0  0.42375  0.02327  0.87561  1.0000
  H   H95       1.0  0.13111  0.32305  0.69742  1.0000
  H   H96       1.0  0.19108  0.02871  0.65786  1.0000
  C   C60       1.0  0.19583  0.06676  0.61679  1.0000
  H   H97       1.0  0.41690  0.29907  0.61950  1.0000
  C   C61       1.0  0.29575  0.08818  0.57975  1.0000
  C   C62       1.0  0.06798  0.23246  0.54999  1.0000
  H   H98       1.0  0.46690  0.25723  0.64056  1.0000
  C   C63       1.0  0.21954  0.04028  0.65084  1.0000
  C   C64       1.0  0.50206  0.25443  0.88647  1.0000
  H   H99       1.0  0.19621  0.17925  0.87920  1.0000
  C   C65       1.0  0.26929  0.08076  0.60907  1.0000
  H   H100      1.0  0.20056  0.15772  0.92801  1.0000
  H   H101      1.0  0.18003  0.04663  0.83210  1.0000
  H   H102      1.0  0.14706  0.09350  0.53839  1.0000
  C   C66       1.0  0.05315  0.10223  0.80790  1.0000
  H   H103      1.0  0.48731  0.32633  0.83995  1.0000
  N   N6        1.0  0.21602  0.07236  0.58323  1.0000
  H   H104      1.0  0.18979  0.13214  0.60315  1.0000
  Fe  Fe10      1.0  0.47963  0.11908  0.91771  1.0000
  H   H105      1.0  0.32616  0.16369  0.75802  1.0000
  H   H106      1.0  0.29012  0.06162  0.63188  1.0000
  H   H107      1.0  0.17205  0.30988  0.58795  1.0000
  C   C67       1.0  0.16446  0.27173  0.65048  1.0000
  S   S18       1.0  0.41312  0.08886  0.87929  1.0000
  S   S19       1.0  0.48019  0.16302  0.95437  1.0000
  C   C68       1.0  0.45629  0.25134  0.88631  1.0000
  H   H108      1.0  0.29864  0.06750  0.56127  1.0000
  C   C69       1.0  0.03479  0.02082  0.52721  1.0000
  C   C70       1.0  0.28297  0.12285  0.75075  1.0000
  C   C71       1.0  0.28182  0.09391  0.76881  1.0000
  C   C72       1.0  0.32251  0.08352  0.80768  1.0000
  C   C73       1.0  0.36399  0.10228  0.82944  1.0000
  C   C74       1.0  0.36519  0.13120  0.81140  1.0000
  C   C75       1.0  0.32497  0.14129  0.77187  1.0000
  H   H109      1.0  0.32155  0.06102  0.82135  1.0000
  H   H110      1.0  0.39707  0.14581  0.82785  1.0000
  H   H111      1.0  0.15557  0.06320  0.59967  1.0000
  C   C76       1.0  0.43276  0.30260  0.85286  1.0000
  H   H112      1.0  0.27427  0.10059  0.63226  1.0000
  C   C77       1.0  0.46967  0.25278  0.60865  1.0000
  C   C78       1.0  0.03501  0.11189  0.87200  1.0000
  H   H113      1.0  0.48287  0.22870  0.61081  1.0000
  H   H114      1.0  0.33369  0.09581  0.60218  1.0000
  H   H115      1.0  0.38656  0.27286  0.86970  1.0000
  C   C79       1.0  0.20370  0.32275  0.61389  1.0000
  H   H116      1.0  0.45309  0.30187  0.52518  1.0000
  C   C80       1.0  0.44856  0.31263  0.55383  1.0000
  C   C81       1.0  0.06100  0.09587  0.85240  1.0000
  H   H117      1.0  0.27793  0.10704  0.55538  1.0000
  C   C82       1.0  0.20614  0.06033  0.86138  1.0000
  C   C83       1.0  0.20258  0.29625  0.67858  1.0000
  H   H118      1.0  0.18768  0.06493  0.88303  1.0000
  H   H119      1.0  0.44755  0.23050  0.89915  1.0000
  C   C84       1.0  0.44040  0.31816  0.63965  1.0000
  H   H120      1.0  0.23309  0.13940  0.58083  1.0000
  H   H121      1.0  0.20012  0.29801  0.71108  1.0000
  N   N7        1.0  0.49431  0.30822  0.59753  1.0000
  C   C85       1.0  0.18083  0.15990  0.89070  1.0000
  H   H122      1.0  0.24436  0.09673  0.93584  1.0000
  C   C86       1.0  0.42182  0.27539  0.86962  1.0000
  H   H123      1.0  0.23665  0.30846  0.62088  1.0000
  H   H124      1.0  0.14242  0.16610  0.88249  1.0000
  H   H125      1.0  0.23808  0.04501  0.87929  1.0000
  H   H126      1.0  0.13044  0.04378  0.51673  1.0000
  H   H127      1.0  0.41660  0.30067  0.55395  1.0000
  H   H128      1.0  0.04114  0.10677  0.90621  1.0000
  C   C87       1.0  0.48504  0.05544  0.82355  1.0000
  C   C88       1.0  0.18706  0.09801  0.55194  1.0000
  H   H129      1.0  0.20012  0.08761  0.63768  1.0000
  H   H130      1.0  0.43322  0.25355  0.57913  1.0000
  S   S20       1.0  0.06677  0.29280  0.52532  1.0000
  H   H131      1.0  0.50104  0.07898  0.82993  1.0000
  H   H132      1.0  0.27857  0.32399  0.75153  1.0000
  H   H133      1.0  0.23966  0.02660  0.57401  1.0000
  H   H134      1.0  0.08973  0.22842  0.53201  1.0000
  C   C89       1.0  0.01096  0.24252  0.59555  1.0000
  H   H135      1.0  0.19397  0.09919  0.52153  1.0000
  C   C90       1.0  0.01965  0.12504  0.78334  1.0000
  H   H136      1.0  0.23563  0.02201  0.63831  1.0000
  S   S21       1.0  0.02140  0.09311  0.64725  1.0000
  C   C91       1.0  0.16110  0.02778  0.53551  1.0000
  H   H137      1.0  0.15488  0.01622  0.56251  1.0000
  Fe  Fe11      1.0  0.02642  0.33808  0.51421  1.0000
  H   H138      1.0  0.15999  0.00952  0.51143  1.0000
  H   H139      1.0  0.49729  0.00806  0.93781  1.0000
  H   H140      1.0  0.01019  0.04070  0.83140  1.0000
  H   H141      1.0  0.01297  0.29047  0.57939  1.0000
  Fe  Fe12      1.0  0.06837  0.40150  0.19801  1.0000
  S   S22       1.0  0.14049  0.38001  0.21080  1.0000
  Fe  Fe13      1.0  0.06849  0.44437  0.12317  1.0000
  S   S23       1.0  0.14083  0.42644  0.13094  1.0000
  Fe  Fe14      1.0  0.11092  0.37960  0.13515  1.0000
  S   S24       1.0  0.09388  0.44988  0.19832  1.0000
  Fe  Fe15      1.0  0.08713  0.61965  0.45728  1.0000
  C   C92       1.0  0.16896  0.51130  0.10843  1.0000
  Fe  Fe16      1.0  0.16418  0.42829  0.20584  1.0000
  S   S25       1.0  0.23353  0.45026  0.25846  1.0000
  C   C93       1.0  0.24135  0.60727  0.44833  1.0000
  C   C94       1.0  0.21192  0.60464  0.47111  1.0000
  S   S26       1.0  0.14731  0.60314  0.43894  1.0000
  S   S27       1.0  0.03680  0.39738  0.12212  1.0000
  C   C95       1.0  0.05408  0.42315  0.30615  1.0000
  N   N8        1.0  0.15711  0.53544  0.13506  1.0000
  H   H142      1.0  0.22417  0.61034  0.41201  1.0000
  C   C96       1.0  0.11260  0.55378  0.10429  1.0000
  C   C97       1.0  0.19987  0.55639  0.16135  1.0000
  C   C98       1.0  0.05549  0.43316  0.34741  1.0000
  C   C99       1.0  0.21557  0.49219  0.13551  1.0000
  H   H143      1.0  0.07200  0.43642  0.29003  1.0000
  H   H144      1.0  0.13762  0.49498  0.09221  1.0000
  H   H145      1.0  0.17370  0.52126  0.07973  1.0000
  C   C100      1.0  0.14467  0.51850  0.16867  1.0000
  H   H146      1.0  0.07458  0.45422  0.36287  1.0000
  H   H147      1.0  0.07849  0.54065  0.09692  1.0000
  S   S28       1.0  0.04951  0.59304  0.49162  1.0000
  H   H148      1.0  0.22956  0.54399  0.18990  1.0000
  H   H149      1.0  0.10968  0.57533  0.12130  1.0000
  H   H150      1.0  0.18902  0.57477  0.17862  1.0000
  H   H151      1.0  0.11664  0.46621  0.47202  1.0000
  C   C101      1.0  0.03239  0.41604  0.36865  1.0000
  H   H152      1.0  0.08773  0.54841  0.17240  1.0000
  H   H153      1.0  0.14938  0.55638  0.21564  1.0000
  C   C102      1.0  0.12366  0.53819  0.19501  1.0000
  S   S29       1.0  0.03195  0.43040  0.41873  1.0000
  C   C103      1.0  0.02882  0.39617  0.28550  1.0000
  H   H154      1.0  0.11738  0.50002  0.15137  1.0000
  C   C104      1.0  0.15205  0.47445  0.49862  1.0000
  H   H155      1.0  0.17724  0.50660  0.19476  1.0000
  H   H156      1.0  0.21994  0.47509  0.11246  1.0000
  H   H157      1.0  0.24893  0.50676  0.14924  1.0000
  H   H158      1.0  0.21361  0.47888  0.16329  1.0000
  S   S30       1.0  0.02461  0.48404  0.07786  1.0000
  H   H159      1.0  0.11714  0.52298  0.21890  1.0000
  C   C105      1.0  0.02035  0.49802  0.02551  1.0000
  H   H160      1.0  0.18721  0.44894  0.46446  1.0000
  H   H161      1.0  0.08089  0.50210  0.42507  1.0000
  C   C106      1.0  0.18863  0.47255  0.47811  1.0000
  C   C107      1.0  0.08788  0.52615  0.43725  1.0000
  H   H162      1.0  0.05535  0.53542  0.43995  1.0000
  S   S31       1.0  0.01561  0.63098  0.39743  1.0000
  C   C108      1.0  0.13463  0.53059  0.48194  1.0000
  H   H163      1.0  0.09217  0.53899  0.41008  1.0000
  H   H164      1.0  0.17904  0.48868  0.44939  1.0000
  H   H165      1.0  0.16532  0.53565  0.47326  1.0000
  H   H166      1.0  0.12987  0.55291  0.49593  1.0000
  Fe  Fe17      1.0  0.01091  0.39935  0.46286  1.0000
  H   H167      1.0  0.10136  0.54286  0.03497  1.0000
  C   C109      1.0  0.10823  0.56314  0.05750  1.0000
  H   H168      1.0  0.14019  0.57608  0.05927  1.0000
  H   H169      1.0  0.26224  0.35655  0.22746  1.0000
  C   C110      1.0  0.22295  0.57339  0.13447  1.0000
  H   H170      1.0  0.22200  0.56021  0.10542  1.0000
  H   H171      1.0  0.07580  0.57831  0.04057  1.0000
  H   H172      1.0  0.20524  0.59612  0.12255  1.0000
  H   H173      1.0  0.04368  0.49256  0.47439  1.0000
  S   S32       1.0  0.02369  0.38325  0.23260  1.0000
  H   H174      1.0  0.02056  0.39717  0.02249  1.0000
  S   S33       1.0  0.08960  0.66392  0.49329  1.0000
  H   H175      1.0  0.01714  0.52353  0.33687  1.0000
  H   H176      1.0  0.06829  0.46444  0.01831  1.0000
  H   H177      1.0  0.22684  0.47654  0.50380  1.0000
  H   H178      1.0  0.26247  0.57729  0.15678  1.0000
  C   C111      1.0  0.06380  0.48553  0.51009  1.0000
  H   H179      1.0  0.42555  0.33954  0.27267  1.0000
  S   S34       1.0  0.12175  0.33992  0.09591  1.0000
  H   H180      1.0  0.50052  0.35735  0.02455  1.0000
  Fe  Fe18      1.0  0.49594  0.39210  0.39592  1.0000
  H   H181      1.0  0.43031  0.66449  0.03638  1.0000
  H   H182      1.0  0.34210  0.48533  0.38603  1.0000
  H   H183      1.0  0.39608  0.54834  0.41629  1.0000
  H   H184      1.0  0.41725  0.34275  0.34524  1.0000
  C   C112      1.0  0.50121  0.61208  0.37152  1.0000
  H   H185      1.0  0.49090  0.62726  0.06732  1.0000
  H   H186      1.0  0.49730  0.52963  0.46257  1.0000
  C   C113      1.0  0.49464  0.50646  0.44750  1.0000
  H   H187      1.0  0.48557  0.41699  0.01497  1.0000
  H   H188      1.0  0.44750  0.56259  0.41084  1.0000
  H   H189      1.0  0.34126  0.56649  0.33566  1.0000
  H   H190      1.0  0.43210  0.48322  0.30582  1.0000
  H   H191      1.0  0.49616  0.58769  0.06125  1.0000
  H   H192      1.0  0.39161  0.60832  0.03391  1.0000
  H   H193      1.0  0.37477  0.48335  0.33011  1.0000
  C   C114      1.0  0.30938  0.42714  0.24366  1.0000
  H   H194      1.0  0.46187  0.63230  0.30549  1.0000
  S   S35       1.0  0.46628  0.63229  0.39385  1.0000
  H   H195      1.0  0.30751  0.43232  0.34570  1.0000
  H   H196      1.0  0.35317  0.52033  0.30926  1.0000
  H   H197      1.0  0.48373  0.53713  0.37134  1.0000
  H   H198      1.0  0.43455  0.61142  0.09137  1.0000
  Fe  Fe19      1.0  0.48162  0.63432  0.46780  1.0000
  C   C115      1.0  0.36969  0.50670  0.34108  1.0000
  C   C116      1.0  0.38941  0.41473  0.30489  1.0000
  C   C117      1.0  0.29277  0.60546  0.47195  1.0000
  H   H199      1.0  0.37727  0.59596  0.37296  1.0000
  H   H200      1.0  0.37298  0.41518  0.23423  1.0000
  S   S36       1.0  0.42555  0.65696  0.48521  1.0000
  S   S37       1.0  0.46144  0.37110  0.43653  1.0000
  C   C118      1.0  0.33113  0.50311  0.35921  1.0000
  H   H201      1.0  0.31480  0.60722  0.45381  1.0000
  C   C119      1.0  0.42757  0.59987  0.05895  1.0000
  H   H202      1.0  0.39553  0.58095  0.33248  1.0000
  C   C120      1.0  0.49023  0.61625  0.32578  1.0000
  H   H203      1.0  0.32312  0.52498  0.37189  1.0000
  C   C121      1.0  0.35858  0.41850  0.25860  1.0000
  C   C122      1.0  0.47014  0.60707  0.04698  1.0000
  H   H204      1.0  0.29621  0.49514  0.33118  1.0000
  N   N9        1.0  0.41810  0.52014  0.37385  1.0000
  S   S38       1.0  0.45134  0.40502  0.32260  1.0000
  C   C123      1.0  0.44952  0.52460  0.34959  1.0000
  H   H205      1.0  0.43081  0.53957  0.31941  1.0000
  C   C124      1.0  0.44180  0.49833  0.41320  1.0000
  H   H206      1.0  0.42036  0.49713  0.43307  1.0000
  H   H207      1.0  0.44183  0.47432  0.40122  1.0000
  C   C125      1.0  0.46417  0.49501  0.33259  1.0000
  H   H208      1.0  0.28637  0.43101  0.20804  1.0000
  C   C126      1.0  0.32147  0.42800  0.32124  1.0000
  H   H209      1.0  0.34122  0.35971  0.29192  1.0000
  C   C127      1.0  0.37940  0.57449  0.35553  1.0000
  C   C128      1.0  0.29090  0.43246  0.27504  1.0000
  H   H210      1.0  0.39387  0.41631  0.37189  1.0000
  C   C129      1.0  0.37047  0.41899  0.33614  1.0000
  H   H211      1.0  0.42471  0.57462  0.06298  1.0000
  C   C130      1.0  0.41152  0.55100  0.39156  1.0000
  H   H212      1.0  0.48462  0.47855  0.36018  1.0000
  H   H213      1.0  0.43826  0.48641  0.01319  1.0000
  H   H214      1.0  0.34589  0.34035  0.24656  1.0000
  H   H215      1.0  0.48872  0.50147  0.31714  1.0000
  H   H216      1.0  0.50695  0.60352  0.27073  1.0000
  H   H217      1.0  0.50703  0.48958  0.47569  1.0000
  H   H218      1.0  0.32406  0.67107  0.46590  1.0000
  S   S39       1.0  0.48737  0.59272  0.51013  1.0000
  S   S40       1.0  0.07205  0.42105  0.62993  1.0000
  C   C131      1.0  0.16796  0.42923  0.69253  1.0000
  C   C132      1.0  0.13488  0.42757  0.64645  1.0000
  C   C133      1.0  0.15218  0.43166  0.61404  1.0000
  H   H219      1.0  0.15498  0.42588  0.71786  1.0000
  H   H220      1.0  0.12713  0.43081  0.57857  1.0000
  C   C134      1.0  0.07698  0.46767  0.73084  1.0000
  C   C135      1.0  0.21798  0.43519  0.70604  1.0000
  C   C136      1.0  0.20187  0.43788  0.62748  1.0000
  H   H221      1.0  0.21501  0.44113  0.60227  1.0000
  H   H222      1.0  0.11783  0.48945  0.70022  1.0000
  C   C137      1.0  0.09229  0.49710  0.71408  1.0000
  H   H223      1.0  0.11042  0.45511  0.75406  1.0000
  H   H224      1.0  0.11501  0.51124  0.74440  1.0000
  H   H225      1.0  0.42672  0.42350  0.65225  1.0000
  Fe  Fe20      1.0  0.40782  0.37728  0.80852  1.0000
  Fe  Fe21      1.0  0.36141  0.43167  0.74684  1.0000
  S   S41       1.0  0.43411  0.45521  0.76697  1.0000
  S   S42       1.0  0.29528  0.45180  0.68787  1.0000
  Fe  Fe22      1.0  0.45141  0.44159  0.83866  1.0000
  S   S43       1.0  0.38708  0.38555  0.73505  1.0000
  S   S44       1.0  0.37604  0.42194  0.81885  1.0000
  C   C138      1.0  0.23486  0.43996  0.67338  1.0000
  H   H226      1.0  0.24316  0.43699  0.74158  1.0000
  H   H227      1.0  0.43229  0.46737  0.93973  1.0000
  H   H228      1.0  0.41130  0.43481  0.57305  1.0000
  C   C139      1.0  0.41980  0.63643  0.97671  1.0000
  C   C140      1.0  0.44662  0.42617  0.59690  1.0000
  H   H229      1.0  0.41577  0.64218  0.94232  1.0000
  C   C141      1.0  0.28592  0.59733  0.54139  1.0000
  H   H230      1.0  0.30294  0.59289  0.57739  1.0000
  C   C142      1.0  0.45527  0.41982  0.64171  1.0000
  Fe  Fe23      1.0  0.46038  0.40841  0.75916  1.0000
  S   S45       1.0  0.37946  0.59393  0.54870  1.0000
  C   C143      1.0  0.42061  0.58046  0.92256  1.0000
  H   H231      1.0  0.21250  0.59844  0.53597  1.0000
  N   N10       1.0  0.45671  0.61099  0.99748  1.0000
  C   C144      1.0  0.46427  0.48010  0.96249  1.0000
  H   H232      1.0  0.38251  0.62907  0.97083  1.0000
  C   C145      1.0  0.43509  0.58113  0.97369  1.0000
  H   H233      1.0  0.40149  0.57517  0.97736  1.0000
  H   H234      1.0  0.38930  0.59598  0.90354  1.0000
  H   H235      1.0  0.05728  0.48951  0.62627  1.0000
  N   N11       1.0  0.05112  0.51589  0.67958  1.0000
  H   H236      1.0  0.18272  0.53343  0.60941  1.0000
  C   C146      1.0  0.43490  0.39012  0.93323  1.0000
  H   H237      1.0  0.09099  0.55835  0.70668  1.0000
  H   H238      1.0  0.05620  0.47292  0.75035  1.0000
  C   C147      1.0  0.10809  0.54466  0.65303  1.0000
  H   H239      1.0  0.41982  0.34019  0.62991  1.0000
  H   H240      1.0  0.40031  0.38323  0.90381  1.0000
  H   H241      1.0  0.11971  0.56850  0.65000  1.0000
  H   H242      1.0  0.40265  0.53099  0.59780  1.0000
  H   H243      1.0  0.45148  0.58637  0.91486  1.0000
  Fe  Fe24      1.0  0.02957  0.39838  0.56149  1.0000
  H   H244      1.0  0.42631  0.39103  0.96250  1.0000
  H   H245      1.0  0.05541  0.45170  0.70280  1.0000
  H   H246      1.0  0.21338  0.49315  0.57750  1.0000
  C   C148      1.0  0.01258  0.52291  0.94288  1.0000
  H   H247      1.0  0.12834  0.49330  0.57078  1.0000
  C   C149      1.0  0.02768  0.62709  0.61975  1.0000
  C   C150      1.0  0.03860  0.63266  0.66522  1.0000
  H   H248      1.0  0.07090  0.64584  0.68630  1.0000
  H   H249      1.0  0.14155  0.53168  0.67493  1.0000
  H   H250      1.0  0.44461  0.41314  0.92523  1.0000
  H   H251      1.0  0.09156  0.53472  0.61851  1.0000
  H   H252      1.0  0.22716  0.37329  0.67872  1.0000
  C   C151      1.0  0.41402  0.50915  0.58789  1.0000
  C   C152      1.0  0.07153  0.54627  0.67365  1.0000
  H   H253      1.0  0.41623  0.49027  0.61132  1.0000
  H   H254      1.0  0.17642  0.36767  0.58015  1.0000
  H   H255      1.0  0.15457  0.36235  0.70627  1.0000
  H   H256      1.0  0.01651  0.62611  0.71858  1.0000
  C   C153      1.0  0.46773  0.49104  0.00420  1.0000
  C   C154      1.0  0.02864  0.49803  0.63576  1.0000
  H   H257      1.0  0.05870  0.52577  0.76902  1.0000
  H   H258      1.0  0.47360  0.36188  0.90635  1.0000
  C   C155      1.0  0.47382  0.36560  0.93986  1.0000
  H   H259      1.0  0.17951  0.56112  0.56735  1.0000
  H   H260      1.0  0.45925  0.34398  0.94734  1.0000
  H   H261      1.0  0.04085  0.56238  0.73990  1.0000
  C   C156      1.0  0.19857  0.54032  0.58627  1.0000
  H   H262      1.0  0.38413  0.50275  0.55440  1.0000
  H   H263      1.0  0.03888  0.48909  0.52608  1.0000
  S   S46       1.0  0.07185  0.38065  0.52586  1.0000
  Fe  Fe25      1.0  0.43665  0.61739  0.53214  1.0000
  H   H264      1.0  0.40878  0.55671  0.90963  1.0000
  S   S47       1.0  0.06814  0.64063  0.59850  1.0000
  H   H265      1.0  0.09369  0.35419  0.66580  1.0000
  H   H266      1.0  0.04166  0.56220  0.65261  1.0000
  S   S48       1.0  0.47144  0.42971  0.52650  1.0000
  C   C157      1.0  0.04177  0.49684  0.96260  1.0000
  S   S49       1.0  0.48357  0.39620  0.83212  1.0000
  C   C158      1.0  0.43159  0.66699  0.00342  1.0000
  C   C159      1.0  0.11126  0.50408  0.53656  1.0000
  C   C160      1.0  0.31529  0.59981  0.51850  1.0000
  H   H267      1.0  0.46041  0.56159  0.98979  1.0000
  C   C161      1.0  0.23460  0.60036  0.51801  1.0000
  H   H268      1.0  0.22391  0.51941  0.54154  1.0000
  C   C162      1.0  0.19731  0.51339  0.55502  1.0000
  H   H269      1.0  0.06150  0.48620  0.94592  1.0000
  C   C163      1.0  0.04570  0.48444  0.00366  1.0000
  C   C164      1.0  0.02919  0.53831  0.74102  1.0000
  H   H270      1.0  0.10021  0.52772  0.54149  1.0000
  H   H271      1.0  0.24220  0.36566  0.61110  1.0000
  H   H272      1.0  0.35556  0.64335  0.60434  1.0000
  C   C165      1.0  0.20853  0.35241  0.59017  1.0000
  H   H273      1.0  0.23728  0.54685  0.60795  1.0000
  Fe  Fe26      1.0  0.04647  0.63824  0.52339  1.0000
  H   H274      1.0  0.45884  0.51457  0.67838  1.0000
  H   H275      1.0  0.43327  0.36010  0.56891  1.0000
  C   C166      1.0  0.23798  0.34882  0.68745  1.0000
  S   S50       1.0  0.00794  0.60411  0.81394  1.0000
  H   H276      1.0  0.16255  0.45665  0.52556  1.0000
  H   H277      1.0  0.35686  0.65927  0.53797  1.0000
  C   C167      1.0  0.01202  0.52208  0.69476  1.0000
  H   H278      1.0  0.48600  0.47852  0.70095  1.0000
  H   H279      1.0  0.45657  0.35774  0.52723  1.0000
  N   N12       1.0  0.14772  0.50553  0.51703  1.0000
  H   H280      1.0  0.28097  0.36487  0.75656  1.0000
  C   C168      1.0  0.48317  0.42098  0.58268  1.0000
  H   H281      1.0  0.49796  0.34654  0.64065  1.0000
  H   H282      1.0  0.14543  0.36452  0.62848  1.0000
  H   H283      1.0  0.28386  0.66640  0.59365  1.0000
  C   C169      1.0  0.46184  0.51221  0.58314  1.0000
  H   H284      1.0  0.01023  0.47684  0.63955  1.0000
  H   H285      1.0  0.46766  0.48910  0.57192  1.0000
  H   H286      1.0  0.04746  0.38050  0.95198  1.0000
  C   C170      1.0  0.37558  0.66532  0.60788  1.0000
  H   H287      1.0  0.41539  0.66025  0.62562  1.0000
  H   H288      1.0  0.46690  0.55565  0.64585  1.0000
  H   H289      1.0  0.45434  0.52814  0.55429  1.0000
  H   H290      1.0  0.22273  0.66590  0.55033  1.0000
  H   H291      1.0  0.27171  0.34573  0.68266  1.0000
  C   C171      1.0  0.02586  0.35894  0.94002  1.0000
  S   S51       1.0  0.00955  0.53764  0.89129  1.0000
  C   C172      1.0  0.25633  0.34524  0.73904  1.0000
  C   C173      1.0  0.00784  0.62151  0.68356  1.0000
  C   C174      1.0  0.13171  0.34515  0.68093  1.0000
  C   C175      1.0  0.43296  0.34636  0.54048  1.0000
  H   H292      1.0  0.22680  0.34504  0.74976  1.0000
  H   H293      1.0  0.48706  0.57049  0.60768  1.0000
  C   C176      1.0  0.49803  0.55472  0.63723  1.0000
  C   C177      1.0  0.14782  0.34126  0.64317  1.0000
  H   H294      1.0  0.21077  0.34587  0.55855  1.0000
  H   H295      1.0  0.04343  0.34727  0.00869  1.0000
  H   H296      1.0  0.05018  0.34186  0.93505  1.0000
  H   H297      1.0  0.27217  0.66366  0.51104  1.0000
  H   H298      1.0  0.07124  0.46042  0.51172  1.0000
  S   S52       1.0  0.49820  0.64044  0.59107  1.0000
  H   H299      1.0  0.49336  0.62824  0.95843  1.0000
  C   C178      1.0  0.50240  0.61945  0.99294  1.0000
  C   C179      1.0  0.49400  0.50215  0.69301  1.0000
  S   S53       1.0  0.50032  0.47267  0.89834  1.0000
  C   C180      1.0  0.50192  0.48601  0.95021  1.0000
  C   C181      1.0  0.50086  0.40865  0.67274  1.0000
  C   C182      1.0  0.01034  0.34645  0.97553  1.0000
  N   N13       1.0  0.50666  0.52269  0.62444  1.0000
  H   H300      1.0  0.39514  0.34687  0.51270  1.0000
  S   S54       1.0  0.06709  0.86638  0.04190  1.0000
  H   H301      1.0  0.08533  0.94277  0.11802  1.0000
  H   H302      1.0  0.08520  0.94369  0.17189  1.0000
  H   H303      1.0  0.13498  0.96100  0.16581  1.0000
  C   C183      1.0  0.09492  0.95729  0.14849  1.0000
  C   C184      1.0  0.06551  0.98764  0.13702  1.0000
  H   H304      1.0  0.02640  0.98073  0.12010  1.0000
  H   H305      1.0  0.08561  0.97501  0.06557  1.0000
  Fe  Fe27      1.0  0.01605  0.67411  0.43562  1.0000
  C   C185      1.0  0.15882  0.80310  0.04315  1.0000
  S   S55       1.0  0.17571  0.89881  0.02808  1.0000
  H   H306      1.0  0.18624  0.82022  0.06503  1.0000
  H   H307      1.0  0.02452  0.98700  0.04752  1.0000
  C   C186      1.0  0.01488  0.88372  0.17472  1.0000
  H   H308      1.0  0.25006  0.79738  0.05524  1.0000
  C   C187      1.0  0.24150  0.80241  0.01941  1.0000
  H   H309      1.0  0.21710  0.74962  0.03406  1.0000
  H   H310      1.0  0.03636  0.86371  0.19154  1.0000
  C   C188      1.0  0.06285  0.99571  0.06244  1.0000
  H   H311      1.0  0.02164  0.87942  0.49119  1.0000
  H   H312      1.0  0.02740  0.87841  0.11547  1.0000
  H   H313      1.0  0.16856  0.77992  0.05846  1.0000
  H   H314      1.0  0.07055  0.99849  0.16941  1.0000
  H   H315      1.0  0.12329  0.80943  0.04265  1.0000
  H   H316      1.0  0.02035  0.96446  0.44911  1.0000
  H   H317      1.0  0.23932  0.82792  0.01664  1.0000
  H   H318      1.0  0.24321  0.70021  0.50208  1.0000
  H   H319      1.0  0.15254  0.99826  0.12649  1.0000
  C   C189      1.0  0.04325  0.99356  0.50859  1.0000
  C   C190      1.0  0.01357  0.98551  0.46300  1.0000
  C   C191      1.0  0.00989  0.89202  0.13163  1.0000
  H   H320      1.0  0.13843  0.73380  0.01254  1.0000
  C   C192      1.0  0.26950  0.89177  0.03766  1.0000
  H   H321      1.0  0.45555  0.92135  0.10338  1.0000
  H   H322      1.0  0.47646  0.82666  0.47410  1.0000
  S   S56       1.0  0.46690  0.90539  0.01377  1.0000
  S   S57       1.0  0.46352  0.83731  0.05836  1.0000
  N   N14       1.0  0.48872  0.90740  0.47591  1.0000
  H   H323      1.0  0.26506  0.68960  0.44245  1.0000
  C   C193      1.0  0.30537  0.88405  0.02327  1.0000
  C   C194      1.0  0.47983  0.84951  0.49047  1.0000
  H   H324      1.0  0.44916  0.90747  0.37687  1.0000
  H   H325      1.0  0.34975  0.98588  0.09998  1.0000
  H   H326      1.0  0.49105  0.96502  0.10181  1.0000
  H   H327      1.0  0.31330  0.70448  0.43139  1.0000
  H   H328      1.0  0.44842  0.87226  0.42655  1.0000
  C   C195      1.0  0.43389  0.92601  0.12222  1.0000
  H   H329      1.0  0.44726  0.85210  0.49669  1.0000
  H   H330      1.0  0.29872  0.73612  0.48789  1.0000
  C   C196      1.0  0.47270  0.99734  0.23133  1.0000
  H   H331      1.0  0.46761  0.94634  0.37542  1.0000
  C   C197      1.0  0.49850  0.92745  0.44339  1.0000
  H   H332      1.0  0.42233  0.93902  0.39442  1.0000
  C   C198      1.0  0.28702  0.79268  0.01349  1.0000
  C   C199      1.0  0.42785  0.99561  0.12365  1.0000
  H   H333      1.0  0.40939  0.90857  0.44937  1.0000
  H   H334      1.0  0.43843  0.94445  0.47090  1.0000
  H   H335      1.0  0.39822  0.93628  0.09918  1.0000
  C   C200      1.0  0.30518  0.69356  0.45777  1.0000
  N   N15       1.0  0.47288  0.97862  0.15611  1.0000
  H   H336      1.0  0.32033  0.80172  0.04244  1.0000
  C   C201      1.0  0.49487  0.74486  0.07756  1.0000
  C   C202      1.0  0.45652  0.92983  0.39498  1.0000
  H   H337      1.0  0.35980  0.72321  0.50599  1.0000
  H   H338      1.0  0.28068  0.89854  0.07244  1.0000
  H   H339      1.0  0.42603  0.90321  0.13281  1.0000
  C   C203      1.0  0.49848  0.99584  0.20034  1.0000
  H   H340      1.0  0.49705  0.93371  0.18620  1.0000
  C   C204      1.0  0.32239  0.71526  0.49925  1.0000
  H   H341      1.0  0.34376  0.88484  0.04683  1.0000
  H   H342      1.0  0.47299  0.76552  0.07090  1.0000
  H   H343      1.0  0.46797  0.97447  0.24367  1.0000
  C   C205      1.0  0.38147  0.99354  0.13152  1.0000
  C   C206      1.0  0.48997  0.72139  0.10459  1.0000
  C   C207      1.0  0.44244  0.91908  0.47707  1.0000
  H   H344      1.0  0.44120  0.94486  0.18471  1.0000
  H   H345      1.0  0.38391  0.97778  0.15862  1.0000
  H   H346      1.0  0.41706  0.98793  0.08822  1.0000
  H   H347      1.0  0.46410  0.72406  0.11859  1.0000
  C   C208      1.0  0.48243  0.87467  0.45873  1.0000
  C   C209      1.0  0.46226  0.94596  0.16478  1.0000
  Fe  Fe28      1.0  0.50367  0.81865  0.02067  1.0000
  H   H348      1.0  0.29074  0.76732  0.01285  1.0000
  H   H349      1.0  0.50728  0.95135  0.45675  1.0000
  H   H350      1.0  0.10590  0.79436  0.90196  1.0000
  S   S58       1.0  0.04951  0.85842  0.93601  1.0000
  C   C210      1.0  0.13799  0.78325  0.90084  1.0000
  C   C211      1.0  0.20531  0.88158  0.96273  1.0000
  S   S59       1.0  0.03566  0.92614  0.97399  1.0000
  H   H351      1.0  0.16692  0.88061  0.93916  1.0000
  H   H352      1.0  0.13757  0.79039  0.86832  1.0000
  C   C212      1.0  0.18665  0.79372  0.93979  1.0000
  H   H353      1.0  0.13433  0.75782  0.89927  1.0000
  C   C213      1.0  0.29132  0.87512  0.97843  1.0000
  H   H354      1.0  0.23002  0.86751  0.91343  1.0000
  S   S60       1.0  0.45519  0.84171  0.95477  1.0000
  C   C214      1.0  0.24118  0.87417  0.94826  1.0000
  S   S61       1.0  0.33436  0.86393  0.95848  1.0000
  H   H355      1.0  0.11682  0.79511  0.97225  1.0000
  H   H356      1.0  0.21553  0.78201  0.93354  1.0000
  H   H357      1.0  0.19047  0.81874  0.93482  1.0000
  H   H358      1.0  0.32466  0.72081  0.60383  1.0000
  H   H359      1.0  0.37688  0.76471  0.61356  1.0000
  H   H360      1.0  0.24786  0.70145  0.57762  1.0000
  H   H361      1.0  0.14962  0.71294  0.97194  1.0000
  H   H362      1.0  0.01612  0.95570  0.57644  1.0000
  C   C215      1.0  0.14657  0.73668  0.98308  1.0000
  H   H363      1.0  0.41561  0.96878  0.88838  1.0000
  Fe  Fe29      1.0  0.09355  0.88911  0.99528  1.0000
  C   C216      1.0  0.15369  0.80413  0.99449  1.0000
  C   C217      1.0  0.36366  0.67915  0.56110  1.0000
  Fe  Fe30      1.0  0.41805  0.86331  0.99416  1.0000
  H   H364      1.0  0.04520  0.98957  0.84911  1.0000
  H   H365      1.0  0.41706  0.95757  0.83614  1.0000
  H   H366      1.0  0.44497  0.88615  0.78597  1.0000
  H   H367      1.0  0.46316  0.88636  0.86723  1.0000
  H   H368      1.0  0.40848  0.73132  0.60905  1.0000
  N   N16       1.0  0.19345  0.78786  0.98733  1.0000
  H   H369      1.0  0.07265  0.97841  0.52968  1.0000
  S   S62       1.0  0.01568  0.69281  0.84359  1.0000
  H   H370      1.0  0.44254  0.00477  0.77414  1.0000
  C   C218      1.0  0.32781  0.72828  0.57314  1.0000
  C   C219      1.0  0.37640  0.74627  0.58998  1.0000
  N   N17       1.0  0.32204  0.70184  0.54144  1.0000
  C   C220      1.0  0.19583  0.75372  0.99704  1.0000
  H   H371      1.0  0.21616  0.74153  0.98088  1.0000
  Fe  Fe31      1.0  0.01932  0.83815  0.98095  1.0000
  H   H372      1.0  0.11477  0.74711  0.95497  1.0000
  H   H373      1.0  0.06245  0.97067  0.90191  1.0000
  C   C221      1.0  0.25695  0.67980  0.56510  1.0000
  H   H374      1.0  0.36871  0.68092  0.63085  1.0000
  H   H375      1.0  0.44357  0.96328  0.77719  1.0000
  H   H376      1.0  0.44693  0.89166  0.53606  1.0000
  H   H377      1.0  0.02963  0.75776  0.85311  1.0000
  C   C222      1.0  0.40699  0.97619  0.85345  1.0000
  H   H378      1.0  0.39818  0.68900  0.56291  1.0000
  C   C223      1.0  0.27322  0.68612  0.52776  1.0000
  H   H379      1.0  0.38077  0.75779  0.56200  1.0000
  C   C224      1.0  0.01888  0.77129  0.91107  1.0000
  C   C225      1.0  0.03053  0.97937  0.87143  1.0000
  H   H380      1.0  0.36663  0.97900  0.83540  1.0000
  C   C226      1.0  0.01070  0.71874  0.88240  1.0000
  H   H381      1.0  0.15215  0.82891  0.98504  1.0000
  H   H382      1.0  0.46104  0.93204  0.54699  1.0000
  H   H383      1.0  0.39943  0.91984  0.51508  1.0000
  H   H384      1.0  0.28692  0.80305  0.98266  1.0000
  C   C227      1.0  0.21930  0.89029  0.00762  1.0000
  H   H385      1.0  0.29740  0.74509  0.55664  1.0000
  H   H386      1.0  0.05583  0.00369  0.99482  1.0000
  C   C228      1.0  0.02066  0.75001  0.87971  1.0000
  N   N18       1.0  0.48616  0.00584  0.86803  1.0000
  S   S63       1.0  0.47384  0.72703  0.56096  1.0000
  C   C229      1.0  0.46640  0.98450  0.78751  1.0000
  H   H387      1.0  0.46791  0.78538  0.59871  1.0000
  H   H388      1.0  0.02599  0.79533  0.90827  1.0000
  H   H389      1.0  0.40367  0.68446  0.98375  1.0000
  C   C230      1.0  0.43770  0.91498  0.52144  1.0000
  C   C231      1.0  0.00845  0.76129  0.94613  1.0000
  H   H390      1.0  0.48977  0.98323  0.76951  1.0000
  C   C232      1.0  0.50140  0.78530  0.59499  1.0000
  H   H391      1.0  0.49751  0.97004  0.91774  1.0000
  C   C233      1.0  0.49064  0.89395  0.85709  1.0000
  Fe  Fe32      1.0  0.50705  0.88194  0.97900  1.0000
  Fe  Fe33      1.0  0.48982  0.67914  0.54276  1.0000
  C   C234      1.0  0.48035  0.89399  0.81103  1.0000
  H   H392      1.0  0.49923  0.96029  0.85009  1.0000
  S   S64       1.0  0.49918  0.90564  0.73856  1.0000
  C   C235      1.0  0.49957  0.98442  0.83920  1.0000
  H   H393      1.0  0.46760  0.67641  0.00895  1.0000
  H   H394      1.0  0.55339  0.01876  0.15987  1.0000
  H   H395      1.0  0.66695  0.01349  0.03727  1.0000
  H   H396      1.0  0.72114  0.09516  0.20283  1.0000
  C   C236      1.0  0.52862  0.00748  0.12755  1.0000
  H   H397      1.0  0.65429  0.06826  0.19098  1.0000
  C   C237      1.0  0.71032  0.12009  0.08595  1.0000
  H   H398      1.0  0.74664  0.10915  0.10444  1.0000
  C   C238      1.0  0.81384  0.27685  0.40949  1.0000
  C   C239      1.0  0.91511  0.24567  0.47295  1.0000
  H   H399      1.0  0.74782  0.05750  0.13720  1.0000
  H   H400      1.0  0.63154  0.10493  0.16245  1.0000
  C   C240      1.0  0.66238  0.02273  0.06662  1.0000
  N   N19       1.0  0.87527  0.25374  0.48667  1.0000
  C   C241      1.0  0.67245  0.10850  0.10171  1.0000
  H   H401      1.0  0.69910  0.06295  0.06026  1.0000
  H   H402      1.0  0.55788  0.15021  0.17426  1.0000
  H   H403      1.0  0.83049  0.29955  0.42240  1.0000
  H   H404      1.0  0.00625  0.27451  0.12332  1.0000
  N   N20       1.0  0.67291  0.07430  0.10995  1.0000
  H   H405      1.0  0.90618  0.28379  0.42487  1.0000
  H   H406      1.0  0.90294  0.22679  0.44739  1.0000
  C   C242      1.0  0.62881  0.06617  0.11734  1.0000
  H   H407      1.0  0.93749  0.04724  0.43299  1.0000
  H   H408      1.0  0.59452  0.07345  0.08762  1.0000
  Fe  Fe34      1.0  0.98833  0.17868  0.02790  1.0000
  H   H409      1.0  0.53584  0.29034  0.39823  1.0000
  C   C243      1.0  0.71974  0.06349  0.14892  1.0000
  C   C244      1.0  0.93497  0.27179  0.45396  1.0000
  H   H410      1.0  0.71493  0.14540  0.09115  1.0000
  H   H411      1.0  0.97543  0.05932  0.07768  1.0000
  H   H412      1.0  0.97584  0.01929  0.08987  1.0000
  H   H413      1.0  0.67773  0.12208  0.13206  1.0000
  H   H414      1.0  0.69076  0.01185  0.09749  1.0000
  H   H415      1.0  0.63464  0.06715  0.03743  1.0000
  H   H416      1.0  0.51263  0.12331  0.21062  1.0000
  H   H417      1.0  0.59064  0.07462  0.15828  1.0000
  S   S65       1.0  0.99741  0.13369  0.06501  1.0000
  C   C245      1.0  0.55314  0.00799  0.47767  1.0000
  C   C246      1.0  0.74543  0.08613  0.18881  1.0000
  H   H418      1.0  0.77586  0.07390  0.21672  1.0000
  C   C247      1.0  0.82558  0.25224  0.44654  1.0000
  C   C248      1.0  0.66719  0.05818  0.06724  1.0000
  C   C249      1.0  0.53103  0.13282  0.15555  1.0000
  C   C250      1.0  0.96714  0.03219  0.45398  1.0000
  H   H419      1.0  0.63588  0.11571  0.07533  1.0000
  H   H420      1.0  0.95621  0.28879  0.48066  1.0000
  S   S66       1.0  0.51023  0.03828  0.39569  1.0000
  H   H421      1.0  0.96101  0.26190  0.44227  1.0000
  H   H422      1.0  0.71331  0.04169  0.16330  1.0000
  C   C251      1.0  0.99686  0.04027  0.49951  1.0000
  H   H423      1.0  0.69716  0.11595  0.04916  1.0000
  H   H424      1.0  0.82487  0.26891  0.38331  1.0000
  H   H425      1.0  0.79563  0.25246  0.45721  1.0000
  C   C252      1.0  0.51324  0.02611  0.44862  1.0000
  H   H426      1.0  0.77381  0.28128  0.39299  1.0000
  C   C253      1.0  0.62714  0.07958  0.15986  1.0000
  H   H427      1.0  0.82045  0.22972  0.42890  1.0000
  H   H428      1.0  0.76210  0.10583  0.17931  1.0000
  H   H429      1.0  0.53857  0.31204  0.01401  1.0000
  C   C254      1.0  0.94156  0.31599  0.01042  1.0000
  Fe  Fe35      1.0  0.52524  0.33883  0.46188  1.0000
  H   H430      1.0  0.62580  0.04088  0.12041  1.0000
  H   H431      1.0  0.62542  0.01550  0.06170  1.0000
  H   H432      1.0  0.93953  0.30853  0.04178  1.0000
  C   C255      1.0  0.51941  0.26825  0.39799  1.0000
  H   H433      1.0  0.88963  0.30317  0.48895  1.0000
  H   H434      1.0  0.98103  0.03207  0.03998  1.0000
  C   C256      1.0  0.99214  0.03685  0.07625  1.0000
  H   H435      1.0  0.84145  0.19002  0.47611  1.0000
  S   S67       1.0  0.98804  0.22189  0.06644  1.0000
  C   C257      1.0  0.51568  0.24594  0.36570  1.0000
  S   S68       1.0  0.55725  0.14449  0.08740  1.0000
  H   H436      1.0  0.52903  0.25112  0.34103  1.0000
  C   C258      1.0  0.52217  0.12574  0.11095  1.0000
  H   H437      1.0  0.81002  0.29912  0.49450  1.0000
  Fe  Fe36      1.0  0.54294  0.14127  0.01372  1.0000
  C   C259      1.0  0.87514  0.19595  0.50691  1.0000
  H   H438      1.0  0.94780  0.23645  0.50234  1.0000
  H   H439      1.0  0.90798  0.18946  0.50252  1.0000
  C   C260      1.0  0.88531  0.28470  0.50999  1.0000
  N   N21       1.0  0.69356  0.03533  0.84644  1.0000
  S   S69       1.0  0.98523  0.10002  0.97219  1.0000
  H   H440      1.0  0.76188  0.03128  0.81012  1.0000
  Fe  Fe37      1.0  0.97754  0.14681  0.94160  1.0000
  S   S70       1.0  0.53864  0.09644  0.97873  1.0000
  Fe  Fe38      1.0  0.59217  0.11661  0.95593  1.0000
  Fe  Fe39      1.0  0.93442  0.11725  0.00042  1.0000
  S   S71       1.0  0.54722  0.22534  0.90779  1.0000
  H   H441      1.0  0.90985  0.05579  0.84524  1.0000
  H   H442      1.0  0.53811  0.31609  0.56154  1.0000
  S   S72       1.0  0.92238  0.16290  0.96537  1.0000
  H   H443      1.0  0.87569  0.18123  0.53469  1.0000
  H   H444      1.0  0.95819  0.02530  0.93874  1.0000
  C   C261      1.0  0.73686  0.11390  0.97082  1.0000
  H   H445      1.0  0.59412  0.01343  0.78048  1.0000
  C   C262      1.0  0.77863  0.02911  0.84746  1.0000
  H   H446      1.0  0.80376  0.13513  0.97554  1.0000
  C   C263      1.0  0.79161  0.05955  0.99496  1.0000
  C   C264      1.0  0.66239  0.09084  0.84803  1.0000
  S   S73       1.0  0.53241  0.13557  0.89173  1.0000
  H   H447      1.0  0.57098  0.29665  0.98468  1.0000
  H   H448      1.0  0.96689  0.15816  0.78328  1.0000
  C   C265      1.0  0.66748  0.03168  0.79557  1.0000
  H   H449      1.0  0.58734  0.32877  0.66498  1.0000
  S   S74       1.0  0.87609  0.08339  0.99895  1.0000
  C   C266      1.0  0.97263  0.03075  0.81449  1.0000
  H   H450      1.0  0.68268  0.02827  0.90631  1.0000
  H   H451      1.0  0.92746  0.31184  0.92476  1.0000
  H   H452      1.0  0.95359  0.06236  0.75816  1.0000
  H   H453      1.0  0.94399  0.07822  0.80325  1.0000
  H   H454      1.0  0.76036  0.01902  0.90224  1.0000
  S   S75       1.0  0.60087  0.16009  0.99551  1.0000
  H   H455      1.0  0.92100  0.28431  0.54089  1.0000
  C   C267      1.0  0.94126  0.04276  0.87049  1.0000
  C   C268      1.0  0.94046  0.05670  0.78381  1.0000
  H   H456      1.0  0.63627  0.08310  0.86087  1.0000
  H   H457      1.0  0.59764  0.03410  0.73550  1.0000
  H   H458      1.0  0.98988  0.06131  0.51329  1.0000
  H   H459      1.0  0.86977  0.32884  0.89143  1.0000
  C   C269      1.0  0.81429  0.08661  0.99070  1.0000
  H   H460      1.0  0.85662  0.02474  0.80020  1.0000
  H   H461      1.0  0.67592  0.00897  0.78493  1.0000
  H   H462      1.0  0.67695  0.11336  0.86468  1.0000
  C   C270      1.0  0.99335  0.14086  0.80278  1.0000
  N   N22       1.0  0.95801  0.01747  0.84913  1.0000
  H   H463      1.0  0.79634  0.05112  0.86374  1.0000
  H   H464      1.0  0.60236  0.29851  0.63492  1.0000
  H   H465      1.0  0.00304  0.32152  0.96889  1.0000
  H   H466      1.0  0.54171  0.27059  0.63484  1.0000
  C   C271      1.0  0.66456  0.02247  0.86962  1.0000
  H   H467      1.0  0.90964  0.23292  0.55340  1.0000
  C   C272      1.0  0.74244  0.05943  0.98693  1.0000
  H   H468      1.0  0.68099  0.04898  0.77883  1.0000
  H   H469      1.0  0.71563  0.13488  0.96076  1.0000
  S   S76       1.0  0.96506  0.15370  0.86917  1.0000
  H   H470      1.0  0.90152  0.05021  0.76527  1.0000
  Fe  Fe40      1.0  0.53745  0.17826  0.93290  1.0000
  C   C273      1.0  0.61103  0.03384  0.77283  1.0000
  H   H471      1.0  0.84483  0.23314  0.52885  1.0000
  C   C274      1.0  0.70568  0.06870  0.85961  1.0000
  H   H472      1.0  0.72736  0.07876  0.84322  1.0000
  H   H473      1.0  0.72942  0.07067  0.89664  1.0000
  H   H474      1.0  0.54596  0.03749  0.88027  1.0000
  H   H475      1.0  0.98910  0.24652  0.61344  1.0000
  C   C275      1.0  0.53533  0.32450  0.59229  1.0000
  H   H476      1.0  0.62785  0.03316  0.85686  1.0000
  H   H477      1.0  0.58202  0.01673  0.94854  1.0000
  S   S77       1.0  0.65059  0.08244  0.95860  1.0000
  H   H478      1.0  0.81225  0.03831  0.00418  1.0000
  C   C276      1.0  0.92610  0.03237  0.90727  1.0000
  H   H479      1.0  0.90904  0.05211  0.91646  1.0000
  H   H480      1.0  0.64347  0.09554  0.81123  1.0000
  C   C277      1.0  0.84625  0.29641  0.52403  1.0000
  C   C278      1.0  0.87629  0.23009  0.52071  1.0000
  H   H481      1.0  0.59711  0.05487  0.78195  1.0000
  H   H482      1.0  0.72587  0.03805  0.98996  1.0000
  C   C279      1.0  0.71433  0.08634  0.97417  1.0000
  H   H483      1.0  0.97062  0.06048  0.88589  1.0000
  H   H484      1.0  0.91816  0.33575  0.87685  1.0000
  C   C280      1.0  0.90987  0.33301  0.90624  1.0000
  C   C281      1.0  0.78681  0.11402  0.97895  1.0000
  H   H485      1.0  0.54825  0.28423  0.86977  1.0000
  H   H486      1.0  0.80816  0.01168  0.85696  1.0000
  C   C282      1.0  0.00070  0.13429  0.84704  1.0000
  H   H487      1.0  0.90389  0.31399  0.98280  1.0000
  H   H488      1.0  0.96639  0.29960  0.00520  1.0000
  H   H489      1.0  0.89859  0.01363  0.89548  1.0000
  H   H490      1.0  0.97453  0.01233  0.79175  1.0000
  C   C283      1.0  0.74156  0.01813  0.86451  1.0000
  C   C284      1.0  0.58680  0.32191  0.63236  1.0000
  C   C285      1.0  0.54219  0.31333  0.98207  1.0000
  H   H491      1.0  0.84315  0.28158  0.54996  1.0000
  C   C286      1.0  0.51296  0.28169  0.86982  1.0000
  H   H492      1.0  0.85718  0.31968  0.53936  1.0000
  S   S78       1.0  0.00154  0.18124  0.60984  1.0000
  H   H493      1.0  0.51348  0.26570  0.57499  1.0000
  H   H494      1.0  0.51880  0.31135  0.67003  1.0000
  H   H495      1.0  0.50798  0.30517  0.95350  1.0000
  H   H496      1.0  0.61189  0.33787  0.62640  1.0000
  S   S79       1.0  0.85001  0.36363  0.45569  1.0000
  H   H497      1.0  0.86264  0.65692  0.22653  1.0000
  H   H498      1.0  0.65851  0.41689  0.37115  1.0000
  H   H499      1.0  0.55060  0.42126  0.04621  1.0000
  C   C287      1.0  0.75633  0.36219  0.44741  1.0000
  Fe  Fe41      1.0  0.59865  0.39016  0.47434  1.0000
  H   H500      1.0  0.98220  0.49077  0.37587  1.0000
  H   H501      1.0  0.55144  0.58289  0.03632  1.0000
  H   H502      1.0  0.57645  0.42095  0.32376  1.0000
  H   H503      1.0  0.63081  0.44047  0.41705  1.0000
  Fe  Fe42      1.0  0.55745  0.62279  0.16970  1.0000
  Fe  Fe43      1.0  0.65452  0.58919  0.20279  1.0000
  S   S80       1.0  0.62204  0.54388  0.20919  1.0000
  S   S81       1.0  0.73352  0.59682  0.21588  1.0000
  Fe  Fe44      1.0  0.55910  0.55556  0.14160  1.0000
  H   H504      1.0  0.66543  0.43547  0.32696  1.0000
  Fe  Fe45      1.0  0.58367  0.57239  0.24128  1.0000
  S   S82       1.0  0.58255  0.55649  0.30687  1.0000
  S   S83       1.0  0.59446  0.59901  0.13285  1.0000
  S   S84       1.0  0.62020  0.61684  0.23878  1.0000
  S   S85       1.0  0.91470  0.57471  0.40720  1.0000
  H   H505      1.0  0.94276  0.44484  0.33987  1.0000
  C   C288      1.0  0.78301  0.59039  0.26951  1.0000
  C   C289      1.0  0.83086  0.59513  0.27489  1.0000
  C   C290      1.0  0.87129  0.59102  0.31723  1.0000
  C   C291      1.0  0.86426  0.58174  0.35446  1.0000
  C   C292      1.0  0.81651  0.57618  0.34891  1.0000
  C   C293      1.0  0.77590  0.58085  0.30669  1.0000
  H   H506      1.0  0.83663  0.60209  0.24611  1.0000
  H   H507      1.0  0.90804  0.59452  0.32093  1.0000
  H   H508      1.0  0.81085  0.56860  0.37749  1.0000
  H   H509      1.0  0.73918  0.57701  0.30286  1.0000
  C   C294      1.0  0.55203  0.57885  0.33159  1.0000
  H   H510      1.0  0.99457  0.35041  0.04893  1.0000
  H   H511      1.0  0.54679  0.58787  0.43271  1.0000
  H   H512      1.0  0.57368  0.67055  0.10234  1.0000
  Fe  Fe46      1.0  0.93195  0.37439  0.48813  1.0000
  Fe  Fe47      1.0  0.97835  0.60853  0.43484  1.0000
  H   H513      1.0  0.59102  0.55829  0.39745  1.0000
  H   H514      1.0  0.88090  0.50072  0.25240  1.0000
  S   S86       1.0  0.53967  0.42648  0.44934  1.0000
  H   H515      1.0  0.57824  0.52678  0.04463  1.0000
  C   C295      1.0  0.67869  0.49529  0.37298  1.0000
  H   H516      1.0  0.84210  0.44471  0.25693  1.0000
  H   H517      1.0  0.74972  0.34520  0.42129  1.0000
  H   H518      1.0  0.58258  0.49210  0.33498  1.0000
  C   C296      1.0  0.51579  0.59998  0.30600  1.0000
  H   H519      1.0  0.93263  0.36283  0.02273  1.0000
  H   H520      1.0  0.68144  0.36151  0.43830  1.0000
  H   H521      1.0  0.85293  0.43232  0.31342  1.0000
  H   H522      1.0  0.62084  0.48190  0.46096  1.0000
  H   H523      1.0  0.55475  0.44304  0.35789  1.0000
  C   C297      1.0  0.56297  0.57451  0.37738  1.0000
  N   N23       1.0  0.90699  0.48915  0.32357  1.0000
  C   C298      1.0  0.56318  0.44381  0.32847  1.0000
  C   C299      1.0  0.68717  0.50175  0.33083  1.0000
  C   C300      1.0  0.87532  0.50798  0.28221  1.0000
  C   C301      1.0  0.91474  0.45710  0.31029  1.0000
  H   H524      1.0  0.85811  0.66557  0.39941  1.0000
  H   H525      1.0  0.64071  0.51071  0.43439  1.0000
  H   H526      1.0  0.88603  0.53275  0.28756  1.0000
  C   C302      1.0  0.86955  0.43604  0.28997  1.0000
  C   C303      1.0  0.62136  0.48831  0.42854  1.0000
  C   C304      1.0  0.64816  0.46279  0.41576  1.0000
  S   S87       1.0  0.96880  0.35495  0.44734  1.0000
  C   C305      1.0  0.50862  0.50815  0.03414  1.0000
  H   H527      1.0  0.74134  0.43846  0.42789  1.0000
  H   H528      1.0  0.92960  0.45781  0.28498  1.0000
  C   C306      1.0  0.95643  0.50465  0.34671  1.0000
  H   H529      1.0  0.87979  0.51276  0.36558  1.0000
  C   C307      1.0  0.72538  0.39363  0.49020  1.0000
  S   S88       1.0  0.50991  0.52210  0.08559  1.0000
  H   H530      1.0  0.82576  0.64975  0.34386  1.0000
  C   C308      1.0  0.98312  0.51027  0.31696  1.0000
  H   H531      1.0  0.84826  0.47811  0.34172  1.0000
  C   C309      1.0  0.59949  0.46985  0.33276  1.0000
  C   C310      1.0  0.72988  0.43610  0.39114  1.0000
  H   H532      1.0  0.92756  0.65748  0.25448  1.0000
  C   C311      1.0  0.81958  0.50831  0.26737  1.0000
  H   H533      1.0  0.80102  0.52060  0.23453  1.0000
  H   H534      1.0  0.89092  0.65013  0.30656  1.0000
  H   H535      1.0  0.89329  0.47140  0.42146  1.0000
  H   H536      1.0  0.65801  0.51687  0.30667  1.0000
  C   C312      1.0  0.53801  0.59128  0.39745  1.0000
  C   C313      1.0  0.88519  0.48873  0.35673  1.0000
  S   S89       1.0  0.67731  0.40758  0.50174  1.0000
  H   H537      1.0  0.58278  0.49095  0.40314  1.0000
  C   C314      1.0  0.80340  0.37500  0.47101  1.0000
  C   C315      1.0  0.71750  0.37141  0.45693  1.0000
  H   H538      1.0  0.95312  0.52739  0.36096  1.0000
  N   N24       1.0  0.65007  0.46656  0.37110  1.0000
  C   C316      1.0  0.91476  0.47160  0.40165  1.0000
  H   H539      1.0  0.96121  0.52405  0.28635  1.0000
  H   H540      1.0  0.52798  0.44807  0.29818  1.0000
  S   S90       1.0  0.97063  0.42025  0.49931  1.0000
  H   H541      1.0  0.81094  0.52133  0.29190  1.0000
  H   H542      1.0  0.88118  0.41301  0.28352  1.0000
  H   H543      1.0  0.68571  0.46152  0.44406  1.0000
  H   H544      1.0  0.68837  0.48077  0.31234  1.0000
  H   H545      1.0  0.60122  0.47106  0.29975  1.0000
  H   H546      1.0  0.74924  0.45352  0.38045  1.0000
  H   H547      1.0  0.80321  0.48511  0.26277  1.0000
  C   C317      1.0  0.67382  0.43813  0.36325  1.0000
  H   H548      1.0  0.71455  0.49583  0.40371  1.0000
  H   H549      1.0  0.65951  0.51604  0.37694  1.0000
  H   H550      1.0  0.89199  0.64795  0.37369  1.0000
  H   H551      1.0  0.72302  0.51343  0.34135  1.0000
  S   S91       1.0  0.55701  0.35746  0.41681  1.0000
  H   H552      1.0  0.80446  0.65764  0.26718  1.0000
  S   S92       1.0  0.97305  0.65241  0.46886  1.0000
  H   H553      1.0  0.61101  0.40410  0.02767  1.0000
  C   C318      1.0  0.85940  0.66237  0.36652  1.0000
  H   H554      1.0  0.92167  0.44721  0.39632  1.0000
  H   H555      1.0  0.74248  0.41316  0.38563  1.0000
  H   H556      1.0  0.52052  0.50486  0.43234  1.0000
  C   C319      1.0  0.52757  0.37356  0.02202  1.0000
  C   C320      1.0  0.51942  0.40540  0.03878  1.0000
  S   S93       1.0  0.51836  0.58022  0.17485  1.0000
  H   H557      1.0  0.98575  0.35842  0.29087  1.0000
  H   H558      1.0  0.56380  0.36552  0.04812  1.0000
  C   C321      1.0  0.54631  0.51396  0.02193  1.0000
  C   C322      1.0  0.96022  0.34945  0.01669  1.0000
  H   H559      1.0  0.51664  0.40235  0.07100  1.0000
  H   H560      1.0  0.98925  0.37573  0.36401  1.0000
  H   H561      1.0  0.94832  0.41276  0.03216  1.0000
  Fe  Fe48      1.0  0.50956  0.40281  0.49223  1.0000
  H   H562      1.0  0.94973  0.48341  0.42306  1.0000
  H   H563      1.0  0.97125  0.53469  0.02231  1.0000
  S   S94       1.0  0.51120  0.66600  0.14822  1.0000
  H   H564      1.0  0.52193  0.63883  0.01615  1.0000
  C   C323      1.0  0.81145  0.39692  0.50468  1.0000
  C   C324      1.0  0.89449  0.67065  0.25006  1.0000
  H   H565      1.0  0.99448  0.48838  0.30709  1.0000
  C   C325      1.0  0.00755  0.38897  0.34823  1.0000
  C   C326      1.0  0.00549  0.37924  0.30670  1.0000
  C   C327      1.0  0.54343  0.40123  0.96288  1.0000
  C   C328      1.0  0.59832  0.40840  0.99108  1.0000
  H   H566      1.0  0.82612  0.56802  0.62057  1.0000
  S   S95       1.0  0.57127  0.36897  0.52146  1.0000
  H   H567      1.0  0.66478  0.61611  0.51361  1.0000
  H   H568      1.0  0.58259  0.53243  0.64043  1.0000
  N   N25       1.0  0.96860  0.36319  0.97869  1.0000
  C   C329      1.0  0.98587  0.61001  0.59274  1.0000
  H   H569      1.0  0.59552  0.34901  0.99910  1.0000
  H   H570      1.0  0.92379  0.58477  0.59041  1.0000
  C   C330      1.0  0.94894  0.41753  0.99939  1.0000
  H   H571      1.0  0.59553  0.49907  0.59016  1.0000
  Fe  Fe49      1.0  0.87524  0.61771  0.79714  1.0000
  S   S96       1.0  0.89963  0.57230  0.78129  1.0000
  S   S97       1.0  0.79883  0.63334  0.78358  1.0000
  Fe  Fe50      1.0  0.97561  0.64707  0.82804  1.0000
  Fe  Fe51      1.0  0.93829  0.60072  0.74977  1.0000
  Fe  Fe52      1.0  0.96769  0.57880  0.84738  1.0000
  S   S98       1.0  0.90919  0.64542  0.76119  1.0000
  S   S99       1.0  0.94022  0.62246  0.86588  1.0000
  Fe  Fe53      1.0  0.54821  0.61929  0.56532  1.0000
  S   S100      1.0  0.61564  0.59016  0.60398  1.0000
  H   H572      1.0  0.52297  0.42169  0.96516  1.0000
  C   C331      1.0  0.74720  0.62049  0.73480  1.0000
  C   C332      1.0  0.70466  0.63864  0.71655  1.0000
  C   C333      1.0  0.66380  0.62963  0.67655  1.0000
  C   C334      1.0  0.66489  0.60200  0.65519  1.0000
  C   C335      1.0  0.70671  0.58335  0.67432  1.0000
  C   C336      1.0  0.74800  0.59276  0.71358  1.0000
  S   S101      1.0  0.51327  0.39932  0.72892  1.0000
  H   H573      1.0  0.63162  0.64408  0.66230  1.0000
  H   H574      1.0  0.70768  0.56182  0.65818  1.0000
  H   H575      1.0  0.78037  0.57846  0.72760  1.0000
  S   S102      1.0  0.92797  0.58859  0.67891  1.0000
  C   C337      1.0  0.99113  0.52402  0.00579  1.0000
  H   H576      1.0  0.97688  0.49982  0.56460  1.0000
  H   H577      1.0  0.74825  0.62393  0.53348  1.0000
  C   C338      1.0  0.95559  0.59839  0.61131  1.0000
  C   C339      1.0  0.52875  0.40998  0.61376  1.0000
  H   H578      1.0  0.69385  0.60121  0.57000  1.0000
  C   C340      1.0  0.81760  0.65876  0.60293  1.0000
  H   H579      1.0  0.56809  0.47546  0.61693  1.0000
  H   H580      1.0  0.66541  0.63871  0.55897  1.0000
  C   C341      1.0  0.98493  0.39620  0.99139  1.0000
  H   H581      1.0  0.76216  0.56801  0.58753  1.0000
  C   C342      1.0  0.54288  0.50301  0.98025  1.0000
  C   C343      1.0  0.53762  0.40402  0.65864  1.0000
  C   C344      1.0  0.73568  0.63750  0.55475  1.0000
  H   H582      1.0  0.55914  0.55431  0.70653  1.0000
  H   H583      1.0  0.57307  0.39556  0.68256  1.0000
  H   H584      1.0  0.77903  0.42344  0.53990  1.0000
  C   C345      1.0  0.96629  0.60426  0.65669  1.0000
  C   C346      1.0  0.54038  0.59353  0.00278  1.0000
  H   H585      1.0  0.95736  0.52157  0.59945  1.0000
  H   H586      1.0  0.55747  0.40646  0.60340  1.0000
  H   H587      1.0  0.87267  0.66079  0.57823  1.0000
  C   C347      1.0  0.78869  0.66934  0.67663  1.0000
  N   N26       1.0  0.52525  0.37210  0.97529  1.0000
  H   H588      1.0  0.72605  0.66045  0.53796  1.0000
  C   C348      1.0  0.52066  0.49977  0.66258  1.0000
  S   S103      1.0  0.98740  0.35435  0.55401  1.0000
  H   H589      1.0  0.84715  0.66138  0.63804  1.0000
  H   H590      1.0  0.82791  0.61304  0.65683  1.0000
  H   H591      1.0  0.91136  0.41656  0.97151  1.0000
  C   C349      1.0  0.56126  0.49512  0.59351  1.0000
  C   C350      1.0  0.79176  0.61050  0.62672  1.0000
  H   H592      1.0  0.57004  0.57773  0.66652  1.0000
  H   H593      1.0  0.60503  0.43308  0.98666  1.0000
  H   H594      1.0  0.53288  0.48882  0.55934  1.0000
  H   H595      1.0  0.52803  0.34958  0.58720  1.0000
  H   H596      1.0  0.81850  0.64155  0.53986  1.0000
  C   C351      1.0  0.77256  0.40624  0.51407  1.0000
  H   H597      1.0  0.56046  0.50181  0.68584  1.0000
  H   H598      1.0  0.89010  0.36845  0.94130  1.0000
  H   H599      1.0  0.54014  0.54289  0.58470  1.0000
  C   C352      1.0  0.54811  0.52496  0.61120  1.0000
  C   C353      1.0  0.79511  0.58289  0.59843  1.0000
  H   H600      1.0  0.51841  0.51259  0.72622  1.0000
  C   C354      1.0  0.92215  0.36298  0.93482  1.0000
  H   H601      1.0  0.55771  0.34523  0.93992  1.0000
  N   N27       1.0  0.77495  0.64095  0.60271  1.0000
  H   H602      1.0  0.57233  0.50767  0.97124  1.0000
  H   H603      1.0  0.76615  0.60294  0.64028  1.0000
  H   H604      1.0  0.52703  0.57529  0.97647  1.0000
  C   C355      1.0  0.75336  0.66008  0.62779  1.0000
  H   H605      1.0  0.80159  0.58880  0.56902  1.0000
  H   H606      1.0  0.92353  0.38164  0.91220  1.0000
  H   H607      1.0  0.96464  0.55643  0.95010  1.0000
  H   H608      1.0  0.57396  0.60334  0.00259  1.0000
  C   C356      1.0  0.54197  0.56981  0.67700  1.0000
  H   H609      1.0  0.52928  0.59069  0.68820  1.0000
  C   C357      1.0  0.68753  0.62245  0.54960  1.0000
  H   H610      1.0  0.97728  0.60542  0.55774  1.0000
  H   H611      1.0  0.62082  0.39464  0.97889  1.0000
  H   H612      1.0  0.98298  0.53703  0.67003  1.0000
  C   C358      1.0  0.55690  0.34586  0.97345  1.0000
  C   C359      1.0  0.84327  0.64480  0.57623  1.0000
  H   H613      1.0  0.86187  0.62303  0.59183  1.0000
  H   H614      1.0  0.51558  0.47582  0.64914  1.0000
  H   H615      1.0  0.99779  0.53974  0.74952  1.0000
  H   H616      1.0  0.80730  0.64901  0.69722  1.0000
  H   H617      1.0  0.70365  0.66003  0.73299  1.0000
  C   C360      1.0  0.98993  0.51532  0.59453  1.0000
  S   S104      1.0  0.54522  0.65982  0.52147  1.0000
  H   H618      1.0  0.96155  0.44173  0.00133  1.0000
  H   H619      1.0  0.99160  0.40765  0.96445  1.0000
  H   H620      1.0  0.84742  0.40696  0.52313  1.0000
  H   H621      1.0  0.99273  0.50047  0.69557  1.0000
  H   H622      1.0  0.72292  0.64753  0.63050  1.0000
  C   C361      1.0  0.98728  0.53644  0.96480  1.0000
  H   H623      1.0  0.53676  0.40051  0.92691  1.0000
  H   H624      1.0  0.99438  0.36299  0.90671  1.0000
  H   H625      1.0  0.00482  0.53621  0.58577  1.0000
  Fe  Fe54      1.0  0.94927  0.90559  0.28011  1.0000
  S   S105      1.0  0.88329  0.87582  0.26389  1.0000
  Fe  Fe55      1.0  0.92359  0.94983  0.33946  1.0000
  S   S106      1.0  0.85469  0.92346  0.32566  1.0000
  Fe  Fe56      1.0  0.90141  0.88115  0.33735  1.0000
  Fe  Fe57      1.0  0.84295  0.92053  0.25372  1.0000
  S   S107      1.0  0.77584  0.92932  0.18771  1.0000
  S   S108      1.0  0.90810  0.95012  0.26580  1.0000
  C   C362      1.0  0.56467  0.81304  0.18475  1.0000
  H   H626      1.0  0.79676  0.74615  0.28602  1.0000
  S   S109      1.0  0.55746  0.89558  0.14603  1.0000
  C   C363      1.0  0.86365  0.69419  0.34765  1.0000
  H   H627      1.0  0.83532  0.92459  0.04507  1.0000
  H   H628      1.0  0.95111  0.73998  0.44296  1.0000
  N   N28       1.0  0.93227  0.92690  0.50014  1.0000
  C   C364      1.0  0.83574  0.75251  0.29805  1.0000
  C   C365      1.0  0.55633  0.71457  0.06819  1.0000
  H   H629      1.0  0.89655  0.69304  0.23498  1.0000
  H   H630      1.0  0.94000  0.95598  0.11517  1.0000
  H   H631      1.0  0.60146  0.77023  0.21173  1.0000
  S   S110      1.0  0.97109  0.90758  0.35523  1.0000
  H   H632      1.0  0.96042  0.86792  0.47610  1.0000
  C   C366      1.0  0.71569  0.92001  0.17785  1.0000
  C   C367      1.0  0.67897  0.92022  0.13314  1.0000
  C   C368      1.0  0.63042  0.91309  0.12338  1.0000
  C   C369      1.0  0.61801  0.90602  0.15832  1.0000
  C   C370      1.0  0.65442  0.90666  0.20326  1.0000
  C   C371      1.0  0.70341  0.91316  0.21302  1.0000
  H   H633      1.0  0.68809  0.92583  0.10581  1.0000
  H   H634      1.0  0.60249  0.91350  0.08874  1.0000
  H   H635      1.0  0.64491  0.90165  0.23051  1.0000
  H   H636      1.0  0.73147  0.91336  0.24766  1.0000
  S   S111      1.0  0.89467  0.84371  0.38232  1.0000
  H   H637      1.0  0.85995  0.92953  0.10375  1.0000
  C   C372      1.0  0.98351  0.88801  0.47819  1.0000
  H   H638      1.0  0.53472  0.80485  0.19257  1.0000
  C   C373      1.0  0.96059  0.93561  0.13155  1.0000
  H   H639      1.0  0.56826  0.77178  0.15194  1.0000
  N   N29       1.0  0.85623  0.69468  0.29919  1.0000
  H   H640      1.0  0.74639  0.68195  0.20047  1.0000
  H   H641      1.0  0.58662  0.82976  0.21129  1.0000
  C   C374      1.0  0.78088  0.69506  0.21961  1.0000
  C   C375      1.0  0.52837  0.74163  0.05958  1.0000
  S   S112      1.0  0.00305  0.71693  0.39216  1.0000
  H   H642      1.0  0.90808  0.78971  0.43751  1.0000
  S   S113      1.0  0.53791  0.77127  0.02786  1.0000
  H   H643      1.0  0.84323  0.89670  0.15187  1.0000
  C   C376      1.0  0.88929  0.87478  0.49965  1.0000
  H   H644      1.0  0.83214  0.94709  0.39797  1.0000
  H   H645      1.0  0.82852  0.93292  0.44711  1.0000
  H   H646      1.0  0.94764  0.94066  0.19071  1.0000
  H   H647      1.0  0.93184  0.68157  0.32096  1.0000
  H   H648      1.0  0.83632  0.70903  0.35204  1.0000
  S   S114      1.0  0.97623  0.92966  0.05616  1.0000
  H   H649      1.0  0.97349  0.89691  0.44373  1.0000
  C   C377      1.0  0.78360  0.94060  0.06812  1.0000
  H   H650      1.0  0.86644  0.84495  0.09711  1.0000
  H   H651      1.0  0.85618  0.86816  0.50360  1.0000
  H   H652      1.0  0.53088  0.91923  0.43934  1.0000
  H   H653      1.0  0.95254  0.82180  0.33817  1.0000
  H   H654      1.0  0.54678  0.82504  0.15170  1.0000
  H   H655      1.0  0.89965  0.87939  0.12006  1.0000
  H   H656      1.0  0.78827  0.96372  0.05614  1.0000
  H   H657      1.0  0.85834  0.72956  0.25264  1.0000
  H   H658      1.0  0.58201  0.00279  0.46812  1.0000
  H   H659      1.0  0.74816  0.93113  0.04308  1.0000
  H   H660      1.0  0.92286  0.94626  0.43646  1.0000
  H   H661      1.0  0.71009  0.83546  0.17346  1.0000
  H   H662      1.0  0.78911  0.83500  0.11371  1.0000
  H   H663      1.0  0.58222  0.71194  0.05421  1.0000
  C   C378      1.0  0.95208  0.80410  0.36107  1.0000
  H   H664      1.0  0.78208  0.84619  0.04315  1.0000
  H   H665      1.0  0.62493  0.76118  0.12062  1.0000
  H   H666      1.0  0.71921  0.79504  0.22250  1.0000
  H   H667      1.0  0.90474  0.73323  0.30811  1.0000
  H   H668      1.0  0.90016  0.70382  0.37072  1.0000
  C   C379      1.0  0.68312  0.82549  0.25006  1.0000
  H   H669      1.0  0.80365  0.69169  0.20165  1.0000
  H   H670      1.0  0.62129  0.83912  0.15712  1.0000
  C   C380      1.0  0.90235  0.93155  0.44993  1.0000
  C   C381      1.0  0.65313  0.73211  0.17949  1.0000
  C   C382      1.0  0.88366  0.86956  0.05076  1.0000
  H   H671      1.0  0.61722  0.72621  0.17846  1.0000
  H   H672      1.0  0.68827  0.76569  0.15632  1.0000
  C   C383      1.0  0.55163  0.69115  0.09546  1.0000
  H   H673      1.0  0.53539  0.98576  0.22097  1.0000
  H   H674      1.0  0.77082  0.71971  0.21784  1.0000
  H   H675      1.0  0.68208  0.73112  0.21480  1.0000
  H   H676      1.0  0.72141  0.83244  0.27260  1.0000
  N   N30       1.0  0.64111  0.79136  0.17803  1.0000
  H   H677      1.0  0.88747  0.89295  0.03945  1.0000
  H   H678      1.0  0.95109  0.97542  0.50331  1.0000
  C   C384      1.0  0.80515  0.68326  0.26887  1.0000
  C   C385      1.0  0.63414  0.81812  0.14661  1.0000
  C   C386      1.0  0.86537  0.72714  0.28846  1.0000
  H   H679      1.0  0.66720  0.84556  0.22804  1.0000
  H   H680      1.0  0.69207  0.80998  0.12467  1.0000
  H   H681      1.0  0.66992  0.84843  0.11816  1.0000
  H   H682      1.0  0.80050  0.85178  0.16705  1.0000
  H   H683      1.0  0.00629  0.93207  0.50804  1.0000
  C   C387      1.0  0.96482  0.92698  0.17430  1.0000
  C   C388      1.0  0.81446  0.88353  0.12329  1.0000
  H   H684      1.0  0.87779  0.87336  0.46289  1.0000
  H   H685      1.0  0.92026  0.85863  0.06303  1.0000
  C   C389      1.0  0.67968  0.82809  0.14092  1.0000
  C   C390      1.0  0.86855  0.86969  0.08955  1.0000
  H   H686      1.0  0.85137  0.84086  0.15746  1.0000
  H   H687      1.0  0.78213  0.94424  0.10084  1.0000
  H   H688      1.0  0.66112  0.71364  0.16038  1.0000
  Fe  Fe58      1.0  0.51532  0.87754  0.07462  1.0000
  C   C391      1.0  0.77835  0.87173  0.04207  1.0000
  C   C392      1.0  0.97621  0.77602  0.36413  1.0000
  H   H689      1.0  0.83772  0.77416  0.28096  1.0000
  H   H690      1.0  0.85187  0.75783  0.33478  1.0000
  C   C393      1.0  0.92722  0.80912  0.38729  1.0000
  C   C394      1.0  0.92719  0.78594  0.41704  1.0000
  C   C395      1.0  0.68347  0.79606  0.22404  1.0000
  H   H691      1.0  0.60446  0.81266  0.11239  1.0000
  H   H692      1.0  0.89606  0.90978  0.43058  1.0000
  C   C396      1.0  0.81390  0.85064  0.14073  1.0000
  C   C397      1.0  0.65216  0.76341  0.15677  1.0000
  S   S115      1.0  0.55831  0.85705  0.04152  1.0000
  H   H693      1.0  0.66351  0.82157  0.27107  1.0000
  Fe  Fe59      1.0  0.00633  0.90096  0.01653  1.0000
  C   C398      1.0  0.59429  0.78504  0.18189  1.0000
  H   H694      1.0  0.68567  0.77668  0.24687  1.0000
  H   H695      1.0  0.85469  0.97066  0.44699  1.0000
  C   C399      1.0  0.95156  0.75778  0.42024  1.0000
  C   C400      1.0  0.51852  0.69460  0.11388  1.0000
  C   C401      1.0  0.85167  0.94639  0.43546  1.0000
  N   N31       1.0  0.82174  0.88623  0.08097  1.0000
  S   S116      1.0  0.93455  0.99499  0.37870  1.0000
  C   C402      1.0  0.82746  0.92011  0.07421  1.0000
  H   H696      1.0  0.77924  0.68921  0.28316  1.0000
  H   H697      1.0  0.51278  0.86822  0.45032  1.0000
  C   C403      1.0  0.98284  0.91807  0.10996  1.0000
  C   C404      1.0  0.89452  0.67391  0.29651  1.0000
  H   H698      1.0  0.54051  0.96217  0.15671  1.0000
  H   H699      1.0  0.74418  0.87642  0.04550  1.0000
  H   H700      1.0  0.77892  0.89389  0.11780  1.0000
  H   H701      1.0  0.59487  0.91902  0.50720  1.0000
  H   H702      1.0  0.99497  0.77227  0.34332  1.0000
  C   C405      1.0  0.99223  0.90103  0.19617  1.0000
  H   H703      1.0  0.55086  0.00279  0.10915  1.0000
  S   S117      1.0  0.00005  0.88984  0.25052  1.0000
  C   C406      1.0  0.97488  0.00463  0.43558  1.0000
  C   C407      1.0  0.97592  0.75269  0.39348  1.0000
  H   H704      1.0  0.85831  0.85543  0.02179  1.0000
  C   C408      1.0  0.98179  0.91367  0.50985  1.0000
  C   C409      1.0  0.50824  0.97662  0.13538  1.0000
  Fe  Fe60      1.0  0.55349  0.91389  0.70968  1.0000
  S   S118      1.0  0.62370  0.88815  0.72847  1.0000
  H   H705      1.0  0.99351  0.99099  0.91120  1.0000
  Fe  Fe61      1.0  0.56512  0.95252  0.63591  1.0000
  S   S119      1.0  0.63777  0.93069  0.65110  1.0000
  C   C410      1.0  0.92019  0.99241  0.82849  1.0000
  Fe  Fe62      1.0  0.60108  0.88588  0.65359  1.0000
  S   S120      1.0  0.61329  0.84477  0.61702  1.0000
  Fe  Fe63      1.0  0.65476  0.93445  0.72482  1.0000
  S   S121      1.0  0.72271  0.95137  0.78579  1.0000
  S   S122      1.0  0.58523  0.96043  0.70981  1.0000
  S   S123      1.0  0.95587  0.87067  0.95972  1.0000
  S   S124      1.0  0.94000  0.90517  0.84580  1.0000
  C   C411      1.0  0.57514  0.81178  0.60311  1.0000
  H   H706      1.0  0.82999  0.73397  0.77587  1.0000
  C   C412      1.0  0.50939  0.99409  0.91618  1.0000
  H   H707      1.0  0.89026  0.83315  0.86597  1.0000
  H   H708      1.0  0.73546  0.99330  0.85556  1.0000
  H   H709      1.0  0.91634  0.97830  0.85488  1.0000
  H   H710      1.0  0.99122  0.68471  0.91903  1.0000
  H   H711      1.0  0.94960  0.83466  0.83956  1.0000
  C   C413      1.0  0.58222  0.90204  0.52483  1.0000
  H   H712      1.0  0.73697  0.68172  0.60902  1.0000
  C   C414      1.0  0.78099  0.93462  0.80256  1.0000
  C   C415      1.0  0.79495  0.92195  0.77101  1.0000
  C   C416      1.0  0.84363  0.91242  0.78478  1.0000
  C   C417      1.0  0.87822  0.91455  0.83033  1.0000
  C   C418      1.0  0.86373  0.92604  0.86217  1.0000
  C   C419      1.0  0.81554  0.93654  0.84817  1.0000
  H   H713      1.0  0.76876  0.92070  0.73571  1.0000
  H   H714      1.0  0.85463  0.90376  0.75989  1.0000
  H   H715      1.0  0.89012  0.92796  0.89732  1.0000
  H   H716      1.0  0.80511  0.94643  0.87274  1.0000
  H   H717      1.0  0.97917  0.98431  0.58445  1.0000
  C   C420      1.0  0.55766  0.75920  0.57310  1.0000
  H   H718      1.0  0.80903  0.83556  0.75367  1.0000
  C   C421      1.0  0.97855  0.96035  0.57222  1.0000
  H   H719      1.0  0.89178  0.84538  0.79340  1.0000
  H   H720      1.0  0.58122  0.98034  0.92056  1.0000
  N   N32       1.0  0.87144  0.78941  0.82913  1.0000
  S   S125      1.0  0.52795  0.90745  0.63486  1.0000
  C   C422      1.0  0.53180  0.91066  0.52188  1.0000
  C   C423      1.0  0.51892  0.00290  0.53168  1.0000
  C   C424      1.0  0.57096  0.91483  0.87583  1.0000
  C   C425      1.0  0.86710  0.73214  0.80434  1.0000
  H   H721      1.0  0.64780  0.97831  0.83141  1.0000
  Fe  Fe64      1.0  0.98897  0.89325  0.91892  1.0000
  C   C426      1.0  0.89019  0.80807  0.87223  1.0000
  H   H722      1.0  0.58729  0.98294  0.54096  1.0000
  H   H723      1.0  0.84959  0.74961  0.85606  1.0000
  H   H724      1.0  0.93926  0.82934  0.78247  1.0000
  H   H725      1.0  0.93045  0.90306  0.55687  1.0000
  C   C427      1.0  0.80392  0.82964  0.78407  1.0000
  H   H726      1.0  0.82328  0.84667  0.81108  1.0000
  H   H727      1.0  0.60969  0.90245  0.56086  1.0000
  H   H728      1.0  0.52168  0.83150  0.62144  1.0000
  H   H729      1.0  0.75600  0.86203  0.97067  1.0000
  H   H730      1.0  0.98976  0.72215  0.97557  1.0000
  H   H731      1.0  0.53772  0.98879  0.84458  1.0000
  H   H732      1.0  0.91285  0.75088  0.86997  1.0000
  C   C428      1.0  0.76772  0.88230  0.99370  1.0000
  H   H733      1.0  0.88353  0.78745  0.76900  1.0000
  C   C429      1.0  0.99884  0.70882  0.91665  1.0000
  C   C430      1.0  0.87584  0.75577  0.84231  1.0000
  H   H734      1.0  0.80647  0.78287  0.76605  1.0000
  C   C431      1.0  0.53581  0.90468  0.88964  1.0000
  H   H735      1.0  0.57770  0.98097  0.97296  1.0000
  C   C432      1.0  0.90290  0.79495  0.80500  1.0000
  H   H736      1.0  0.82305  0.80912  0.88212  1.0000
  C   C433      1.0  0.86251  0.80374  0.90124  1.0000
  H   H737      1.0  0.56776  0.73918  0.55958  1.0000
  H   H738      1.0  0.76466  0.83287  0.77571  1.0000
  S   S126      1.0  0.51966  0.98855  0.58276  1.0000
  C   C434      1.0  0.56587  0.99329  0.94026  1.0000
  H   H739      1.0  0.53450  0.93476  0.53428  1.0000
  H   H740      1.0  0.86762  0.78026  0.91585  1.0000
  S   S127      1.0  0.54749  0.90921  0.94685  1.0000
  C   C435      1.0  0.65684  0.98717  0.86580  1.0000
  C   C436      1.0  0.51530  0.90421  0.79712  1.0000
  C   C437      1.0  0.58781  0.78559  0.58547  1.0000
  H   H741      1.0  0.68996  0.97505  0.89051  1.0000
  S   S128      1.0  0.00750  0.78727  0.98686  1.0000
  H   H742      1.0  0.76749  0.68012  0.69295  1.0000
  C   C438      1.0  0.90638  0.90707  0.52036  1.0000
  H   H743      1.0  0.87789  0.81988  0.93040  1.0000
  H   H744      1.0  0.60591  0.92327  0.90080  1.0000
  C   C439      1.0  0.81835  0.79587  0.79829  1.0000
  H   H745      1.0  0.58803  0.92237  0.81940  1.0000
  H   H746      1.0  0.93670  0.78072  0.82024  1.0000
  H   H747      1.0  0.87019  0.70851  0.81838  1.0000
  H   H748      1.0  0.87431  0.91914  0.52066  1.0000
  H   H749      1.0  0.79378  0.78675  0.81235  1.0000
  H   H750      1.0  0.62114  0.78570  0.58145  1.0000
  C   C440      1.0  0.99820  0.73002  0.94870  1.0000
  C   C441      1.0  0.92134  0.82809  0.80532  1.0000
  C   C442      1.0  0.53184  0.81149  0.60794  1.0000
  C   C443      1.0  0.56091  0.91441  0.82977  1.0000
  H   H751      1.0  0.92930  0.80256  0.89404  1.0000
  C   C444      1.0  0.94009  0.95833  0.52220  1.0000
  H   H752      1.0  0.84138  0.98555  0.79449  1.0000
  H   H753      1.0  0.89520  0.73375  0.79164  1.0000
  H   H754      1.0  0.80601  0.68253  0.58981  1.0000
  H   H755      1.0  0.81598  0.68669  0.67787  1.0000
  C   C445      1.0  0.51420  0.75901  0.57769  1.0000
  H   H756      1.0  0.79882  0.89274  0.99009  1.0000
  H   H757      1.0  0.52717  0.89639  0.54755  1.0000
  H   H758      1.0  0.73614  0.89838  0.98010  1.0000
  H   H759      1.0  0.96984  0.94495  0.59442  1.0000
  H   H760      1.0  0.62645  0.98083  0.87401  1.0000
  H   H761      1.0  0.86591  0.00191  0.75875  1.0000
  H   H762      1.0  0.90548  0.96745  0.52111  1.0000
  H   H763      1.0  0.91812  0.85731  0.51718  1.0000
  C   C446      1.0  0.55615  0.99657  0.51898  1.0000
  H   H764      1.0  0.51355  0.84846  0.52290  1.0000
  C   C447      1.0  0.00296  0.00319  0.88643  1.0000
  H   H765      1.0  0.93257  0.97520  0.81075  1.0000
  H   H766      1.0  0.00023  0.90451  0.54498  1.0000
  C   C448      1.0  0.86861  0.00216  0.79347  1.0000
  H   H767      1.0  0.58280  0.87841  0.51237  1.0000
  H   H768      1.0  0.00759  0.95902  0.85478  1.0000
