data_image0
_chemical_formula_structural       FeS2FeS2FeSFeS3H3FeS2C2HFeSCFe2SFeSHCH2C6H4C6H4CH3C3H2CH5SCH3SH2CH4NHNC2H3CNCHCHCHC2H6FeCH4CH2C3HC5HSH2SH4CH9CH2CHFeH3CH3CH5CH3C2SCHS2H2FeS2FeS2FeS2FeSFeS3FeS2HFeSCSNC2H2CH2C6H4C2H2C2HCH4CH8CH2C4H2C5H5C2HCH2NC8H18CHC2H2C2SCH3CH3NH6CH5CHCHFeCH2SHCHFeHCNCH3CH4SHCHCHCHCHC3SH2CHFeCHCH2CH3CH2CH5CHCHSH4C2H2CH2CH2CSH2CHCHSFeS2FeS2FeSFeS3FeS2FeS2FeSFeS3H3S2HCH3C3H2NCHC6H4C6H4C6H4C6H4C5H3NC8H20CH3CH3C2H5CH3CHSH3NHNH6CHCH3CH3SC3H5CH2CHCSH4CHC2H13CHNH7CH2SCH2CH2CHCHC3N2FeH2SH3CHCH2CSC2HNCHCH3CH3CH3C2H2C2H3CHCHFeC2H4C2HSCH2CH2CH2CH4C2HCHCHFeCH2CHFeCFeS2CH3FeSHSFeS2FeS2FeSFeS3FeHSHC2HC7H6C3H2CHNHCH4CHCHC6H5CH6CHCHCHC2H2CH2CH5CHCNHSH5C2HC2H7CH6CHC2NCH4NH2C2H3CH4SH3SFeSCFeSHFeCFeSCSFeSFeS2FeHFeS3Fe2S2FeHFeS3C6H4C6H4C3HCHCHCH2C6H5CHC2H4SH2NC4NH7NCHCH2CHSHCH4SH3NSCH3CH4C3H8CHCHCH2CHCHC2HC2H2SH3C2H2NCH2CHNH2C2H3C2HCH3CH2CNH2C3H5CH2CH2C2H2CH5CH2CH3CH7C2HC3HNH3SH2CHCH3C2H2CH4CH3CHCHCFeCH3SHCHC3FeS2FeS2FeSFeS3FeS2FeSHFeSFeS4CFeSHCSCHC2H2C6H4C3H3C2HCH3C2H2C6H4C3HCH6CHC2HCHCH6CH2CHCHCH7CH2CH2CHC2H2CH2C2SH2CHNCFeH2CHCH5CHC2H2CH5CFeHSHCH2C2H3CH2CH5C3HCH9NC4H5CNC8H22C2H2SHCNCHSH4CH5CH2CH8CNHC2SHCHCHCH2SHFeSHFeS2FeSFeS3FeS2FeS2FeSFeS3HSHC4HC6H4CHCH2C6SH2C3H3CH5C7H4C6H2NC6H14NC9H7CH5CH2CH2SHCH7CH10FeH3CSC2H2FeH6C3H4C2H2CH5C2HCH2CHCH3FeCH2S2HC2HC2H6C2HCHNCH5CHNSCH4NH3CH8C2H2CH2C2HCH3CH5SCHCH4CHFeS2FeCS2NSHCHFeSH3FeS2FeS2FeHFeS3FeS2FeS2C6H4C6H4C6H4C5H6C6H11CHSH3CH2CH3CHC2H2CH5SHC2NH3FeH4CHSC2HSHC2H4SC3H7CH2CHCHCHC3H3CHFeH4CH3CH2C2H3FeH4SHCH2NC6H15NHFeHSH4C3HCHNCHNCHFeS2FeSHFeSFeS3FeS2FeS2FeHFeS3H2CSCH2C2HC6H2NH2NC3H2CH2C3H4C6H4C3HC2H8CHCH2CHC3H10CH5NC4H13CSCH2CH3CH8CHSHCHC4SCH2CH3NC2H2FeS2FeS2FeSFeS3FeS2FeS2FeSFeS4H4CH2C3H2C3H2C6H4C6H4C6H4C3SH4SCH4CH3C2H2C2HCHCH4C2SC2HNC3HC4H4NH6C2HCHCHSH2CH2C5H8C2H5CHC2H3CH8C3H3NC2HNCH3C2NC5HC2H3CH16NC8H8CHCH2CH2CH17NH2CHCH7CH2CHC2H3FeH3FeCHFeS2FeCFeS3FeS2FeS2FeSFeS3H2FeS2FeSFeHS2H2SCSC7H4CH2C6H4C3HC6H4CH2C2HCHCHC6H2CH6NC8H18CH3CH2SH4SHCHCSHCHCH7CHNC2HC3FeSH3NC8H8CH5CHCH3NH2NH6CH4CHFeHCH16CSH4C2HCFeS2H2C2FeCHSFeSCFeS2FeSFeS3CSFeS2FeSH2SHC2H5C7H2CHC6H4C2H3C2HNC5FeHC2H2NCH3CH5C3H6CNHCH3CH2C2HCH8NH4SHCHCH2CH4CH4CSH3C2H9CH6FeHC2H7CHCH3NH2
_chemical_formula_sum              "Fe128 S256 H1536 C896 N64"
_cell_length_a       54.5407
_cell_length_b       54.0122
_cell_length_c       25.7794
_cell_angle_alpha    90.1499
_cell_angle_beta     90.5642
_cell_angle_gamma    88.55

_space_group_name_H-M_alt    "P 1"
_space_group_IT_number       1

loop_
  _space_group_symop_operation_xyz
  'x, y, z'

loop_
  _atom_site_type_symbol
  _atom_site_label
  _atom_site_symmetry_multiplicity
  _atom_site_fract_x
  _atom_site_fract_y
  _atom_site_fract_z
  _atom_site_occupancy
  Fe  Fe1       1.0  0.10210  0.15293  0.72381  1.0000
  S   S1        1.0  0.09171  0.15056  0.80848  1.0000
  S   S2        1.0  0.08643  0.18711  0.68043  1.0000
  Fe  Fe2       1.0  0.12274  0.09976  0.72594  1.0000
  S   S3        1.0  0.11332  0.09374  0.80912  1.0000
  S   S4        1.0  0.14090  0.06785  0.68319  1.0000
  Fe  Fe3       1.0  0.07769  0.11311  0.78840  1.0000
  S   S5        1.0  0.04265  0.09668  0.81753  1.0000
  Fe  Fe4       1.0  0.12844  0.13115  0.82244  1.0000
  S   S6        1.0  0.15063  0.13920  0.89630  1.0000
  S   S7        1.0  0.08586  0.11607  0.70378  1.0000
  S   S8        1.0  0.14020  0.13674  0.73947  1.0000
  H   H1        1.0  0.10977  0.06182  0.04726  1.0000
  H   H2        1.0  0.08668  0.22138  0.38062  1.0000
  H   H3        1.0  0.12941  0.07364  0.98024  1.0000
  Fe  Fe5       1.0  0.23364  0.05564  0.10921  1.0000
  S   S9        1.0  0.21532  0.09194  0.08201  1.0000
  S   S10       1.0  0.24128  0.04959  0.19498  1.0000
  C   C1        1.0  0.02608  0.31874  0.20746  1.0000
  C   C2        1.0  0.11560  0.01419  0.77700  1.0000
  H   H4        1.0  0.02050  0.04861  0.78538  1.0000
  Fe  Fe6       1.0  0.04266  0.27819  0.35424  1.0000
  S   S11       1.0  0.04259  0.27320  0.44085  1.0000
  C   C3        1.0  0.08966  0.06448  0.04890  1.0000
  Fe  Fe7       1.0  0.04201  0.31475  0.44380  1.0000
  Fe  Fe8       1.0  0.08345  0.27691  0.43508  1.0000
  S   S12       1.0  0.10990  0.24992  0.47705  1.0000
  Fe  Fe9       1.0  0.07943  0.32014  0.35522  1.0000
  S   S13       1.0  0.08357  0.27871  0.34717  1.0000
  H   H5        1.0  0.08368  0.18199  0.52375  1.0000
  C   C4        1.0  0.09595  0.18689  0.42390  1.0000
  H   H6        1.0  0.10108  0.01233  0.80488  1.0000
  H   H7        1.0  0.12176  0.04673  0.90723  1.0000
  C   C5        1.0  0.09403  0.20467  0.62467  1.0000
  C   C6        1.0  0.11614  0.20125  0.59813  1.0000
  C   C7        1.0  0.12099  0.21568  0.55386  1.0000
  C   C8        1.0  0.10375  0.23348  0.53524  1.0000
  C   C9        1.0  0.08170  0.23691  0.56189  1.0000
  C   C10       1.0  0.07696  0.22268  0.60634  1.0000
  H   H8        1.0  0.12952  0.18761  0.61188  1.0000
  H   H9        1.0  0.13815  0.21289  0.53372  1.0000
  H   H10       1.0  0.06830  0.25057  0.54832  1.0000
  H   H11       1.0  0.05988  0.22559  0.62671  1.0000
  C   C11       1.0  0.19782  0.10283  0.02732  1.0000
  C   C12       1.0  0.19083  0.08810  0.98468  1.0000
  C   C13       1.0  0.17663  0.09865  0.94317  1.0000
  C   C14       1.0  0.16933  0.12389  0.94442  1.0000
  C   C15       1.0  0.17655  0.13821  0.98695  1.0000
  C   C16       1.0  0.19054  0.12786  0.02772  1.0000
  H   H12       1.0  0.19637  0.06875  0.98367  1.0000
  H   H13       1.0  0.17150  0.08736  0.91030  1.0000
  H   H14       1.0  0.17119  0.15763  0.98857  1.0000
  H   H15       1.0  0.19573  0.13948  0.06006  1.0000
  C   C17       1.0  0.03420  0.20319  0.48777  1.0000
  H   H16       1.0  0.01375  0.30342  0.21752  1.0000
  H   H17       1.0  0.09460  0.11838  0.90490  1.0000
  H   H18       1.0  0.11867  0.12958  0.97975  1.0000
  C   C18       1.0  0.13674  0.03925  0.71423  1.0000
  C   C19       1.0  0.12583  0.11021  0.05119  1.0000
  C   C20       1.0  0.04487  0.33074  0.96655  1.0000
  H   H19       1.0  0.07149  0.27046  0.23760  1.0000
  H   H20       1.0  0.25580  0.13259  0.24595  1.0000
  C   C21       1.0  0.11762  0.03636  0.74934  1.0000
  H   H21       1.0  0.19851  0.01226  0.81835  1.0000
  H   H22       1.0  0.02167  0.18780  0.48100  1.0000
  H   H23       1.0  0.11104  0.14862  0.48871  1.0000
  H   H24       1.0  0.10416  0.05107  0.75467  1.0000
  H   H25       1.0  0.01966  0.16259  0.40889  1.0000
  S   S14       1.0  0.01966  0.26084  0.29161  1.0000
  C   C22       1.0  0.02537  0.31037  0.11254  1.0000
  H   H26       1.0  0.01222  0.02267  0.70270  1.0000
  H   H27       1.0  0.07030  0.14602  0.96195  1.0000
  H   H28       1.0  0.23931  0.01046  0.85024  1.0000
  S   S15       1.0  0.21809  0.01811  0.09736  1.0000
  H   H29       1.0  0.05796  0.16358  0.51601  1.0000
  H   H30       1.0  0.17900  0.01959  0.91899  1.0000
  C   C23       1.0  0.05377  0.28736  0.16991  1.0000
  H   H31       1.0  0.09247  0.28388  0.19453  1.0000
  H   H32       1.0  0.03235  0.14380  0.76632  1.0000
  H   H33       1.0  0.06703  0.21908  0.46175  1.0000
  H   H34       1.0  0.03797  0.32092  0.24233  1.0000
  N   N1        1.0  0.09618  0.09720  0.97639  1.0000
  H   H35       1.0  0.11504  0.20678  0.36393  1.0000
  N   N2        1.0  0.04124  0.31217  0.16058  1.0000
  C   C24       1.0  0.05996  0.16231  0.40575  1.0000
  C   C25       1.0  0.03557  0.15052  0.42056  1.0000
  H   H36       1.0  0.05270  0.31865  0.88839  1.0000
  H   H37       1.0  0.08730  0.19363  0.34074  1.0000
  H   H38       1.0  0.06203  0.28012  0.13338  1.0000
  C   C26       1.0  0.05560  0.20335  0.44908  1.0000
  N   N3        1.0  0.07116  0.17991  0.44425  1.0000
  C   C27       1.0  0.07413  0.28673  0.21220  1.0000
  H   H39       1.0  0.24246  0.10856  0.20603  1.0000
  C   C28       1.0  0.03924  0.33134  0.90775  1.0000
  H   H40       1.0  0.09211  0.13734  0.53863  1.0000
  C   C29       1.0  0.07532  0.16835  0.49695  1.0000
  H   H41       1.0  0.15528  0.00283  0.88530  1.0000
  C   C30       1.0  0.06213  0.12887  0.94657  1.0000
  C   C31       1.0  0.15297  0.01924  0.70468  1.0000
  H   H42       1.0  0.06523  0.07331  0.98485  1.0000
  H   H43       1.0  0.08505  0.07019  0.08917  1.0000
  H   H44       1.0  0.22170  0.01715  0.96272  1.0000
  H   H45       1.0  0.04104  0.20271  0.52849  1.0000
  H   H46       1.0  0.10739  0.17012  0.41475  1.0000
  H   H47       1.0  0.08463  0.12996  0.47281  1.0000
  Fe  Fe10      1.0  0.22889  0.01070  0.18025  1.0000
  C   C32       1.0  0.07853  0.08345  0.00970  1.0000
  H   H48       1.0  0.10646  0.19708  0.45400  1.0000
  H   H49       1.0  0.03400  0.13251  0.39996  1.0000
  H   H50       1.0  0.03435  0.14578  0.46203  1.0000
  H   H51       1.0  0.04015  0.27339  0.18135  1.0000
  C   C33       1.0  0.09578  0.20302  0.37442  1.0000
  H   H52       1.0  0.04786  0.20892  0.41064  1.0000
  H   H53       1.0  0.07313  0.14715  0.39469  1.0000
  C   C34       1.0  0.17221  0.01359  0.88063  1.0000
  C   C35       1.0  0.10822  0.11769  0.00645  1.0000
  C   C36       1.0  0.01892  0.01386  0.73937  1.0000
  H   H54       1.0  0.14162  0.09848  0.03871  1.0000
  C   C37       1.0  0.09175  0.14472  0.49837  1.0000
  C   C38       1.0  0.05959  0.33215  0.15228  1.0000
  C   C39       1.0  0.10590  0.05722  0.92392  1.0000
  C   C40       1.0  0.03275  0.03352  0.77097  1.0000
  C   C41       1.0  0.08194  0.10919  0.93208  1.0000
  H   H55       1.0  0.07226  0.09511  0.90875  1.0000
  S   S16       1.0  0.03833  0.31924  0.35815  1.0000
  H   H56       1.0  0.07455  0.30322  0.23768  1.0000
  H   H57       1.0  0.02131  0.32217  0.90239  1.0000
  S   S17       1.0  0.08297  0.31869  0.44283  1.0000
  H   H58       1.0  0.08152  0.04605  0.04250  1.0000
  H   H59       1.0  0.05607  0.17192  0.36833  1.0000
  H   H60       1.0  0.09666  0.04456  0.95072  1.0000
  H   H61       1.0  0.16760  0.02127  0.67710  1.0000
  C   C42       1.0  0.11546  0.08044  0.95202  1.0000
  H   H62       1.0  0.21527  0.03745  0.90730  1.0000
  H   H63       1.0  0.09417  0.13014  0.02455  1.0000
  H   H64       1.0  0.12624  0.09099  0.92347  1.0000
  H   H65       1.0  0.13394  0.12731  0.06727  1.0000
  H   H66       1.0  0.06696  0.09675  0.03241  1.0000
  H   H67       1.0  0.11615  0.10154  0.08368  1.0000
  H   H68       1.0  0.09343  0.06178  0.89098  1.0000
  H   H69       1.0  0.04845  0.12171  0.97383  1.0000
  H   H70       1.0  0.04326  0.02519  0.80387  1.0000
  C   C43       1.0  0.22802  0.02327  0.92424  1.0000
  H   H71       1.0  0.24563  0.03266  0.93150  1.0000
  H   H72       1.0  0.04636  0.04233  0.74556  1.0000
  C   C44       1.0  0.01508  0.11163  0.79714  1.0000
  H   H73       1.0  0.02325  0.22071  0.48359  1.0000
  Fe  Fe11      1.0  0.25679  0.00612  0.08036  1.0000
  H   H74       1.0  0.03632  0.30341  0.07919  1.0000
  H   H75       1.0  0.05190  0.13434  0.91067  1.0000
  H   H76       1.0  0.16618  0.03063  0.85947  1.0000
  C   C45       1.0  0.01515  0.13484  0.77316  1.0000
  H   H77       1.0  0.13393  0.32550  0.26564  1.0000
  H   H78       1.0  0.09144  0.31058  0.12187  1.0000
  H   H79       1.0  0.04277  0.31155  0.98092  1.0000
  C   C46       1.0  0.07938  0.32659  0.11120  1.0000
  H   H80       1.0  0.25330  0.10187  0.26994  1.0000
  H   H81       1.0  0.07128  0.32374  0.07218  1.0000
  H   H82       1.0  0.01635  0.32086  0.81418  1.0000
  H   H83       1.0  0.01822  0.32892  0.10027  1.0000
  H   H84       1.0  0.01418  0.23678  0.39059  1.0000
  C   C47       1.0  0.25713  0.11281  0.23460  1.0000
  H   H85       1.0  0.16245  0.33428  0.19352  1.0000
  H   H86       1.0  0.25584  0.12689  0.12952  1.0000
  H   H87       1.0  0.00863  0.27399  0.12665  1.0000
  C   C48       1.0  0.17819  0.53141  0.73664  1.0000
  C   C49       1.0  0.13203  0.65537  0.74543  1.0000
  S   S18       1.0  0.16211  0.64438  0.56363  1.0000
  C   C50       1.0  0.17939  0.66065  0.78532  1.0000
  H   H88       1.0  0.09804  0.62219  0.16204  1.0000
  S   S19       1.0  0.19745  0.64429  0.45881  1.0000
  S   S20       1.0  0.11146  0.64799  0.84000  1.0000
  H   H89       1.0  0.06404  0.33594  0.97515  1.0000
  H   H90       1.0  0.24557  0.63375  0.41737  1.0000
  Fe  Fe12      1.0  0.19074  0.61972  0.52679  1.0000
  S   S21       1.0  0.18986  0.57836  0.52473  1.0000
  S   S22       1.0  0.22174  0.63446  0.57359  1.0000
  Fe  Fe13      1.0  0.13069  0.43343  0.97930  1.0000
  S   S23       1.0  0.13259  0.43477  0.06583  1.0000
  S   S24       1.0  0.09262  0.43646  0.94435  1.0000
  Fe  Fe14      1.0  0.18630  0.43142  0.96718  1.0000
  S   S25       1.0  0.19197  0.43203  0.05434  1.0000
  S   S26       1.0  0.22181  0.42999  0.91986  1.0000
  Fe  Fe15      1.0  0.16133  0.40489  0.05913  1.0000
  S   S27       1.0  0.16274  0.37188  0.11471  1.0000
  Fe  Fe16      1.0  0.16250  0.46166  0.05414  1.0000
  S   S28       1.0  0.15965  0.49445  0.10813  1.0000
  S   S29       1.0  0.15789  0.40158  0.97201  1.0000
  S   S30       1.0  0.15846  0.46298  0.96756  1.0000
  Fe  Fe17      1.0  0.15350  0.62149  0.00788  1.0000
  S   S31       1.0  0.12379  0.60451  0.95993  1.0000
  S   S32       1.0  0.18811  0.59832  0.01627  1.0000
  H   H91       1.0  0.02940  0.66708  0.10833  1.0000
  Fe  Fe18      1.0  0.09881  0.61904  0.02188  1.0000
  S   S33       1.0  0.06879  0.59720  0.05743  1.0000
  C   C51       1.0  0.02167  0.58405  0.03597  1.0000
  S   S34       1.0  0.12882  0.63307  0.07329  1.0000
  N   N4        1.0  0.03855  0.35667  0.88306  1.0000
  C   C52       1.0  0.22966  0.44372  0.85953  1.0000
  C   C53       1.0  0.21194  0.45232  0.82381  1.0000
  H   H92       1.0  0.13171  0.60219  0.61654  1.0000
  H   H93       1.0  0.13351  0.50940  0.99777  1.0000
  C   C54       1.0  0.19998  0.57861  0.71261  1.0000
  H   H94       1.0  0.08215  0.52031  0.13971  1.0000
  H   H95       1.0  0.09511  0.55217  0.00656  1.0000
  C   C55       1.0  0.18059  0.56931  0.04165  1.0000
  C   C56       1.0  0.19043  0.54742  0.02006  1.0000
  C   C57       1.0  0.18391  0.52425  0.03977  1.0000
  C   C58       1.0  0.16814  0.52302  0.08214  1.0000
  C   C59       1.0  0.15868  0.54492  0.10421  1.0000
  C   C60       1.0  0.16451  0.56798  0.08341  1.0000
  H   H96       1.0  0.20269  0.54832  0.98745  1.0000
  H   H97       1.0  0.19129  0.50739  0.02256  1.0000
  H   H98       1.0  0.14650  0.54406  0.13699  1.0000
  H   H99       1.0  0.15691  0.58478  0.10038  1.0000
  C   C61       1.0  0.22063  0.56848  0.52020  1.0000
  C   C62       1.0  0.23765  0.58400  0.49755  1.0000
  H   H100      1.0  0.06617  0.63930  0.28278  1.0000
  H   H101      1.0  0.20607  0.59797  0.71880  1.0000
  C   C63       1.0  0.04258  0.50600  0.97470  1.0000
  C   C64       1.0  0.22864  0.54616  0.54283  1.0000
  H   H102      1.0  0.23154  0.60109  0.47942  1.0000
  C   C65       1.0  0.09299  0.49266  0.05206  1.0000
  H   H103      1.0  0.22069  0.61031  0.11352  1.0000
  H   H104      1.0  0.21554  0.53408  0.56028  1.0000
  H   H105      1.0  0.19271  0.45136  0.83328  1.0000
  H   H106      1.0  0.24571  0.63754  0.67531  1.0000
  C   C66       1.0  0.02877  0.66214  0.06688  1.0000
  H   H107      1.0  0.11525  0.52056  0.94319  1.0000
  H   H108      1.0  0.19559  0.52708  0.71617  1.0000
  H   H109      1.0  0.20518  0.46757  0.74743  1.0000
  H   H110      1.0  0.08474  0.45744  0.08770  1.0000
  H   H111      1.0  0.16093  0.54553  0.66775  1.0000
  H   H112      1.0  0.01909  0.61720  0.90281  1.0000
  H   H113      1.0  0.07984  0.49483  0.95673  1.0000
  H   H114      1.0  0.05749  0.61670  0.95500  1.0000
  C   C67       1.0  0.23627  0.62059  0.13051  1.0000
  H   H115      1.0  0.13567  0.54060  0.97674  1.0000
  H   H116      1.0  0.20779  0.56800  0.74591  1.0000
  C   C68       1.0  0.14078  0.36488  0.16277  1.0000
  C   C69       1.0  0.11899  0.37883  0.16823  1.0000
  C   C70       1.0  0.10311  0.37410  0.20968  1.0000
  C   C71       1.0  0.07456  0.47374  0.07154  1.0000
  H   H117      1.0  0.11455  0.39350  0.14101  1.0000
  H   H118      1.0  0.08660  0.38541  0.21424  1.0000
  C   C72       1.0  0.03576  0.39725  0.04162  1.0000
  C   C73       1.0  0.06085  0.39345  0.05171  1.0000
  C   C74       1.0  0.07831  0.40544  0.02196  1.0000
  C   C75       1.0  0.07081  0.42188  0.98277  1.0000
  C   C76       1.0  0.04569  0.42619  0.97339  1.0000
  H   H119      1.0  0.06292  0.48121  0.10319  1.0000
  H   H120      1.0  0.06688  0.38085  0.08198  1.0000
  H   H121      1.0  0.09758  0.40138  0.02855  1.0000
  H   H122      1.0  0.03981  0.43905  0.94339  1.0000
  H   H123      1.0  0.04778  0.51684  0.07124  1.0000
  C   C77       1.0  0.04234  0.59615  0.01808  1.0000
  C   C78       1.0  0.04151  0.60771  0.96961  1.0000
  H   H124      1.0  0.09919  0.36617  0.91728  1.0000
  C   C79       1.0  0.10840  0.35498  0.24540  1.0000
  H   H125      1.0  0.12486  0.46896  0.32148  1.0000
  H   H126      1.0  0.07250  0.52679  0.94938  1.0000
  N   N5        1.0  0.14581  0.43723  0.24733  1.0000
  C   C80       1.0  0.15992  0.43220  0.19806  1.0000
  C   C81       1.0  0.11960  0.44340  0.23179  1.0000
  C   C82       1.0  0.14702  0.41392  0.27983  1.0000
  C   C83       1.0  0.15788  0.45837  0.27510  1.0000
  C   C84       1.0  0.18624  0.42135  0.20497  1.0000
  C   C85       1.0  0.11560  0.46694  0.19877  1.0000
  C   C86       1.0  0.12666  0.41045  0.32015  1.0000
  C   C87       1.0  0.14508  0.46880  0.32385  1.0000
  H   H127      1.0  0.14999  0.41906  0.17268  1.0000
  H   H128      1.0  0.16164  0.44937  0.17475  1.0000
  H   H129      1.0  0.10748  0.44571  0.26575  1.0000
  H   H130      1.0  0.11172  0.42771  0.20966  1.0000
  H   H131      1.0  0.14628  0.39718  0.25459  1.0000
  H   H132      1.0  0.16488  0.41226  0.30099  1.0000
  H   H133      1.0  0.17667  0.45270  0.28823  1.0000
  H   H134      1.0  0.16126  0.47409  0.24836  1.0000
  H   H135      1.0  0.18651  0.40279  0.22332  1.0000
  H   H136      1.0  0.19445  0.41864  0.16607  1.0000
  H   H137      1.0  0.19832  0.43399  0.22668  1.0000
  H   H138      1.0  0.12373  0.46479  0.15984  1.0000
  H   H139      1.0  0.09560  0.47025  0.19256  1.0000
  H   H140      1.0  0.12279  0.48367  0.21804  1.0000
  H   H141      1.0  0.13114  0.39361  0.34345  1.0000
  H   H142      1.0  0.10871  0.40699  0.30113  1.0000
  H   H143      1.0  0.12476  0.42611  0.34752  1.0000
  H   H144      1.0  0.14979  0.48858  0.32868  1.0000
  C   C88       1.0  0.25225  0.57780  0.02146  1.0000
  H   H145      1.0  0.02218  0.57502  0.07340  1.0000
  C   C89       1.0  0.07040  0.51083  0.97623  1.0000
  C   C90       1.0  0.14574  0.34532  0.19761  1.0000
  H   H146      1.0  0.15131  0.45856  0.35910  1.0000
  H   H147      1.0  0.09207  0.36703  0.84870  1.0000
  C   C91       1.0  0.10260  0.53390  0.02038  1.0000
  C   C92       1.0  0.16377  0.59198  0.66339  1.0000
  S   S35       1.0  0.01812  0.33840  0.49617  1.0000
  C   C93       1.0  0.08856  0.63294  0.19301  1.0000
  H   H148      1.0  0.16263  0.59478  0.84145  1.0000
  H   H149      1.0  0.09145  0.34278  0.10838  1.0000
  H   H150      1.0  0.16350  0.65368  0.85989  1.0000
  C   C94       1.0  0.02816  0.41381  0.00265  1.0000
  H   H151      1.0  0.14390  0.55144  0.72459  1.0000
  H   H152      1.0  0.01945  0.33962  0.75782  1.0000
  H   H153      1.0  0.12826  0.60993  0.68322  1.0000
  N   N6        1.0  0.08211  0.51607  0.02865  1.0000
  H   H154      1.0  0.23237  0.62478  0.17189  1.0000
  H   H155      1.0  0.02378  0.40849  0.87679  1.0000
  H   H156      1.0  0.21357  0.58348  0.63346  1.0000
  H   H157      1.0  0.07024  0.62490  0.19865  1.0000
  H   H158      1.0  0.18247  0.53579  0.77757  1.0000
  H   H159      1.0  0.15970  0.56390  0.81906  1.0000
  C   C95       1.0  0.24402  0.46268  0.76174  1.0000
  H   H160      1.0  0.03737  0.49976  0.93508  1.0000
  H   H161      1.0  0.05790  0.54317  0.14187  1.0000
  H   H162      1.0  0.03176  0.52331  0.98249  1.0000
  H   H163      1.0  0.12588  0.57803  0.66165  1.0000
  H   H164      1.0  0.10542  0.49705  0.08513  1.0000
  C   C96       1.0  0.16924  0.58139  0.81151  1.0000
  H   H165      1.0  0.24377  0.61663  0.02920  1.0000
  C   C97       1.0  0.12265  0.52531  0.98203  1.0000
  H   H166      1.0  0.17193  0.61072  0.66232  1.0000
  Fe  Fe19      1.0  0.11978  0.64234  0.92494  1.0000
  C   C98       1.0  0.21909  0.46151  0.77510  1.0000
  H   H167      1.0  0.16838  0.61132  0.75685  1.0000
  H   H168      1.0  0.18927  0.57902  0.81775  1.0000
  S   S36       1.0  0.08868  0.35157  0.29930  1.0000
  H   H169      1.0  0.03867  0.65471  0.30298  1.0000
  C   C99       1.0  0.08613  0.66031  0.17663  1.0000
  H   H170      1.0  0.05965  0.37584  0.94192  1.0000
  Fe  Fe20      1.0  0.19400  0.66136  0.60528  1.0000
  H   H171      1.0  0.25229  0.59865  0.70692  1.0000
  C   C100      1.0  0.06023  0.37156  0.89983  1.0000
  N   N7        1.0  0.17235  0.57797  0.71118  1.0000
  C   C101      1.0  0.13629  0.65305  0.79891  1.0000
  H   H172      1.0  0.05593  0.34320  0.81299  1.0000
  H   H173      1.0  0.14198  0.59278  0.75686  1.0000
  H   H174      1.0  0.10481  0.48262  0.02353  1.0000
  C   C102      1.0  0.16281  0.55193  0.70874  1.0000
  H   H175      1.0  0.05615  0.54558  0.04552  1.0000
  H   H176      1.0  0.17010  0.58238  0.62754  1.0000
  H   H177      1.0  0.24160  0.57068  0.05436  1.0000
  H   H178      1.0  0.05964  0.39016  0.88141  1.0000
  S   S37       1.0  0.09175  0.65529  0.98253  1.0000
  H   H179      1.0  0.08657  0.55152  0.11610  1.0000
  C   C103      1.0  0.16237  0.59182  0.75765  1.0000
  H   H180      1.0  0.22004  0.43018  0.62889  1.0000
  C   C104      1.0  0.21285  0.56873  0.66331  1.0000
  H   H181      1.0  0.04050  0.37212  0.80568  1.0000
  C   C105      1.0  0.06383  0.52857  0.06430  1.0000
  H   H182      1.0  0.20359  0.55258  0.64616  1.0000
  C   C106      1.0  0.23129  0.41578  0.64950  1.0000
  H   H183      1.0  0.06910  0.33686  0.18911  1.0000
  C   C107      1.0  0.13575  0.59553  0.65656  1.0000
  C   C108      1.0  0.16002  0.65560  0.81881  1.0000
  C   C109      1.0  0.07357  0.53611  0.11838  1.0000
  S   S38       1.0  0.25184  0.47275  0.69827  1.0000
  H   H184      1.0  0.11248  0.53776  0.05729  1.0000
  H   H185      1.0  0.10014  0.62994  0.22793  1.0000
  C   C110      1.0  0.25459  0.44494  0.84614  1.0000
  H   H186      1.0  0.24799  0.34636  0.70296  1.0000
  Fe  Fe21      1.0  0.22641  0.66119  0.50889  1.0000
  C   C111      1.0  0.08582  0.36038  0.88701  1.0000
  H   H187      1.0  0.06308  0.46672  0.03952  1.0000
  C   C112      1.0  0.05802  0.65768  0.29198  1.0000
  H   H188      1.0  0.03209  0.34285  0.98892  1.0000
  H   H189      1.0  0.05018  0.34972  0.14009  1.0000
  C   C113      1.0  0.15147  0.65996  0.71180  1.0000
  H   H190      1.0  0.08658  0.33991  0.88693  1.0000
  H   H191      1.0  0.14803  0.66173  0.67059  1.0000
  H   H192      1.0  0.16769  0.51404  0.73656  1.0000
  C   C114      1.0  0.01718  0.34028  0.80059  1.0000
  H   H193      1.0  0.23205  0.56282  0.67254  1.0000
  H   H194      1.0  0.23702  0.63874  0.11096  1.0000
  C   C115      1.0  0.25378  0.54001  0.54509  1.0000
  H   H195      1.0  0.03697  0.49149  0.00193  1.0000
  H   H196      1.0  0.10171  0.66480  0.15098  1.0000
  H   H197      1.0  0.03559  0.64278  0.06218  1.0000
  H   H198      1.0  0.23763  0.37753  0.71278  1.0000
  H   H199      1.0  0.10443  0.66071  0.28031  1.0000
  C   C116      1.0  0.12958  0.34025  0.23851  1.0000
  H   H200      1.0  0.19774  0.66266  0.80087  1.0000
  C   C117      1.0  0.01042  0.34288  0.20335  1.0000
  H   H201      1.0  0.07019  0.66106  0.14951  1.0000
  S   S39       1.0  0.15141  0.65861  0.96825  1.0000
  H   H202      1.0  0.22166  0.39808  0.64447  1.0000
  H   H203      1.0  0.25390  0.65244  0.73411  1.0000
  H   H204      1.0  0.06735  0.66539  0.32675  1.0000
  H   H205      1.0  0.23159  0.42136  0.69082  1.0000
  C   C118      1.0  0.17517  0.66264  0.73175  1.0000
  C   C119      1.0  0.25691  0.41438  0.62495  1.0000
  H   H206      1.0  0.11362  0.65362  0.72995  1.0000
  H   H207      1.0  0.24822  0.61395  0.76706  1.0000
  C   C120      1.0  0.01541  0.37007  0.90019  1.0000
  H   H208      1.0  0.02196  0.35938  0.19940  1.0000
  H   H209      1.0  0.25374  0.40706  0.58521  1.0000
  C   C121      1.0  0.03912  0.35378  0.82497  1.0000
  H   H210      1.0  0.01619  0.37413  0.94240  1.0000
  H   H211      1.0  0.01230  0.62674  0.12687  1.0000
  C   C122      1.0  0.25421  0.36571  0.70711  1.0000
  S   S40       1.0  0.01462  0.38048  0.07765  1.0000
  H   H212      1.0  0.13399  0.66834  0.20504  1.0000
  H   H213      1.0  0.23984  0.57760  0.98702  1.0000
  C   C123      1.0  0.01981  0.60783  0.93987  1.0000
  H   H214      1.0  0.25480  0.58549  0.12979  1.0000
  C   C124      1.0  0.00910  0.39484  0.87275  1.0000
  H   H215      1.0  0.00880  0.41710  0.99517  1.0000
  S   S41       1.0  0.19993  0.66806  0.69077  1.0000
  Fe  Fe22      1.0  0.19013  0.84932  0.26793  1.0000
  S   S42       1.0  0.20414  0.81375  0.30324  1.0000
  S   S43       1.0  0.22052  0.87494  0.24730  1.0000
  Fe  Fe23      1.0  0.13740  0.83451  0.27939  1.0000
  S   S44       1.0  0.14752  0.79772  0.31449  1.0000
  S   S45       1.0  0.09748  0.84519  0.28092  1.0000
  Fe  Fe24      1.0  0.17432  0.81933  0.36128  1.0000
  S   S46       1.0  0.18107  0.81181  0.44632  1.0000
  Fe  Fe25      1.0  0.17606  0.79570  0.25268  1.0000
  S   S47       1.0  0.18825  0.76001  0.21387  1.0000
  S   S48       1.0  0.16248  0.85637  0.33024  1.0000
  S   S49       1.0  0.16385  0.83096  0.21294  1.0000
  Fe  Fe26      1.0  0.19287  0.89879  0.77293  1.0000
  S   S50       1.0  0.17972  0.92986  0.72059  1.0000
  S   S51       1.0  0.23264  0.90274  0.79694  1.0000
  Fe  Fe27      1.0  0.14236  0.87672  0.77775  1.0000
  S   S52       1.0  0.12561  0.90643  0.72782  1.0000
  S   S53       1.0  0.11551  0.84771  0.80037  1.0000
  Fe  Fe28      1.0  0.15867  0.90064  0.67836  1.0000
  S   S54       1.0  0.14926  0.90080  0.59273  1.0000
  Fe  Fe29      1.0  0.14785  0.93265  0.77433  1.0000
  S   S55       1.0  0.12985  0.96742  0.80585  1.0000
  S   S56       1.0  0.17452  0.86911  0.72550  1.0000
  S   S57       1.0  0.16200  0.90345  0.82951  1.0000
  H   H216      1.0  0.02744  0.79253  0.31273  1.0000
  H   H217      1.0  0.02470  0.97501  0.80035  1.0000
  H   H218      1.0  0.05175  0.69406  0.26262  1.0000
  S   S58       1.0  0.11429  0.70614  0.06326  1.0000
  S   S59       1.0  0.03169  0.69856  0.48893  1.0000
  H   H219      1.0  0.21743  0.86012  0.85695  1.0000
  C   C125      1.0  0.12506  0.75585  0.88971  1.0000
  H   H220      1.0  0.23213  0.75806  0.29191  1.0000
  H   H221      1.0  0.09440  0.89990  0.63378  1.0000
  H   H222      1.0  0.08166  0.71917  0.22576  1.0000
  C   C126      1.0  0.06312  0.69462  0.47606  1.0000
  C   C127      1.0  0.07215  0.69912  0.42650  1.0000
  C   C128      1.0  0.22785  0.69158  0.35267  1.0000
  H   H223      1.0  0.22150  0.93566  0.48460  1.0000
  H   H224      1.0  0.11009  0.76245  0.86302  1.0000
  N   N8        1.0  0.20824  0.73388  0.38171  1.0000
  C   C129      1.0  0.08511  0.71573  0.89490  1.0000
  H   H225      1.0  0.15566  0.72849  0.36462  1.0000
  C   C130      1.0  0.04281  0.88924  0.82727  1.0000
  C   C131      1.0  0.06504  0.90044  0.83901  1.0000
  C   C132      1.0  0.08731  0.88749  0.83155  1.0000
  C   C133      1.0  0.08746  0.86302  0.81378  1.0000
  C   C134      1.0  0.06516  0.85144  0.80381  1.0000
  C   C135      1.0  0.04281  0.86468  0.80972  1.0000
  H   H226      1.0  0.06514  0.91943  0.85250  1.0000
  H   H227      1.0  0.10442  0.89656  0.83943  1.0000
  H   H228      1.0  0.06521  0.83250  0.79009  1.0000
  H   H229      1.0  0.02566  0.85594  0.80068  1.0000
  C   C136      1.0  0.08005  0.81873  0.27151  1.0000
  C   C137      1.0  0.08890  0.79947  0.23998  1.0000
  C   C138      1.0  0.07537  0.77794  0.23381  1.0000
  C   C139      1.0  0.05340  0.77522  0.26070  1.0000
  C   C140      1.0  0.04455  0.79444  0.29240  1.0000
  C   C141      1.0  0.05768  0.81639  0.29705  1.0000
  H   H230      1.0  0.10609  0.80131  0.21991  1.0000
  H   H231      1.0  0.08221  0.76329  0.20881  1.0000
  H   H232      1.0  0.09890  0.87902  0.58187  1.0000
  H   H233      1.0  0.05076  0.83134  0.32125  1.0000
  C   C142      1.0  0.13525  0.72094  0.10441  1.0000
  C   C143      1.0  0.15807  0.71001  0.11659  1.0000
  C   C144      1.0  0.17420  0.72218  0.15037  1.0000
  C   C145      1.0  0.16752  0.74518  0.17220  1.0000
  C   C146      1.0  0.14458  0.75594  0.16047  1.0000
  C   C147      1.0  0.12853  0.74388  0.12642  1.0000
  H   H234      1.0  0.16331  0.69227  0.09996  1.0000
  H   H235      1.0  0.19195  0.71380  0.15948  1.0000
  H   H236      1.0  0.13931  0.77365  0.17721  1.0000
  H   H237      1.0  0.11081  0.75234  0.11733  1.0000
  C   C148      1.0  0.17069  0.83542  0.48851  1.0000
  C   C149      1.0  0.15361  0.85344  0.47162  1.0000
  C   C150      1.0  0.14660  0.87298  0.50466  1.0000
  C   C151      1.0  0.15650  0.87455  0.55488  1.0000
  C   C152      1.0  0.17281  0.85599  0.57264  1.0000
  C   C153      1.0  0.17986  0.83641  0.53947  1.0000
  H   H238      1.0  0.14577  0.85238  0.43312  1.0000
  H   H239      1.0  0.13378  0.88717  0.49093  1.0000
  H   H240      1.0  0.18060  0.85711  0.61127  1.0000
  H   H241      1.0  0.19295  0.82241  0.55290  1.0000
  C   C154      1.0  0.21477  0.90699  0.24355  1.0000
  C   C155      1.0  0.19096  0.91716  0.24561  1.0000
  C   C156      1.0  0.18719  0.94297  0.24200  1.0000
  C   C157      1.0  0.23090  0.94828  0.23408  1.0000
  C   C158      1.0  0.23470  0.92261  0.23834  1.0000
  H   H242      1.0  0.17549  0.90518  0.24965  1.0000
  H   H243      1.0  0.07252  0.68427  0.55459  1.0000
  H   H244      1.0  0.24851  0.72972  0.30953  1.0000
  N   N9        1.0  0.09892  0.77708  0.44539  1.0000
  C   C159      1.0  0.11362  0.76081  0.40869  1.0000
  C   C160      1.0  0.11623  0.78547  0.48753  1.0000
  C   C161      1.0  0.08887  0.79911  0.41513  1.0000
  C   C162      1.0  0.07850  0.76179  0.46633  1.0000
  C   C163      1.0  0.10104  0.75452  0.35639  1.0000
  C   C164      1.0  0.12897  0.76471  0.51971  1.0000
  C   C165      1.0  0.08238  0.82291  0.44581  1.0000
  C   C166      1.0  0.06154  0.77396  0.50700  1.0000
  H   H245      1.0  0.13135  0.76945  0.39944  1.0000
  H   H246      1.0  0.11877  0.74283  0.42711  1.0000
  H   H247      1.0  0.10705  0.79805  0.51567  1.0000
  H   H248      1.0  0.13094  0.79674  0.47034  1.0000
  H   H249      1.0  0.10241  0.80512  0.38581  1.0000
  H   H250      1.0  0.07218  0.79399  0.39269  1.0000
  H   H251      1.0  0.06609  0.75599  0.43437  1.0000
  H   H252      1.0  0.08549  0.74380  0.48224  1.0000
  H   H253      1.0  0.08329  0.74531  0.36120  1.0000
  H   H254      1.0  0.09820  0.77115  0.33192  1.0000
  H   H255      1.0  0.11314  0.74162  0.33414  1.0000
  H   H256      1.0  0.14161  0.75305  0.49597  1.0000
  H   H257      1.0  0.14042  0.77330  0.55042  1.0000
  H   H258      1.0  0.11559  0.75290  0.53939  1.0000
  H   H259      1.0  0.07354  0.83651  0.41875  1.0000
  H   H260      1.0  0.09912  0.83174  0.46128  1.0000
  H   H261      1.0  0.04633  0.78471  0.48794  1.0000
  H   H262      1.0  0.07120  0.78574  0.53519  1.0000
  H   H263      1.0  0.05340  0.75915  0.53075  1.0000
  H   H264      1.0  0.09896  0.82493  0.62175  1.0000
  C   C167      1.0  0.22278  0.90419  0.98194  1.0000
  H   H265      1.0  0.10057  0.69294  0.28839  1.0000
  H   H266      1.0  0.21068  0.87842  0.04001  1.0000
  H   H267      1.0  0.17215  0.90884  0.44838  1.0000
  C   C168      1.0  0.13211  0.99439  0.76827  1.0000
  H   H268      1.0  0.04311  0.70732  0.17212  1.0000
  H   H269      1.0  0.23899  0.83596  0.92650  1.0000
  H   H270      1.0  0.19935  0.69711  0.40935  1.0000
  C   C169      1.0  0.07947  0.68781  0.51621  1.0000
  C   C170      1.0  0.06153  0.71030  0.15587  1.0000
  H   H271      1.0  0.21944  0.73437  0.48997  1.0000
  H   H272      1.0  0.11909  0.85101  0.62763  1.0000
  H   H273      1.0  0.16820  0.95989  0.89231  1.0000
  H   H274      1.0  0.06834  0.89843  0.72611  1.0000
  H   H275      1.0  0.02392  0.88772  0.97977  1.0000
  C   C171      1.0  0.21535  0.70747  0.39512  1.0000
  H   H276      1.0  0.24864  0.99050  0.90204  1.0000
  H   H277      1.0  0.20585  0.95187  0.82855  1.0000
  H   H278      1.0  0.18187  0.71729  0.96150  1.0000
  C   C172      1.0  0.24237  0.88019  0.11800  1.0000
  H   H279      1.0  0.25042  0.98091  0.79412  1.0000
  S   S60       1.0  0.01543  0.90663  0.83405  1.0000
  H   H280      1.0  0.22680  0.93698  0.06632  1.0000
  H   H281      1.0  0.16558  0.91439  0.35102  1.0000
  H   H282      1.0  0.21281  0.87957  0.49690  1.0000
  N   N10       1.0  0.24034  0.89895  0.07486  1.0000
  H   H283      1.0  0.23347  0.92824  0.13069  1.0000
  N   N11       1.0  0.08279  0.67917  0.21934  1.0000
  H   H284      1.0  0.15891  0.72341  0.29673  1.0000
  H   H285      1.0  0.05556  0.91684  0.58487  1.0000
  H   H286      1.0  0.20214  0.72939  0.29859  1.0000
  H   H287      1.0  0.21990  0.98533  0.76572  1.0000
  H   H288      1.0  0.22321  0.67189  0.35858  1.0000
  H   H289      1.0  0.08412  0.91989  0.55264  1.0000
  C   C173      1.0  0.05813  0.85291  0.59107  1.0000
  H   H290      1.0  0.09962  0.70768  0.17374  1.0000
  C   C174      1.0  0.16841  0.72117  0.33483  1.0000
  H   H291      1.0  0.03820  0.86903  0.68520  1.0000
  H   H292      1.0  0.18723  0.75546  0.32591  1.0000
  H   H293      1.0  0.11552  0.83042  0.68059  1.0000
  C   C175      1.0  0.04386  0.83074  0.61173  1.0000
  H   H294      1.0  0.06931  0.81986  0.47743  1.0000
  H   H295      1.0  0.13929  0.73117  0.74720  1.0000
  H   H296      1.0  0.16383  0.72402  0.79088  1.0000
  S   S61       1.0  0.01093  0.70012  0.34014  1.0000
  C   C176      1.0  0.24768  0.85176  0.90956  1.0000
  C   C177      1.0  0.20785  0.75023  0.47648  1.0000
  C   C178      1.0  0.19231  0.73570  0.33374  1.0000
  H   H297      1.0  0.06399  0.69961  0.11945  1.0000
  H   H298      1.0  0.16336  0.98161  0.72433  1.0000
  H   H299      1.0  0.05968  0.70443  0.39540  1.0000
  H   H300      1.0  0.07277  0.84555  0.56505  1.0000
  H   H301      1.0  0.21885  0.97286  0.36018  1.0000
  C   C179      1.0  0.20715  0.95855  0.23550  1.0000
  H   H302      1.0  0.16877  0.95086  0.24350  1.0000
  H   H303      1.0  0.03756  0.86426  0.93997  1.0000
  C   C180      1.0  0.09743  0.69720  0.41741  1.0000
  H   H304      1.0  0.10440  0.70092  0.37926  1.0000
  C   C181      1.0  0.16574  0.92993  0.37916  1.0000
  S   S62       1.0  0.03763  0.74748  0.25469  1.0000
  H   H305      1.0  0.17871  0.73169  0.43747  1.0000
  H   H306      1.0  0.19462  0.75486  0.50777  1.0000
  H   H307      1.0  0.06168  0.92018  0.67459  1.0000
  H   H308      1.0  0.09275  0.86833  0.69877  1.0000
  C   C182      1.0  0.08423  0.85563  0.67040  1.0000
  H   H309      1.0  0.21127  0.93231  0.34033  1.0000
  C   C183      1.0  0.24675  0.88561  0.84766  1.0000
  C   C184      1.0  0.23544  0.86541  0.87025  1.0000
  H   H310      1.0  0.17197  0.70108  0.34085  1.0000
  H   H311      1.0  0.04206  0.67441  0.04797  1.0000
  H   H312      1.0  0.18997  0.93407  0.12105  1.0000
  H   H313      1.0  0.14326  0.67834  0.26803  1.0000
  H   H314      1.0  0.23725  0.96525  0.41704  1.0000
  H   H315      1.0  0.12291  0.75213  0.97698  1.0000
  H   H316      1.0  0.03328  0.88959  0.63275  1.0000
  H   H317      1.0  0.13229  0.70090  0.22282  1.0000
  H   H318      1.0  0.05569  0.81765  0.63437  1.0000
  H   H319      1.0  0.21943  0.96395  0.94437  1.0000
  H   H320      1.0  0.08140  0.70638  0.85730  1.0000
  H   H321      1.0  0.14771  0.75392  0.79434  1.0000
  H   H322      1.0  0.01670  0.99994  0.84188  1.0000
  C   C185      1.0  0.10361  0.67833  0.25837  1.0000
  H   H323      1.0  0.20430  0.96709  0.41965  1.0000
  N   N12       1.0  0.20796  0.91621  0.41711  1.0000
  H   H324      1.0  0.06214  0.73018  0.14506  1.0000
  H   H325      1.0  0.19637  0.87793  0.41555  1.0000
  H   H326      1.0  0.07911  0.73544  0.89268  1.0000
  H   H327      1.0  0.10855  0.72868  0.81027  1.0000
  H   H328      1.0  0.07362  0.70661  0.92426  1.0000
  H   H329      1.0  0.16371  0.74502  0.96493  1.0000
  H   H330      1.0  0.22566  0.76949  0.38161  1.0000
  C   C186      1.0  0.11384  0.69100  0.45774  1.0000
  H   H331      1.0  0.07282  0.84329  0.69415  1.0000
  H   H332      1.0  0.24641  0.96016  0.23067  1.0000
  S   S63       1.0  0.20092  0.68972  0.54398  1.0000
  C   C187      1.0  0.22564  0.92116  0.09378  1.0000
  H   H333      1.0  0.22417  0.87234  0.12638  1.0000
  H   H334      1.0  0.15107  0.71530  0.98209  1.0000
  C   C188      1.0  0.11717  0.76442  0.94466  1.0000
  H   H335      1.0  0.25318  0.91483  0.23745  1.0000
  H   H336      1.0  0.24474  0.74467  0.40547  1.0000
  C   C189      1.0  0.16304  0.72506  0.95493  1.0000
  H   H337      1.0  0.12777  0.70205  0.81844  1.0000
  C   C190      1.0  0.11234  0.71252  0.91080  1.0000
  H   H338      1.0  0.11737  0.69257  0.90549  1.0000
  C   C191      1.0  0.12695  0.72243  0.82487  1.0000
  C   C192      1.0  0.14569  0.73376  0.78788  1.0000
  C   C193      1.0  0.22223  0.91672  0.46737  1.0000
  N   N13       1.0  0.12996  0.72843  0.88188  1.0000
  N   N14       1.0  0.06861  0.86991  0.63162  1.0000
  Fe  Fe30      1.0  0.17128  0.67056  0.49917  1.0000
  H   H339      1.0  0.11332  0.71539  0.95317  1.0000
  H   H340      1.0  0.15975  0.70135  0.88793  1.0000
  S   S64       1.0  0.14547  0.69186  0.44587  1.0000
  H   H341      1.0  0.16938  0.73200  0.87555  1.0000
  H   H342      1.0  0.14145  0.76654  0.87891  1.0000
  H   H343      1.0  0.22150  0.69569  0.31279  1.0000
  C   C194      1.0  0.15589  0.72120  0.89759  1.0000
  H   H344      1.0  0.09701  0.76771  0.94604  1.0000
  C   C195      1.0  0.22089  0.96446  0.83970  1.0000
  H   H345      1.0  0.12528  0.78270  0.95300  1.0000
  H   H346      1.0  0.23098  0.85925  0.36933  1.0000
  C   C196      1.0  0.19827  0.91687  0.10426  1.0000
  S   S65       1.0  0.01313  0.75367  0.40038  1.0000
  C   C197      1.0  0.10551  0.83969  0.64795  1.0000
  C   C198      1.0  0.20823  0.89061  0.39353  1.0000
  H   H347      1.0  0.11739  0.68131  0.53849  1.0000
  N   N15       1.0  0.21151  0.98505  0.87472  1.0000
  C   C199      1.0  0.21968  0.93356  0.37957  1.0000
  H   H348      1.0  0.02791  0.83679  0.63536  1.0000
  C   C200      1.0  0.12957  0.68171  0.23647  1.0000
  H   H349      1.0  0.23991  0.90978  0.96280  1.0000
  H   H350      1.0  0.23490  0.95257  0.86026  1.0000
  H   H351      1.0  0.03316  0.99998  0.72725  1.0000
  C   C201      1.0  0.00894  0.98714  0.81248  1.0000
  H   H352      1.0  0.24820  0.88902  0.15491  1.0000
  H   H353      1.0  0.23914  0.92793  0.37286  1.0000
  H   H354      1.0  0.21206  0.89390  0.95247  1.0000
  C   C202      1.0  0.18163  0.92380  0.42750  1.0000
  H   H355      1.0  0.21169  0.92084  0.99243  1.0000
  H   H356      1.0  0.22822  0.70690  0.42884  1.0000
  H   H357      1.0  0.23978  0.87151  0.01359  1.0000
  C   C203      1.0  0.23356  0.87751  0.38837  1.0000
  C   C204      1.0  0.05469  0.90416  0.69620  1.0000
  H   H358      1.0  0.19644  0.98688  0.95283  1.0000
  H   H359      1.0  0.21939  0.76670  0.47172  1.0000
  C   C205      1.0  0.19099  0.99904  0.84683  1.0000
  C   C206      1.0  0.07085  0.90620  0.56675  1.0000
  H   H360      1.0  0.20029  0.89125  0.35367  1.0000
  H   H361      1.0  0.04505  0.86328  0.56520  1.0000
  H   H362      1.0  0.24234  0.87368  0.42655  1.0000
  C   C207      1.0  0.21330  0.89914  0.50986  1.0000
  H   H363      1.0  0.18032  0.93991  0.45441  1.0000
  C   C208      1.0  0.22816  0.88705  0.02873  1.0000
  H   H364      1.0  0.23543  0.95591  0.76335  1.0000
  Fe  Fe31      1.0  0.01087  0.74011  0.31819  1.0000
  C   C209      1.0  0.10483  0.68601  0.50710  1.0000
  C   C210      1.0  0.04770  0.88251  0.66020  1.0000
  H   H365      1.0  0.03640  0.82022  0.57827  1.0000
  H   H366      1.0  0.19140  0.93589  0.90305  1.0000
  H   H367      1.0  0.17173  0.94699  0.35955  1.0000
  H   H368      1.0  0.14647  0.93341  0.39137  1.0000
  C   C211      1.0  0.22006  0.96114  0.39560  1.0000
  C   C212      1.0  0.18346  0.95358  0.91811  1.0000
  H   H369      1.0  0.17999  0.98588  0.82345  1.0000
  S   S66       1.0  0.20222  0.99079  0.23109  1.0000
  C   C213      1.0  0.08433  0.88850  0.60499  1.0000
  H   H370      1.0  0.19560  0.90191  0.13283  1.0000
  H   H371      1.0  0.18791  0.91279  0.06818  1.0000
  C   C214      1.0  0.05852  0.67605  0.24620  1.0000
  H   H372      1.0  0.02688  0.85633  0.00301  1.0000
  H   H373      1.0  0.18369  0.76193  0.41443  1.0000
  C   C215      1.0  0.08248  0.70459  0.19513  1.0000
  H   H374      1.0  0.06400  0.89620  0.53210  1.0000
  H   H375      1.0  0.03808  0.91083  0.71715  1.0000
  C   C216      1.0  0.19342  0.74444  0.42620  1.0000
  H   H376      1.0  0.17556  0.94954  0.95662  1.0000
  H   H377      1.0  0.24605  0.88786  0.36321  1.0000
  H   H378      1.0  0.24207  0.91267  0.46083  1.0000
  H   H379      1.0  0.22602  0.89982  0.54372  1.0000
  C   C217      1.0  0.24350  0.74867  0.32236  1.0000
  C   C218      1.0  0.20343  0.97314  0.92436  1.0000
  H   H380      1.0  0.19496  0.90512  0.52406  1.0000
  C   C219      1.0  0.15058  0.99679  0.73142  1.0000
  H   H381      1.0  0.04409  0.67039  0.21801  1.0000
  C   C220      1.0  0.23061  0.74952  0.37542  1.0000
  H   H382      1.0  0.01723  0.96760  0.68777  1.0000
  Fe  Fe32      1.0  0.00942  0.71383  0.42173  1.0000
  C   C221      1.0  0.23224  0.97257  0.78800  1.0000
  H   H383      1.0  0.24810  0.69308  0.35492  1.0000
  H   H384      1.0  0.25402  0.84641  0.07494  1.0000
  C   C222      1.0  0.02277  0.86799  0.96855  1.0000
  H   H385      1.0  0.25060  0.68698  0.68364  1.0000
  Fe  Fe33      1.0  0.12364  0.66862  0.02926  1.0000
  C   C223      1.0  0.23275  0.00164  0.88628  1.0000
  Fe  Fe34      1.0  0.48070  0.20789  0.86582  1.0000
  S   S67       1.0  0.48162  0.21685  0.95194  1.0000
  S   S68       1.0  0.45952  0.17498  0.83364  1.0000
  C   C224      1.0  0.50198  0.09842  0.95724  1.0000
  H   H386      1.0  0.26377  0.09488  0.12908  1.0000
  H   H387      1.0  0.27545  0.15357  0.18593  1.0000
  H   H388      1.0  0.36800  0.02587  0.43573  1.0000
  Fe  Fe35      1.0  0.48779  0.25661  0.92893  1.0000
  S   S69       1.0  0.47410  0.29443  0.95985  1.0000
  H   H389      1.0  0.46919  0.17453  0.48369  1.0000
  S   S70       1.0  0.48334  0.24803  0.84294  1.0000
  Fe  Fe36      1.0  0.44845  0.09038  0.46489  1.0000
  S   S71       1.0  0.45224  0.08672  0.55100  1.0000
  S   S72       1.0  0.48247  0.09603  0.41734  1.0000
  Fe  Fe37      1.0  0.39225  0.08692  0.46576  1.0000
  S   S73       1.0  0.39250  0.08407  0.55340  1.0000
  S   S74       1.0  0.35402  0.08454  0.42750  1.0000
  Fe  Fe38      1.0  0.42069  0.11394  0.55514  1.0000
  S   S75       1.0  0.42349  0.14987  0.60247  1.0000
  Fe  Fe39      1.0  0.42418  0.05730  0.54132  1.0000
  S   S76       1.0  0.42988  0.02122  0.58436  1.0000
  S   S77       1.0  0.41795  0.11912  0.46827  1.0000
  S   S78       1.0  0.42278  0.05872  0.45449  1.0000
  Fe  Fe40      1.0  0.27867  0.03499  0.17185  1.0000
  H   H390      1.0  0.34193  0.02531  0.62171  1.0000
  S   S79       1.0  0.31654  0.04161  0.20892  1.0000
  H   H391      1.0  0.50130  0.00666  0.57588  1.0000
  C   C225      1.0  0.27937  0.11489  0.06738  1.0000
  C   C226      1.0  0.31503  0.10532  0.15015  1.0000
  H   H392      1.0  0.49983  0.09767  0.64039  1.0000
  C   C227      1.0  0.48610  0.17279  0.56040  1.0000
  C   C228      1.0  0.34409  0.07231  0.36655  1.0000
  C   C229      1.0  0.36052  0.06319  0.32933  1.0000
  C   C230      1.0  0.35170  0.05364  0.28177  1.0000
  C   C231      1.0  0.32637  0.05286  0.27075  1.0000
  C   C232      1.0  0.30991  0.06173  0.30819  1.0000
  C   C233      1.0  0.31875  0.07147  0.35559  1.0000
  H   H393      1.0  0.38004  0.06366  0.33704  1.0000
  H   H394      1.0  0.36465  0.04694  0.25314  1.0000
  H   H395      1.0  0.29039  0.06125  0.30057  1.0000
  H   H396      1.0  0.30583  0.07843  0.38402  1.0000
  H   H397      1.0  0.37027  0.02915  0.52097  1.0000
  H   H398      1.0  0.49825  0.07284  0.51379  1.0000
  C   C234      1.0  0.32983  0.02141  0.46157  1.0000
  C   C235      1.0  0.33681  0.10867  0.18797  1.0000
  C   C236      1.0  0.49482  0.13284  0.60064  1.0000
  H   H399      1.0  0.44588  0.14827  0.00206  1.0000
  H   H400      1.0  0.30449  0.14802  0.21328  1.0000
  C   C237      1.0  0.46698  0.29968  0.11777  1.0000
  H   H401      1.0  0.47506  0.13344  0.61116  1.0000
  N   N16       1.0  0.29109  0.11770  0.16577  1.0000
  H   H402      1.0  0.48558  0.29904  0.75356  1.0000
  C   C238      1.0  0.47164  0.30574  0.02472  1.0000
  H   H403      1.0  0.29106  0.09859  0.05657  1.0000
  H   H404      1.0  0.46583  0.28718  0.15035  1.0000
  H   H405      1.0  0.28186  0.05132  0.56407  1.0000
  H   H406      1.0  0.28871  0.13213  0.05763  1.0000
  C   C239      1.0  0.47111  0.28994  0.06759  1.0000
  H   H407      1.0  0.48574  0.20631  0.63982  1.0000
  C   C240      1.0  0.46896  0.33146  0.03310  1.0000
  H   H408      1.0  0.47303  0.27013  0.06190  1.0000
  C   C241      1.0  0.45139  0.16817  0.76801  1.0000
  C   C242      1.0  0.44655  0.14353  0.75391  1.0000
  C   C243      1.0  0.43874  0.13745  0.70314  1.0000
  C   C244      1.0  0.43485  0.15609  0.66617  1.0000
  C   C245      1.0  0.43978  0.18071  0.68019  1.0000
  C   C246      1.0  0.44835  0.18670  0.73047  1.0000
  H   H409      1.0  0.44837  0.12907  0.78263  1.0000
  H   H410      1.0  0.43486  0.11847  0.69315  1.0000
  H   H411      1.0  0.43668  0.19532  0.65208  1.0000
  H   H412      1.0  0.45168  0.20576  0.74072  1.0000
  H   H413      1.0  0.47976  0.04127  0.44391  1.0000
  C   C247      1.0  0.27161  0.11359  0.12471  1.0000
  H   H414      1.0  0.31275  0.05957  0.57737  1.0000
  H   H415      1.0  0.45571  0.13671  0.91164  1.0000
  H   H416      1.0  0.46732  0.02438  0.49594  1.0000
  H   H417      1.0  0.34869  0.05308  0.52964  1.0000
  H   H418      1.0  0.48846  0.08341  0.95977  1.0000
  H   H419      1.0  0.49871  0.15945  0.48341  1.0000
  C   C248      1.0  0.30426  0.16097  0.13377  1.0000
  H   H420      1.0  0.31365  0.01172  0.44552  1.0000
  C   C249      1.0  0.48158  0.16173  0.50592  1.0000
  H   H421      1.0  0.47338  0.07356  0.88231  1.0000
  C   C250      1.0  0.30089  0.04976  0.54921  1.0000
  H   H422      1.0  0.34151  0.12841  0.19257  1.0000
  C   C251      1.0  0.29366  0.14490  0.17706  1.0000
  C   C252      1.0  0.30848  0.02212  0.54444  1.0000
  H   H423      1.0  0.49360  0.10199  0.04026  1.0000
  H   H424      1.0  0.46799  0.17429  0.57982  1.0000
  C   C253      1.0  0.46379  0.32533  0.12599  1.0000
  H   H425      1.0  0.35321  0.09881  0.17203  1.0000
  H   H426      1.0  0.33363  0.10036  0.22645  1.0000
  C   C254      1.0  0.50428  0.19899  0.65082  1.0000
  H   H427      1.0  0.49584  0.12252  0.56336  1.0000
  H   H428      1.0  0.37336  0.01804  0.60640  1.0000
  H   H429      1.0  0.50034  0.15612  0.89870  1.0000
  H   H430      1.0  0.36260  0.04967  0.61464  1.0000
  H   H431      1.0  0.38539  0.31598  0.16669  1.0000
  C   C255      1.0  0.35777  0.03126  0.59889  1.0000
  H   H432      1.0  0.31877  0.15150  0.11100  1.0000
  C   C256      1.0  0.35244  0.03331  0.53996  1.0000
  N   N17       1.0  0.49165  0.11958  0.92506  1.0000
  H   H433      1.0  0.49007  0.16429  0.67215  1.0000
  S   S80       1.0  0.27215  0.04415  0.08700  1.0000
  H   H434      1.0  0.50302  0.31874  0.71114  1.0000
  H   H435      1.0  0.28329  0.08482  0.21011  1.0000
  H   H436      1.0  0.47043  0.01063  0.43143  1.0000
  H   H437      1.0  0.26267  0.11415  0.04238  1.0000
  H   H438      1.0  0.45571  0.11131  0.95521  1.0000
  C   C257      1.0  0.46955  0.09074  0.85994  1.0000
  C   C258      1.0  0.28298  0.10532  0.21503  1.0000
  H   H439      1.0  0.47638  0.14052  0.02306  1.0000
  C   C259      1.0  0.50539  0.01355  0.47423  1.0000
  C   C260      1.0  0.47904  0.02249  0.46125  1.0000
  H   H440      1.0  0.28947  0.16794  0.10724  1.0000
  H   H441      1.0  0.49137  0.19222  0.55445  1.0000
  H   H442      1.0  0.32582  0.04136  0.45410  1.0000
  H   H443      1.0  0.48444  0.12632  0.84325  1.0000
  H   H444      1.0  0.47067  0.16491  0.97629  1.0000
  H   H445      1.0  0.30110  0.05946  0.51136  1.0000
  H   H446      1.0  0.46982  0.08551  0.81821  1.0000
  C   C261      1.0  0.48637  0.33232  0.83841  1.0000
  H   H447      1.0  0.32139  0.11177  0.11197  1.0000
  H   H448      1.0  0.31337  0.17712  0.15162  1.0000
  H   H449      1.0  0.34687  0.01756  0.38616  1.0000
  H   H450      1.0  0.47205  0.14384  0.50774  1.0000
  H   H451      1.0  0.31252  0.08506  0.14460  1.0000
  H   H452      1.0  0.40781  0.01038  0.48350  1.0000
  C   C262      1.0  0.46519  0.14627  0.98907  1.0000
  H   H453      1.0  0.45070  0.09785  0.86793  1.0000
  C   C263      1.0  0.46646  0.12763  0.94368  1.0000
  C   C264      1.0  0.48903  0.11055  0.86976  1.0000
  N   N18       1.0  0.33286  0.01675  0.51899  1.0000
  C   C265      1.0  0.50419  0.30455  0.74206  1.0000
  H   H454      1.0  0.30777  0.01395  0.58395  1.0000
  H   H455      1.0  0.29576  0.10906  0.24785  1.0000
  H   H456      1.0  0.50663  0.10237  0.85541  1.0000
  H   H457      1.0  0.48605  0.31516  0.86219  1.0000
  N   N19       1.0  0.50424  0.15873  0.59454  1.0000
  H   H458      1.0  0.47277  0.32871  0.80704  1.0000
  H   H459      1.0  0.50588  0.12348  0.68132  1.0000
  C   C266      1.0  0.50555  0.17044  0.64781  1.0000
  C   C267      1.0  0.35198  0.01422  0.42742  1.0000
  H   H460      1.0  0.29341  0.01304  0.52268  1.0000
  H   H461      1.0  0.38013  0.32272  0.09960  1.0000
  H   H462      1.0  0.40983  0.32759  0.12987  1.0000
  C   C268      1.0  0.38969  0.32911  0.13513  1.0000
  H   H463      1.0  0.50751  0.20479  0.69169  1.0000
  H   H464      1.0  0.35878  0.60614  0.95194  1.0000
  H   H465      1.0  0.37497  0.35448  0.04064  1.0000
  H   H466      1.0  0.27834  0.65116  0.15421  1.0000
  S   S81       1.0  0.36367  0.63733  0.68210  1.0000
  H   H467      1.0  0.38915  0.40426  0.16689  1.0000
  H   H468      1.0  0.41477  0.35829  0.07460  1.0000
  H   H469      1.0  0.50690  0.34341  0.24903  1.0000
  S   S82       1.0  0.38803  0.65762  0.82282  1.0000
  Fe  Fe41      1.0  0.33818  0.62423  0.24546  1.0000
  S   S83       1.0  0.34227  0.58840  0.20196  1.0000
  C   C269      1.0  0.38385  0.58935  0.54850  1.0000
  Fe  Fe42      1.0  0.39280  0.63430  0.23728  1.0000
  S   S84       1.0  0.40080  0.59912  0.19363  1.0000
  H   H470      1.0  0.46347  0.34677  0.90091  1.0000
  Fe  Fe43      1.0  0.36649  0.60926  0.14875  1.0000
  C   C270      1.0  0.29748  0.56748  0.10610  1.0000
  Fe  Fe44      1.0  0.37571  0.58202  0.25100  1.0000
  S   S85       1.0  0.38313  0.54656  0.29430  1.0000
  C   C271      1.0  0.36601  0.36879  0.06583  1.0000
  S   S86       1.0  0.37022  0.61644  0.29875  1.0000
  Fe  Fe45      1.0  0.30907  0.51735  0.58296  1.0000
  S   S87       1.0  0.30208  0.52046  0.66804  1.0000
  Fe  Fe46      1.0  0.33186  0.46554  0.58933  1.0000
  S   S88       1.0  0.32709  0.46388  0.67677  1.0000
  S   S89       1.0  0.34276  0.43518  0.53109  1.0000
  Fe  Fe47      1.0  0.28940  0.48130  0.66403  1.0000
  H   H471      1.0  0.30733  0.63495  0.14603  1.0000
  Fe  Fe48      1.0  0.33984  0.50343  0.67570  1.0000
  S   S90       1.0  0.36528  0.52219  0.73190  1.0000
  S   S91       1.0  0.29308  0.47970  0.57688  1.0000
  S   S92       1.0  0.34782  0.50333  0.59048  1.0000
  Fe  Fe49      1.0  0.45584  0.37650  0.21884  1.0000
  Fe  Fe50      1.0  0.43564  0.42877  0.20206  1.0000
  S   S93       1.0  0.46014  0.44507  0.26233  1.0000
  S   S94       1.0  0.41021  0.45354  0.15534  1.0000
  Fe  Fe51      1.0  0.48950  0.41999  0.23027  1.0000
  H   H472      1.0  0.49845  0.53916  0.27410  1.0000
  Fe  Fe52      1.0  0.44879  0.41292  0.31124  1.0000
  S   S95       1.0  0.44028  0.42473  0.39481  1.0000
  S   S96       1.0  0.46590  0.40669  0.16472  1.0000
  S   S97       1.0  0.42291  0.39753  0.25146  1.0000
  C   C272      1.0  0.36938  0.43388  0.49122  1.0000
  C   C273      1.0  0.37031  0.41723  0.44908  1.0000
  C   C274      1.0  0.39137  0.41500  0.41761  1.0000
  C   C275      1.0  0.41205  0.42903  0.42865  1.0000
  C   C276      1.0  0.41097  0.44585  0.47049  1.0000
  C   C277      1.0  0.38972  0.44851  0.50115  1.0000
  H   H473      1.0  0.35477  0.40573  0.44104  1.0000
  H   H474      1.0  0.39196  0.40176  0.38608  1.0000
  H   H475      1.0  0.42687  0.45666  0.47977  1.0000
  H   H476      1.0  0.38943  0.46129  0.53352  1.0000
  C   C278      1.0  0.38929  0.52065  0.25489  1.0000
  C   C279      1.0  0.38510  0.52137  0.20126  1.0000
  C   C280      1.0  0.39095  0.50050  0.17059  1.0000
  C   C281      1.0  0.40094  0.47899  0.19361  1.0000
  C   C282      1.0  0.40447  0.47819  0.24733  1.0000
  C   C283      1.0  0.39913  0.49908  0.27771  1.0000
  H   H477      1.0  0.37759  0.53804  0.18336  1.0000
  H   H478      1.0  0.38812  0.50120  0.12900  1.0000
  H   H479      1.0  0.41130  0.46143  0.26574  1.0000
  H   H480      1.0  0.40282  0.49849  0.31902  1.0000
  C   C284      1.0  0.45203  0.64408  0.26229  1.0000
  C   C285      1.0  0.45201  0.62092  0.28639  1.0000
  C   C286      1.0  0.34952  0.64426  0.93417  1.0000
  H   H481      1.0  0.25994  0.52322  0.56435  1.0000
  C   C287      1.0  0.32557  0.59907  0.42408  1.0000
  H   H482      1.0  0.37632  0.66407  0.45133  1.0000
  C   C288      1.0  0.47445  0.65438  0.24869  1.0000
  H   H483      1.0  0.27140  0.60773  0.16293  1.0000
  C   C289      1.0  0.37285  0.62369  0.45643  1.0000
  H   H484      1.0  0.42628  0.64276  0.13876  1.0000
  H   H485      1.0  0.50479  0.35876  0.16075  1.0000
  C   C290      1.0  0.36441  0.60554  0.69828  1.0000
  C   C291      1.0  0.35234  0.58902  0.66544  1.0000
  C   C292      1.0  0.35279  0.56362  0.67573  1.0000
  C   C293      1.0  0.36513  0.55429  0.71946  1.0000
  C   C294      1.0  0.37714  0.57071  0.75289  1.0000
  C   C295      1.0  0.37676  0.59634  0.74235  1.0000
  H   H486      1.0  0.34252  0.59566  0.63174  1.0000
  H   H487      1.0  0.34370  0.55124  0.64935  1.0000
  H   H488      1.0  0.38675  0.56359  0.78681  1.0000
  H   H489      1.0  0.38627  0.60882  0.76792  1.0000
  H   H490      1.0  0.41606  0.62294  0.90998  1.0000
  C   C296      1.0  0.30971  0.64104  0.76665  1.0000
  H   H491      1.0  0.43610  0.54802  0.32757  1.0000
  C   C297      1.0  0.34976  0.65159  0.04172  1.0000
  C   C298      1.0  0.26040  0.61271  0.73280  1.0000
  H   H492      1.0  0.31583  0.53903  0.41858  1.0000
  H   H493      1.0  0.46396  0.36663  0.84450  1.0000
  H   H494      1.0  0.31415  0.60218  0.09807  1.0000
  H   H495      1.0  0.32152  0.63468  0.45821  1.0000
  S   S98       1.0  0.48094  0.38881  0.28390  1.0000
  H   H496      1.0  0.46860  0.54657  0.32737  1.0000
  H   H497      1.0  0.28228  0.55601  0.09201  1.0000
  N   N20       1.0  0.33040  0.50297  0.39582  1.0000
  C   C299      1.0  0.32571  0.53015  0.38562  1.0000
  C   C300      1.0  0.34591  0.49242  0.35271  1.0000
  C   C301      1.0  0.31149  0.53652  0.33516  1.0000
  C   C302      1.0  0.36903  0.51133  0.45174  1.0000
  N   N21       1.0  0.27546  0.60908  0.07901  1.0000
  H   H498      1.0  0.34331  0.54003  0.38281  1.0000
  H   H499      1.0  0.33544  0.49219  0.31547  1.0000
  H   H500      1.0  0.36161  0.50450  0.34537  1.0000
  H   H501      1.0  0.29348  0.52757  0.33281  1.0000
  H   H502      1.0  0.30790  0.55687  0.33386  1.0000
  H   H503      1.0  0.32249  0.53176  0.30035  1.0000
  H   H504      1.0  0.36817  0.53183  0.44979  1.0000
  N   N22       1.0  0.42785  0.66497  0.01084  1.0000
  C   C303      1.0  0.26944  0.63243  0.35137  1.0000
  H   H505      1.0  0.46312  0.36095  0.08900  1.0000
  C   C304      1.0  0.35620  0.46584  0.36097  1.0000
  H   H506      1.0  0.43485  0.61298  0.29764  1.0000
  H   H507      1.0  0.37569  0.60866  0.42727  1.0000
  C   C305      1.0  0.35976  0.59191  0.51662  1.0000
  H   H508      1.0  0.31509  0.63121  0.63897  1.0000
  S   S99       1.0  0.36417  0.60313  0.06222  1.0000
  H   H509      1.0  0.38512  0.57043  0.56538  1.0000
  C   C306      1.0  0.49666  0.61825  0.28290  1.0000
  H   H510      1.0  0.26579  0.65786  0.61016  1.0000
  H   H511      1.0  0.26306  0.43375  0.61973  1.0000
  H   H512      1.0  0.42493  0.55019  0.15321  1.0000
  H   H513      1.0  0.28267  0.62357  0.57519  1.0000
  S   S100      1.0  0.29853  0.63148  0.26584  1.0000
  H   H514      1.0  0.30214  0.66484  0.11773  1.0000
  H   H515      1.0  0.34939  0.64126  0.89270  1.0000
  H   H516      1.0  0.31025  0.46981  0.41148  1.0000
  N   N23       1.0  0.28409  0.64582  0.68137  1.0000
  S   S101      1.0  0.30227  0.54890  0.52763  1.0000
  C   C307      1.0  0.30432  0.65917  0.35512  1.0000
  H   H517      1.0  0.36865  0.40656  0.02910  1.0000
  H   H518      1.0  0.37719  0.50642  0.49012  1.0000
  H   H519      1.0  0.50477  0.37513  0.79954  1.0000
  C   C308      1.0  0.40912  0.37602  0.09354  1.0000
  H   H520      1.0  0.34998  0.65464  0.08302  1.0000
  H   H521      1.0  0.37646  0.41549  0.10881  1.0000
  H   H522      1.0  0.34162  0.45243  0.36839  1.0000
  H   H523      1.0  0.33790  0.39632  0.04080  1.0000
  C   C309      1.0  0.47525  0.35417  0.86992  1.0000
  C   C310      1.0  0.28379  0.61181  0.61043  1.0000
  C   C311      1.0  0.35685  0.39027  0.03033  1.0000
  H   H524      1.0  0.44321  0.62419  0.94932  1.0000
  H   H525      1.0  0.43224  0.54246  0.23595  1.0000
  H   H526      1.0  0.31948  0.62387  0.75403  1.0000
  H   H527      1.0  0.30634  0.41949  0.62011  1.0000
  H   H528      1.0  0.31490  0.55695  0.09890  1.0000
  H   H529      1.0  0.28478  0.43141  0.69961  1.0000
  H   H530      1.0  0.31772  0.65531  0.53614  1.0000
  H   H531      1.0  0.38190  0.50395  0.42219  1.0000
  C   C312      1.0  0.33755  0.65946  0.53468  1.0000
  H   H532      1.0  0.46936  0.34390  0.00037  1.0000
  C   C313      1.0  0.41577  0.39626  0.05458  1.0000
  H   H533      1.0  0.47419  0.59083  0.31766  1.0000
  C   C314      1.0  0.26904  0.37254  0.65858  1.0000
  H   H534      1.0  0.27059  0.48782  0.43203  1.0000
  H   H535      1.0  0.28101  0.45553  0.78855  1.0000
  C   C315      1.0  0.28339  0.63566  0.07572  1.0000
  H   H536      1.0  0.43787  0.52011  0.13609  1.0000
  C   C316      1.0  0.49464  0.54582  0.23403  1.0000
  H   H537      1.0  0.26796  0.56517  0.01224  1.0000
  C   C317      1.0  0.47427  0.60831  0.29747  1.0000
  C   C318      1.0  0.29857  0.59286  0.07887  1.0000
  H   H538      1.0  0.40023  0.59141  0.52389  1.0000
  C   C319      1.0  0.30078  0.65745  0.72106  1.0000
  C   C320      1.0  0.26059  0.60448  0.03042  1.0000
  H   H539      1.0  0.40301  0.64519  0.05991  1.0000
  H   H540      1.0  0.34468  0.58536  0.54167  1.0000
  S   S102      1.0  0.42412  0.66025  0.24949  1.0000
  H   H541      1.0  0.30263  0.40678  0.77665  1.0000
  H   H542      1.0  0.29409  0.59461  0.59934  1.0000
  H   H543      1.0  0.37261  0.64138  0.54962  1.0000
  C   C321      1.0  0.45073  0.54768  0.24951  1.0000
  C   C322      1.0  0.29072  0.64139  0.32877  1.0000
  H   H544      1.0  0.27965  0.51861  0.41867  1.0000
  H   H545      1.0  0.39543  0.65499  0.96751  1.0000
  N   N24       1.0  0.38275  0.37536  0.11055  1.0000
  C   C323      1.0  0.28651  0.50025  0.43238  1.0000
  H   H546      1.0  0.48913  0.36536  0.89009  1.0000
  H   H547      1.0  0.39110  0.62478  0.47580  1.0000
  C   C324      1.0  0.27079  0.55579  0.52316  1.0000
  H   H548      1.0  0.32054  0.66644  0.33747  1.0000
  N   N25       1.0  0.35356  0.61739  0.49537  1.0000
  H   H549      1.0  0.31466  0.38898  0.64036  1.0000
  H   H550      1.0  0.36994  0.46498  0.39287  1.0000
  C   C325      1.0  0.45213  0.53970  0.30703  1.0000
  C   C326      1.0  0.27487  0.65941  0.42580  1.0000
  H   H551      1.0  0.46552  0.56818  0.16242  1.0000
  H   H552      1.0  0.30493  0.38020  0.73471  1.0000
  H   H553      1.0  0.42147  0.37804  0.12796  1.0000
  C   C327      1.0  0.35532  0.62804  0.02162  1.0000
  C   C328      1.0  0.46915  0.50903  0.21604  1.0000
  H   H554      1.0  0.28548  0.35986  0.65900  1.0000
  C   C329      1.0  0.36938  0.64850  0.42763  1.0000
  H   H555      1.0  0.46469  0.64883  0.01049  1.0000
  H   H556      1.0  0.43591  0.39539  0.04856  1.0000
  H   H557      1.0  0.40724  0.39301  0.01606  1.0000
  C   C330      1.0  0.44078  0.54032  0.13523  1.0000
  H   H558      1.0  0.41442  0.61389  0.97614  1.0000
  H   H559      1.0  0.36220  0.35371  0.16541  1.0000
  C   C331      1.0  0.29776  0.39066  0.56545  1.0000
  N   N26       1.0  0.47026  0.53692  0.21424  1.0000
  H   H560      1.0  0.35544  0.38332  0.98981  1.0000
  H   H561      1.0  0.26515  0.60632  0.62148  1.0000
  C   C332      1.0  0.46534  0.34121  0.08341  1.0000
  C   C333      1.0  0.35468  0.62434  0.96780  1.0000
  C   C334      1.0  0.34326  0.50019  0.44761  1.0000
  H   H562      1.0  0.28857  0.40464  0.53987  1.0000
  H   H563      1.0  0.43130  0.62915  0.04893  1.0000
  H   H564      1.0  0.29875  0.48699  0.35780  1.0000
  H   H565      1.0  0.31477  0.61056  0.50096  1.0000
  H   H566      1.0  0.34914  0.36017  0.08085  1.0000
  C   C335      1.0  0.28151  0.41134  0.70499  1.0000
  H   H567      1.0  0.46651  0.48478  0.14775  1.0000
  H   H568      1.0  0.27565  0.58975  0.48122  1.0000
  C   C336      1.0  0.46529  0.54753  0.16094  1.0000
  H   H569      1.0  0.32119  0.40803  0.72009  1.0000
  H   H570      1.0  0.38464  0.60247  0.58159  1.0000
  C   C337      1.0  0.26177  0.45463  0.79791  1.0000
  C   C338      1.0  0.38133  0.35550  0.15160  1.0000
  H   H571      1.0  0.30635  0.60050  0.40947  1.0000
  H   H572      1.0  0.33745  0.60448  0.39161  1.0000
  C   C339      1.0  0.35004  0.40103  0.16063  1.0000
  H   H573      1.0  0.41145  0.41524  0.06876  1.0000
  H   H574      1.0  0.36148  0.57801  0.48490  1.0000
  H   H575      1.0  0.25880  0.61873  0.33109  1.0000
  H   H576      1.0  0.47984  0.54245  0.13309  1.0000
  H   H577      1.0  0.47775  0.50192  0.25264  1.0000
  C   C340      1.0  0.26037  0.60505  0.12682  1.0000
  H   H578      1.0  0.29597  0.56981  0.14876  1.0000
  H   H579      1.0  0.44077  0.54601  0.09384  1.0000
  C   C341      1.0  0.49674  0.64134  0.25836  1.0000
  H   H580      1.0  0.32318  0.65143  0.79022  1.0000
  H   H581      1.0  0.49419  0.35522  0.75036  1.0000
  H   H582      1.0  0.27840  0.60562  0.74691  1.0000
  C   C342      1.0  0.35361  0.63561  0.54009  1.0000
  H   H583      1.0  0.26548  0.41076  0.73106  1.0000
  H   H584      1.0  0.33225  0.50919  0.47869  1.0000
  H   H585      1.0  0.29449  0.63684  0.79314  1.0000
  H   H586      1.0  0.45101  0.51935  0.31160  1.0000
  H   H587      1.0  0.28841  0.37274  0.56238  1.0000
  H   H588      1.0  0.30330  0.60986  0.68278  1.0000
  H   H589      1.0  0.34694  0.62675  0.57583  1.0000
  C   C343      1.0  0.37568  0.39969  0.13591  1.0000
  C   C344      1.0  0.32826  0.61632  0.47137  1.0000
  H   H590      1.0  0.34993  0.39092  0.19807  1.0000
  C   C345      1.0  0.29959  0.40019  0.62186  1.0000
  C   C346      1.0  0.29762  0.62462  0.65519  1.0000
  C   C347      1.0  0.30678  0.48907  0.39739  1.0000
  H   H591      1.0  0.34492  0.48037  0.45914  1.0000
  N   N27       1.0  0.27639  0.39922  0.65337  1.0000
  H   H592      1.0  0.44969  0.50327  0.21771  1.0000
  H   H593      1.0  0.36589  0.45962  0.32535  1.0000
  H   H594      1.0  0.26826  0.64824  0.06173  1.0000
  S   S103      1.0  0.36005  0.64574  0.18833  1.0000
  H   H595      1.0  0.31738  0.66452  0.70169  1.0000
  H   H596      1.0  0.26847  0.43838  0.87342  1.0000
  C   C348      1.0  0.42309  0.64791  0.05576  1.0000
  H   H597      1.0  0.45056  0.56830  0.24844  1.0000
  C   C349      1.0  0.29337  0.64702  0.12651  1.0000
  H   H598      1.0  0.29267  0.50180  0.47319  1.0000
  H   H599      1.0  0.32900  0.57947  0.43449  1.0000
  H   H600      1.0  0.37983  0.64767  0.39088  1.0000
  C   C350      1.0  0.42304  0.62721  0.94958  1.0000
  C   C351      1.0  0.27855  0.66508  0.64010  1.0000
  H   H601      1.0  0.30516  0.58968  0.03852  1.0000
  H   H602      1.0  0.35020  0.65242  0.41552  1.0000
  C   C352      1.0  0.30386  0.40070  0.73550  1.0000
  H   H603      1.0  0.49309  0.47929  0.18656  1.0000
  H   H604      1.0  0.49433  0.56644  0.23620  1.0000
  H   H605      1.0  0.27118  0.60967  0.99541  1.0000
  H   H606      1.0  0.31657  0.38775  0.54999  1.0000
  C   C353      1.0  0.26036  0.63824  0.70558  1.0000
  H   H607      1.0  0.50253  0.38473  0.09516  1.0000
  H   H608      1.0  0.29787  0.63743  0.04570  1.0000
  H   H609      1.0  0.39246  0.36047  0.18650  1.0000
  C   C354      1.0  0.26180  0.64107  0.40013  1.0000
  H   H610      1.0  0.34523  0.42069  0.16958  1.0000
  C   C355      1.0  0.48091  0.49427  0.17062  1.0000
  H   H611      1.0  0.33559  0.39390  0.13451  1.0000
  C   C356      1.0  0.26266  0.57755  0.49852  1.0000
  Fe  Fe53      1.0  0.37726  0.66548  0.74010  1.0000
  C   C357      1.0  0.41565  0.65417  0.96337  1.0000
  H   H612      1.0  0.41948  0.66528  0.92822  1.0000
  H   H613      1.0  0.49214  0.50501  0.14389  1.0000
  H   H614      1.0  0.45331  0.65421  0.11113  1.0000
  S   S104      1.0  0.45672  0.33645  0.18946  1.0000
  H   H615      1.0  0.26554  0.36627  0.74301  1.0000
  C   C358      1.0  0.43302  0.65581  0.10921  1.0000
  H   H616      1.0  0.25812  0.36678  0.62406  1.0000
  C   C359      1.0  0.45504  0.66667  0.00083  1.0000
  C   C360      1.0  0.34484  0.66797  0.95426  1.0000
  C   C361      1.0  0.29619  0.66844  0.40324  1.0000
  Fe  Fe54      1.0  0.37964  0.83830  0.98857  1.0000
  S   S105      1.0  0.34971  0.82035  0.03307  1.0000
  S   S106      1.0  0.40652  0.81266  0.94780  1.0000
  Fe  Fe55      1.0  0.36214  0.88972  0.01786  1.0000
  S   S107      1.0  0.33099  0.87605  0.06458  1.0000
  S   S108      1.0  0.36767  0.93060  0.02217  1.0000
  Fe  Fe56      1.0  0.35837  0.84803  0.09498  1.0000
  S   S109      1.0  0.35820  0.83995  0.18056  1.0000
  Fe  Fe57      1.0  0.32498  0.84999  0.99851  1.0000
  S   S110      1.0  0.28628  0.84042  0.97492  1.0000
  S   S111      1.0  0.39017  0.86376  0.05354  1.0000
  S   S112      1.0  0.35420  0.86579  0.94837  1.0000
  Fe  Fe58      1.0  0.45109  0.86178  0.39813  1.0000
  S   S113      1.0  0.41672  0.85321  0.44087  1.0000
  S   S114      1.0  0.45542  0.85600  0.31142  1.0000
  Fe  Fe59      1.0  0.47674  0.87945  0.49743  1.0000
  S   S115      1.0  0.44414  0.87236  0.54703  1.0000
  H   H617      1.0  0.34800  0.97504  0.06864  1.0000
  Fe  Fe60      1.0  0.44177  0.83679  0.50208  1.0000
  S   S116      1.0  0.44157  0.79724  0.53077  1.0000
  Fe  Fe61      1.0  0.42287  0.88972  0.48082  1.0000
  S   S117      1.0  0.39487  0.92104  0.48305  1.0000
  S   S118      1.0  0.47599  0.84290  0.45651  1.0000
  S   S119      1.0  0.45574  0.89918  0.43438  1.0000
  S   S120      1.0  0.39436  0.71801  0.83413  1.0000
  C   C362      1.0  0.28122  0.91840  0.10267  1.0000
  Fe  Fe62      1.0  0.38342  0.72120  0.75035  1.0000
  S   S121      1.0  0.37735  0.75971  0.71719  1.0000
  H   H618      1.0  0.29938  0.92292  0.08663  1.0000
  C   C363      1.0  0.42125  0.74769  0.34911  1.0000
  S   S122      1.0  0.35105  0.69687  0.76016  1.0000
  C   C364      1.0  0.44226  0.72985  0.33229  1.0000
  H   H619      1.0  0.47441  0.79206  0.63246  1.0000
  C   C365      1.0  0.29770  0.94742  0.98020  1.0000
  C   C366      1.0  0.47241  0.70519  0.82756  1.0000
  H   H620      1.0  0.46008  0.97798  0.47799  1.0000
  H   H621      1.0  0.50712  0.75169  0.87386  1.0000
  C   C367      1.0  0.42305  0.78714  0.58177  1.0000
  C   C368      1.0  0.40568  0.80287  0.60525  1.0000
  C   C369      1.0  0.39146  0.79408  0.64620  1.0000
  C   C370      1.0  0.39477  0.76969  0.66430  1.0000
  C   C371      1.0  0.41218  0.75403  0.64085  1.0000
  C   C372      1.0  0.42620  0.76272  0.59958  1.0000
  H   H622      1.0  0.40315  0.82172  0.59174  1.0000
  H   H623      1.0  0.37796  0.80627  0.66418  1.0000
  H   H624      1.0  0.41492  0.73526  0.65454  1.0000
  H   H625      1.0  0.43970  0.75051  0.58168  1.0000
  C   C373      1.0  0.41901  0.94842  0.55676  1.0000
  C   C374      1.0  0.40709  0.94844  0.50848  1.0000
  C   C375      1.0  0.40352  0.97082  0.48178  1.0000
  H   H626      1.0  0.32409  0.83240  0.84299  1.0000
  H   H627      1.0  0.42191  0.93119  0.57754  1.0000
  H   H628      1.0  0.39480  0.97079  0.44395  1.0000
  C   C376      1.0  0.33908  0.94578  0.01550  1.0000
  C   C377      1.0  0.32099  0.93592  0.98326  1.0000
  H   H629      1.0  0.32503  0.91952  0.96040  1.0000
  C   C378      1.0  0.27118  0.85833  0.92664  1.0000
  H   H630      1.0  0.43434  0.71363  0.31206  1.0000
  H   H631      1.0  0.39974  0.95441  0.18651  1.0000
  H   H632      1.0  0.45918  0.78157  0.06692  1.0000
  C   C379      1.0  0.28231  0.87874  0.90459  1.0000
  C   C380      1.0  0.46421  0.79800  0.09037  1.0000
  H   H633      1.0  0.49303  0.88175  0.13562  1.0000
  H   H634      1.0  0.30037  0.88398  0.91753  1.0000
  C   C381      1.0  0.38538  0.84498  0.21566  1.0000
  C   C382      1.0  0.40807  0.84646  0.19113  1.0000
  C   C383      1.0  0.42943  0.85041  0.22066  1.0000
  C   C384      1.0  0.42819  0.85305  0.27469  1.0000
  C   C385      1.0  0.40539  0.85216  0.29876  1.0000
  C   C386      1.0  0.38414  0.84774  0.26954  1.0000
  H   H635      1.0  0.40926  0.84407  0.14964  1.0000
  H   H636      1.0  0.44691  0.85143  0.20165  1.0000
  H   H637      1.0  0.40399  0.85481  0.33987  1.0000
  H   H638      1.0  0.36661  0.84682  0.28869  1.0000
  C   C387      1.0  0.43757  0.81979  0.95632  1.0000
  C   C388      1.0  0.44442  0.84319  0.97367  1.0000
  C   C389      1.0  0.46933  0.84855  0.97992  1.0000
  H   H639      1.0  0.43169  0.70776  0.95267  1.0000
  C   C390      1.0  0.45575  0.80181  0.94508  1.0000
  H   H640      1.0  0.43057  0.85730  0.98156  1.0000
  H   H641      1.0  0.47452  0.86670  0.99336  1.0000
  H   H642      1.0  0.45054  0.78359  0.93207  1.0000
  H   H643      1.0  0.27900  0.90790  0.84780  1.0000
  H   H644      1.0  0.41050  0.72696  0.98886  1.0000
  H   H645      1.0  0.29329  0.82542  0.85591  1.0000
  C   C391      1.0  0.47559  0.82606  0.76823  1.0000
  H   H646      1.0  0.41767  0.76353  0.24739  1.0000
  C   C392      1.0  0.47852  0.83649  0.82372  1.0000
  C   C393      1.0  0.33976  0.96563  0.18693  1.0000
  H   H647      1.0  0.49158  0.86366  0.19281  1.0000
  C   C394      1.0  0.41436  0.70780  0.97485  1.0000
  H   H648      1.0  0.42538  0.92908  0.13753  1.0000
  C   C395      1.0  0.44407  0.77891  0.40040  1.0000
  H   H649      1.0  0.36880  0.91101  0.27871  1.0000
  H   H650      1.0  0.43225  0.79035  0.22313  1.0000
  H   H651      1.0  0.47991  0.71902  0.90433  1.0000
  H   H652      1.0  0.44912  0.80030  0.84091  1.0000
  H   H653      1.0  0.45655  0.81435  0.06921  1.0000
  H   H654      1.0  0.41482  0.74021  0.38663  1.0000
  C   C396      1.0  0.39087  0.78350  0.41759  1.0000
  H   H655      1.0  0.45483  0.73773  0.30378  1.0000
  H   H656      1.0  0.34141  0.67182  0.56817  1.0000
  C   C397      1.0  0.46888  0.68744  0.02913  1.0000
  H   H657      1.0  0.45527  0.79648  0.12861  1.0000
  C   C398      1.0  0.48750  0.83072  0.96790  1.0000
  H   H658      1.0  0.35726  0.99437  0.43056  1.0000
  C   C399      1.0  0.47032  0.80575  0.66366  1.0000
  H   H659      1.0  0.45585  0.77705  0.29695  1.0000
  H   H660      1.0  0.42803  0.85495  0.78991  1.0000
  H   H661      1.0  0.35146  0.97640  0.16082  1.0000
  H   H662      1.0  0.40248  0.78861  0.45132  1.0000
  H   H663      1.0  0.26322  0.92220  0.02931  1.0000
  H   H664      1.0  0.36597  0.89530  0.15941  1.0000
  H   H665      1.0  0.41133  0.90387  0.16791  1.0000
  C   C400      1.0  0.31020  0.97791  0.04358  1.0000
  H   H666      1.0  0.45533  0.81806  0.64877  1.0000
  H   H667      1.0  0.34133  0.98672  0.57240  1.0000
  C   C401      1.0  0.41554  0.68980  0.02134  1.0000
  H   H668      1.0  0.48707  0.82231  0.84965  1.0000
  H   H669      1.0  0.46680  0.95598  0.42875  1.0000
  C   C402      1.0  0.40394  0.92774  0.27561  1.0000
  H   H670      1.0  0.48717  0.81649  0.66958  1.0000
  C   C403      1.0  0.43148  0.81966  0.74746  1.0000
  C   C404      1.0  0.40326  0.78884  0.36524  1.0000
  H   H671      1.0  0.43290  0.83190  0.71309  1.0000
  H   H672      1.0  0.28026  0.70140  0.67922  1.0000
  C   C405      1.0  0.45465  0.79018  0.80547  1.0000
  H   H673      1.0  0.47881  0.79091  0.36705  1.0000
  H   H674      1.0  0.34055  0.68975  0.02387  1.0000
  C   C406      1.0  0.25987  0.85776  0.10850  1.0000
  C   C407      1.0  0.32406  0.97038  0.50607  1.0000
  S   S123      1.0  0.34079  0.69358  0.91277  1.0000
  H   H675      1.0  0.46605  0.68763  0.07151  1.0000
  H   H676      1.0  0.44342  0.75471  0.77048  1.0000
  C   C408      1.0  0.46307  0.79157  0.71297  1.0000
  H   H677      1.0  0.46883  0.94649  0.49426  1.0000
  N   N28       1.0  0.37046  0.92903  0.20363  1.0000
  C   C409      1.0  0.47185  0.77561  0.39110  1.0000
  Fe  Fe63      1.0  0.36439  0.69082  0.84166  1.0000
  H   H678      1.0  0.46780  0.69609  0.74671  1.0000
  H   H679      1.0  0.38924  0.78506  0.33478  1.0000
  C   C410      1.0  0.38922  0.93938  0.16769  1.0000
  H   H680      1.0  0.47461  0.67231  0.23015  1.0000
  C   C411      1.0  0.42175  0.99337  0.55356  1.0000
  H   H681      1.0  0.33864  0.89078  0.23742  1.0000
  H   H682      1.0  0.48888  0.68463  0.02278  1.0000
  H   H683      1.0  0.49455  0.79334  0.94173  1.0000
  H   H684      1.0  0.41809  0.77457  0.79152  1.0000
  H   H685      1.0  0.47694  0.75757  0.37350  1.0000
  C   C412      1.0  0.43764  0.78538  0.30611  1.0000
  H   H686      1.0  0.44787  0.77936  0.70109  1.0000
  C   C413      1.0  0.26674  0.68975  0.65877  1.0000
  C   C414      1.0  0.47243  0.96227  0.46805  1.0000
  H   H687      1.0  0.47285  0.84211  0.74154  1.0000
  H   H688      1.0  0.40468  0.79442  0.25841  1.0000
  C   C415      1.0  0.35478  0.91158  0.17293  1.0000
  H   H689      1.0  0.32835  0.97945  0.20857  1.0000
  H   H690      1.0  0.37378  0.79505  0.42033  1.0000
  H   H691      1.0  0.43946  0.76664  0.43342  1.0000
  H   H692      1.0  0.38921  0.89640  0.23554  1.0000
  H   H693      1.0  0.36728  0.96353  0.24640  1.0000
  C   C416      1.0  0.49269  0.72615  0.75749  1.0000
  Fe  Fe64      1.0  0.41719  0.68529  0.80905  1.0000
  H   H694      1.0  0.40618  0.80918  0.36403  1.0000
  S   S124      1.0  0.40887  0.69042  0.72406  1.0000
  H   H695      1.0  0.41760  0.80610  0.73503  1.0000
  C   C417      1.0  0.35532  0.95018  0.22602  1.0000
  H   H696      1.0  0.39860  0.94627  0.29090  1.0000
  H   H697      1.0  0.31901  0.91577  0.21223  1.0000
  C   C418      1.0  0.29204  0.96792  0.01168  1.0000
  C   C419      1.0  0.34057  0.99027  0.52987  1.0000
  H   H698      1.0  0.43691  0.75820  0.83761  1.0000
  H   H699      1.0  0.40533  0.74489  0.32249  1.0000
  H   H700      1.0  0.34272  0.94350  0.25637  1.0000
  C   C420      1.0  0.49192  0.84239  0.11996  1.0000
  H   H701      1.0  0.44173  0.79823  0.41533  1.0000
  H   H702      1.0  0.28461  0.90522  0.13488  1.0000
  C   C421      1.0  0.27015  0.89227  0.86512  1.0000
  H   H703      1.0  0.47158  0.84283  0.12194  1.0000
  H   H704      1.0  0.42136  0.82817  0.82930  1.0000
  H   H705      1.0  0.34775  0.92040  0.13650  1.0000
  H   H706      1.0  0.44124  0.80537  0.31204  1.0000
  H   H707      1.0  0.38547  0.76394  0.42102  1.0000
  C   C422      1.0  0.33388  0.96716  0.04454  1.0000
  C   C423      1.0  0.48067  0.80731  0.95047  1.0000
  C   C424      1.0  0.38241  0.91497  0.24810  1.0000
  H   H708      1.0  0.32379  0.97096  0.46310  1.0000
  C   C425      1.0  0.47656  0.70812  0.77453  1.0000
  H   H709      1.0  0.40044  0.91374  0.10540  1.0000
  H   H710      1.0  0.32338  0.88765  0.17677  1.0000
  H   H711      1.0  0.28382  0.93985  0.95484  1.0000
  H   H712      1.0  0.45293  0.72295  0.36647  1.0000
  H   H713      1.0  0.48159  0.77666  0.42912  1.0000
  H   H714      1.0  0.29165  0.67377  0.73967  1.0000
  H   H715      1.0  0.47323  0.78231  0.81465  1.0000
  H   H716      1.0  0.46382  0.70594  0.01315  1.0000
  H   H717      1.0  0.27316  0.93602  0.11778  1.0000
  N   N29       1.0  0.45593  0.80721  0.75939  1.0000
  C   C426      1.0  0.50010  0.96795  0.46778  1.0000
  C   C427      1.0  0.42187  0.78306  0.25641  1.0000
  C   C428      1.0  0.41088  0.99324  0.50417  1.0000
  C   C429      1.0  0.42003  0.83625  0.78999  1.0000
  H   H718      1.0  0.42002  0.92921  0.24988  1.0000
  H   H719      1.0  0.47884  0.77889  0.72284  1.0000
  H   H720      1.0  0.35959  0.98641  0.51678  1.0000
  H   H721      1.0  0.39626  0.68730  0.03405  1.0000
  H   H722      1.0  0.39908  0.70298  0.94815  1.0000
  C   C430      1.0  0.40743  0.92030  0.14347  1.0000
  N   N30       1.0  0.33217  0.77510  0.87680  1.0000
  C   C431      1.0  0.34780  0.76624  0.92218  1.0000
  C   C432      1.0  0.34900  0.77730  0.83110  1.0000
  C   C433      1.0  0.31374  0.75542  0.86535  1.0000
  C   C434      1.0  0.31954  0.79933  0.89133  1.0000
  C   C435      1.0  0.33398  0.76016  0.97237  1.0000
  C   C436      1.0  0.37043  0.79505  0.83855  1.0000
  C   C437      1.0  0.29615  0.76016  0.81917  1.0000
  C   C438      1.0  0.31136  0.81676  0.84636  1.0000
  H   H723      1.0  0.35880  0.74932  0.91147  1.0000
  H   H724      1.0  0.36139  0.78039  0.93338  1.0000
  H   H725      1.0  0.33921  0.78309  0.79522  1.0000
  H   H726      1.0  0.35711  0.75880  0.82108  1.0000
  H   H727      1.0  0.32335  0.73729  0.85816  1.0000
  H   H728      1.0  0.30164  0.75256  0.89915  1.0000
  H   H729      1.0  0.30310  0.79590  0.91531  1.0000
  H   H730      1.0  0.33183  0.81046  0.91654  1.0000
  H   H731      1.0  0.34752  0.75771  0.00457  1.0000
  H   H732      1.0  0.32094  0.77520  0.98397  1.0000
  H   H733      1.0  0.32430  0.74239  0.96883  1.0000
  H   H734      1.0  0.36484  0.81267  0.85765  1.0000
  H   H735      1.0  0.38551  0.78594  0.86119  1.0000
  H   H736      1.0  0.37800  0.79959  0.80004  1.0000
  H   H737      1.0  0.28350  0.77613  0.82674  1.0000
  H   H738      1.0  0.28448  0.74375  0.81418  1.0000
  H   H739      1.0  0.30587  0.76248  0.78204  1.0000
  H   H740      1.0  0.42443  0.69961  0.05405  1.0000
  H   H741      1.0  0.30892  0.80791  0.80812  1.0000
  H   H742      1.0  0.30508  0.97187  0.52101  1.0000
  H   H743      1.0  0.43470  0.97077  0.61742  1.0000
  H   H744      1.0  0.41006  0.91623  0.30928  1.0000
  C   C439      1.0  0.43716  0.76831  0.80015  1.0000
  C   C440      1.0  0.42615  0.97085  0.57937  1.0000
  H   H745      1.0  0.49641  0.84697  0.07908  1.0000
  H   H746      1.0  0.39999  0.83832  0.78246  1.0000
  S   S125      1.0  0.45363  0.68176  0.84954  1.0000
  H   H747      1.0  0.38001  0.94880  0.13412  1.0000
  C   C441      1.0  0.33277  0.90114  0.20218  1.0000
  N   N31       1.0  0.42701  0.77474  0.35477  1.0000
  C   C442      1.0  0.49483  0.80955  0.18769  1.0000
  H   H748      1.0  0.29553  0.66976  0.61887  1.0000
  S   S126      1.0  0.26190  0.97990  0.01327  1.0000
  H   H749      1.0  0.46122  0.84338  0.84106  1.0000
  H   H750      1.0  0.42646  0.67449  0.12131  1.0000
  H   H751      1.0  0.30602  0.99393  0.06749  1.0000
  H   H752      1.0  0.33161  0.95180  0.51720  1.0000
  C   C443      1.0  0.34436  0.67147  0.00812  1.0000
  H   H753      1.0  0.26078  0.75906  0.32533  1.0000
  H   H754      1.0  0.27592  0.89227  0.03949  1.0000
  H   H755      1.0  0.47608  0.81698  0.19630  1.0000
  H   H756      1.0  0.49123  0.85224  0.82305  1.0000
  H   H757      1.0  0.27914  0.86322  0.10343  1.0000
  C   C444      1.0  0.49244  0.79883  0.09509  1.0000
  H   H758      1.0  0.30633  0.68273  0.42282  1.0000
  H   H759      1.0  0.49870  0.77959  0.10474  1.0000
  C   C445      1.0  0.48358  0.72087  0.86338  1.0000
  H   H760      1.0  0.32695  0.95432  0.16380  1.0000
  H   H761      1.0  0.50223  0.81288  0.27050  1.0000
  H   H762      1.0  0.49971  0.80241  0.05568  1.0000
  H   H763      1.0  0.50547  0.97098  0.42676  1.0000
  H   H764      1.0  0.49335  0.78905  0.19056  1.0000
  H   H765      1.0  0.49403  0.81780  0.75910  1.0000
  H   H766      1.0  0.49581  0.94974  0.56668  1.0000
  H   H767      1.0  0.48486  0.96829  0.61951  1.0000
  C   C446      1.0  0.49924  0.73922  0.84620  1.0000
  N   N32       1.0  0.50247  0.81712  0.13387  1.0000
  H   H768      1.0  0.49628  0.72803  0.71648  1.0000
  C   C447      1.0  0.49861  0.96730  0.58801  1.0000
  C   C448      1.0  0.26523  0.90744  0.05892  1.0000
  S   S127      1.0  0.26654  0.99564  0.16215  1.0000
  H   H769      1.0  0.25964  0.84553  0.14310  1.0000
  C   C449      1.0  0.49999  0.86428  0.15384  1.0000
  H   H770      1.0  0.50554  0.81491  0.56977  1.0000
  C   C450      1.0  0.50435  0.74150  0.79338  1.0000
  H   H771      1.0  0.26019  0.70048  0.62437  1.0000
  C   C451      1.0  0.49528  0.99031  0.55300  1.0000
  H   H772      1.0  0.34121  0.67000  0.49906  1.0000
  H   H773      1.0  0.47530  0.99344  0.54802  1.0000
  S   S128      1.0  0.26466  0.67160  0.48548  1.0000
  H   H774      1.0  0.45866  0.66946  0.95882  1.0000
  Fe  Fe65      1.0  0.74157  0.16363  0.00999  1.0000
  S   S129      1.0  0.71084  0.14644  0.96486  1.0000
  H   H775      1.0  0.71395  0.10357  0.17151  1.0000
  Fe  Fe66      1.0  0.71132  0.16884  0.10864  1.0000
  S   S130      1.0  0.67804  0.15257  0.07193  1.0000
  S   S131      1.0  0.71301  0.18230  0.19117  1.0000
  Fe  Fe67      1.0  0.70489  0.12501  0.03824  1.0000
  S   S132      1.0  0.69743  0.08481  0.04879  1.0000
  Fe  Fe68      1.0  0.68683  0.17562  0.00281  1.0000
  S   S133      1.0  0.66000  0.20075  0.95957  1.0000
  S   S134      1.0  0.73765  0.13966  0.08003  1.0000
  S   S135      1.0  0.71809  0.19447  0.04243  1.0000
  Fe  Fe69      1.0  0.61005  0.12706  0.52252  1.0000
  S   S136      1.0  0.63984  0.14078  0.57540  1.0000
  S   S137      1.0  0.57811  0.10670  0.55527  1.0000
  Fe  Fe70      1.0  0.63699  0.14197  0.42422  1.0000
  S   S138      1.0  0.66885  0.15724  0.46854  1.0000
  S   S139      1.0  0.63466  0.13548  0.33781  1.0000
  Fe  Fe71      1.0  0.66573  0.12323  0.51788  1.0000
  S   S140      1.0  0.69728  0.09648  0.53274  1.0000
  Fe  Fe72      1.0  0.64009  0.17357  0.52181  1.0000
  S   S141      1.0  0.63694  0.21346  0.54875  1.0000
  S   S142      1.0  0.63595  0.10699  0.47006  1.0000
  S   S143      1.0  0.60818  0.16100  0.47284  1.0000
  H   H776      1.0  0.58825  0.15623  0.02141  1.0000
  S   S144      1.0  0.69974  0.25951  0.73174  1.0000
  H   H777      1.0  0.63287  0.16085  0.00662  1.0000
  C   C452      1.0  0.56898  0.27323  0.79037  1.0000
  C   C453      1.0  0.59518  0.30539  0.75849  1.0000
  C   C454      1.0  0.58082  0.28462  0.74917  1.0000
  C   C455      1.0  0.70267  0.27187  0.94986  1.0000
  H   H778      1.0  0.57823  0.27795  0.70992  1.0000
  C   C456      1.0  0.65482  0.22553  0.59963  1.0000
  C   C457      1.0  0.64829  0.24889  0.61972  1.0000
  C   C458      1.0  0.66189  0.25929  0.66036  1.0000
  C   C459      1.0  0.68250  0.24668  0.68056  1.0000
  C   C460      1.0  0.68918  0.22331  0.66037  1.0000
  C   C461      1.0  0.67524  0.21263  0.62023  1.0000
  H   H779      1.0  0.63240  0.25885  0.60419  1.0000
  H   H780      1.0  0.65618  0.27694  0.67631  1.0000
  H   H781      1.0  0.70506  0.21338  0.67597  1.0000
  H   H782      1.0  0.68038  0.19460  0.60485  1.0000
  C   C462      1.0  0.55333  0.10115  0.51299  1.0000
  H   H783      1.0  0.53010  0.30598  0.89781  1.0000
  C   C463      1.0  0.55140  0.11261  0.46445  1.0000
  H   H784      1.0  0.75524  0.14349  0.90526  1.0000
  H   H785      1.0  0.56612  0.12385  0.45073  1.0000
  C   C464      1.0  0.67773  0.27900  0.50351  1.0000
  C   C465      1.0  0.68920  0.02288  0.55628  1.0000
  C   C466      1.0  0.69865  0.04575  0.54127  1.0000
  C   C467      1.0  0.68576  0.06789  0.55235  1.0000
  C   C468      1.0  0.66354  0.06712  0.57884  1.0000
  C   C469      1.0  0.65461  0.04440  0.59558  1.0000
  S   S145      1.0  0.52122  0.20072  0.86197  1.0000
  H   H786      1.0  0.71578  0.04624  0.52055  1.0000
  H   H787      1.0  0.65343  0.08411  0.58740  1.0000
  C   C470      1.0  0.71954  0.28447  0.58095  1.0000
  C   C471      1.0  0.72314  0.06618  0.03374  1.0000
  C   C472      1.0  0.72715  0.04359  0.05936  1.0000
  H   H788      1.0  0.70559  0.02755  0.37566  1.0000
  H   H789      1.0  0.51403  0.02849  0.49753  1.0000
  H   H790      1.0  0.51497  0.01314  0.43635  1.0000
  C   C473      1.0  0.73978  0.07382  0.99652  1.0000
  H   H791      1.0  0.71418  0.03756  0.08793  1.0000
  H   H792      1.0  0.64242  0.05396  0.28620  1.0000
  H   H793      1.0  0.73659  0.09114  0.97625  1.0000
  H   H794      1.0  0.57367  0.17543  0.82478  1.0000
  H   H795      1.0  0.60454  0.03384  0.36823  1.0000
  C   C474      1.0  0.52984  0.11040  0.43452  1.0000
  C   C475      1.0  0.69326  0.16746  0.23403  1.0000
  C   C476      1.0  0.68023  0.14678  0.21809  1.0000
  C   C477      1.0  0.66299  0.13642  0.25117  1.0000
  C   C478      1.0  0.65883  0.14656  0.30052  1.0000
  C   C479      1.0  0.67257  0.16662  0.31733  1.0000
  C   C480      1.0  0.68973  0.17708  0.28405  1.0000
  H   H796      1.0  0.68309  0.13897  0.17998  1.0000
  H   H797      1.0  0.65247  0.12085  0.23803  1.0000
  H   H798      1.0  0.66934  0.17467  0.35518  1.0000
  H   H799      1.0  0.69986  0.19303  0.29665  1.0000
  C   C481      1.0  0.57797  0.19144  0.98741  1.0000
  C   C482      1.0  0.58659  0.21285  0.96417  1.0000
  C   C483      1.0  0.61181  0.21577  0.95728  1.0000
  C   C484      1.0  0.62862  0.19699  0.97207  1.0000
  C   C485      1.0  0.62008  0.17554  0.99544  1.0000
  C   C486      1.0  0.59480  0.17286  0.00344  1.0000
  H   H800      1.0  0.57391  0.22745  0.95247  1.0000
  H   H801      1.0  0.61828  0.23280  0.94094  1.0000
  N   N33       1.0  0.61897  0.19943  0.17059  1.0000
  C   C487      1.0  0.60270  0.17827  0.15622  1.0000
  C   C488      1.0  0.60527  0.22345  0.15959  1.0000
  C   C489      1.0  0.62594  0.19874  0.22733  1.0000
  C   C490      1.0  0.64211  0.19722  0.13920  1.0000
  C   C491      1.0  0.61258  0.15216  0.17082  1.0000
  C   C492      1.0  0.59829  0.22815  0.10217  1.0000
  H   H802      1.0  0.58416  0.18079  0.17348  1.0000
  H   H803      1.0  0.59939  0.17779  0.11360  1.0000
  H   H804      1.0  0.61580  0.23953  0.17388  1.0000
  H   H805      1.0  0.58772  0.22436  0.18121  1.0000
  H   H806      1.0  0.63867  0.18288  0.23559  1.0000
  H   H807      1.0  0.63636  0.21539  0.23850  1.0000
  H   H808      1.0  0.65339  0.18093  0.15212  1.0000
  H   H809      1.0  0.63787  0.19376  0.09750  1.0000
  H   H810      1.0  0.61466  0.14974  0.21333  1.0000
  H   H811      1.0  0.59922  0.13828  0.15741  1.0000
  H   H812      1.0  0.63019  0.14751  0.15156  1.0000
  H   H813      1.0  0.58436  0.21500  0.08823  1.0000
  H   H814      1.0  0.58982  0.24698  0.09847  1.0000
  H   H815      1.0  0.61431  0.22740  0.07608  1.0000
  N   N34       1.0  0.62397  0.20868  0.78052  1.0000
  C   C493      1.0  0.60959  0.18736  0.80097  1.0000
  C   C494      1.0  0.64946  0.19912  0.76792  1.0000
  C   C495      1.0  0.61236  0.21949  0.73210  1.0000
  C   C496      1.0  0.62451  0.22861  0.82140  1.0000
  C   C497      1.0  0.58200  0.19253  0.80987  1.0000
  C   C498      1.0  0.66635  0.19320  0.81486  1.0000
  C   C499      1.0  0.60863  0.20115  0.68689  1.0000
  C   C500      1.0  0.63938  0.25168  0.80852  1.0000
  C   C501      1.0  0.54217  0.18086  0.55742  1.0000
  H   H816      1.0  0.61726  0.18098  0.83898  1.0000
  H   H817      1.0  0.65916  0.21230  0.74290  1.0000
  H   H818      1.0  0.64870  0.18185  0.74434  1.0000
  H   H819      1.0  0.59435  0.22859  0.74063  1.0000
  H   H820      1.0  0.62366  0.23462  0.71669  1.0000
  H   H821      1.0  0.60567  0.23581  0.82958  1.0000
  H   H822      1.0  0.63108  0.22114  0.85928  1.0000
  C   C502      1.0  0.74810  0.02892  0.04868  1.0000
  H   H823      1.0  0.57865  0.20706  0.83960  1.0000
  H   H824      1.0  0.61122  0.17096  0.77483  1.0000
  H   H825      1.0  0.68376  0.18460  0.80071  1.0000
  H   H826      1.0  0.67127  0.21022  0.83631  1.0000
  H   H827      1.0  0.65814  0.17992  0.84196  1.0000
  C   C503      1.0  0.73201  0.22439  0.85509  1.0000
  H   H828      1.0  0.60021  0.21134  0.65351  1.0000
  H   H829      1.0  0.59604  0.18617  0.69704  1.0000
  C   C504      1.0  0.66733  0.02223  0.58420  1.0000
  H   H830      1.0  0.65608  0.24732  0.78621  1.0000
  H   H831      1.0  0.64584  0.26028  0.84519  1.0000
  S   S146      1.0  0.67544  0.30771  0.83549  1.0000
  H   H832      1.0  0.66892  0.01844  0.33523  1.0000
  C   C505      1.0  0.53483  0.13577  0.90579  1.0000
  H   H833      1.0  0.51011  0.15044  0.96252  1.0000
  H   H834      1.0  0.72060  0.27683  0.84259  1.0000
  H   H835      1.0  0.65127  0.08439  0.30418  1.0000
  H   H836      1.0  0.61561  0.04797  0.51017  1.0000
  H   H837      1.0  0.52809  0.11987  0.39768  1.0000
  H   H838      1.0  0.75115  0.01156  0.06879  1.0000
  H   H839      1.0  0.70576  0.28961  0.92968  1.0000
  C   C506      1.0  0.64408  0.06126  0.37083  1.0000
  H   H840      1.0  0.70283  0.23274  0.93904  1.0000
  H   H841      1.0  0.75000  0.25790  0.78497  1.0000
  H   H842      1.0  0.60020  0.03102  0.46073  1.0000
  H   H843      1.0  0.62569  0.07065  0.37266  1.0000
  H   H844      1.0  0.53891  0.31425  0.77567  1.0000
  H   H845      1.0  0.70515  0.27197  0.59507  1.0000
  H   H846      1.0  0.74317  0.28473  0.88946  1.0000
  H   H847      1.0  0.74148  0.27287  0.64784  1.0000
  H   H848      1.0  0.55543  0.17711  0.52568  1.0000
  H   H849      1.0  0.74535  0.11308  0.23542  1.0000
  Fe  Fe73      1.0  0.52403  0.24089  0.84495  1.0000
  H   H850      1.0  0.74126  0.19442  0.91074  1.0000
  H   H851      1.0  0.54561  0.15288  0.90946  1.0000
  H   H852      1.0  0.52907  0.14499  0.53500  1.0000
  C   C507      1.0  0.70717  0.24900  0.91473  1.0000
  S   S147      1.0  0.66318  0.32488  0.71503  1.0000
  C   C508      1.0  0.61455  0.04484  0.46757  1.0000
  C   C509      1.0  0.52939  0.32601  0.90689  1.0000
  H   H853      1.0  0.52789  0.11335  0.63277  1.0000
  H   H854      1.0  0.71321  0.28960  0.47767  1.0000
  Fe  Fe74      1.0  0.52256  0.21198  0.94527  1.0000
  H   H855      1.0  0.74674  0.12062  0.53523  1.0000
  H   H856      1.0  0.60379  0.31465  0.72653  1.0000
  H   H857      1.0  0.53581  0.07726  0.56729  1.0000
  H   H858      1.0  0.72922  0.18435  0.85005  1.0000
  H   H859      1.0  0.52257  0.16417  0.66868  1.0000
  H   H860      1.0  0.52973  0.19555  0.54195  1.0000
  C   C510      1.0  0.69826  0.29815  0.50134  1.0000
  C   C511      1.0  0.52929  0.15664  0.57051  1.0000
  C   C512      1.0  0.51280  0.08420  0.50017  1.0000
  H   H861      1.0  0.55246  0.18789  0.59158  1.0000
  H   H862      1.0  0.60861  0.06261  0.44960  1.0000
  H   H863      1.0  0.65380  0.04742  0.46690  1.0000
  H   H864      1.0  0.53544  0.13038  0.86431  1.0000
  C   C513      1.0  0.53904  0.33184  0.11112  1.0000
  C   C514      1.0  0.59747  0.31476  0.80891  1.0000
  H   H865      1.0  0.52009  0.29690  0.81659  1.0000
  H   H866      1.0  0.71766  0.22756  0.82451  1.0000
  C   C515      1.0  0.73573  0.29047  0.62848  1.0000
  H   H867      1.0  0.69558  0.32494  0.62292  1.0000
  H   H868      1.0  0.71869  0.07726  0.21244  1.0000
  H   H869      1.0  0.71392  0.27093  0.98588  1.0000
  H   H870      1.0  0.67542  0.30234  0.59975  1.0000
  H   H871      1.0  0.58870  0.30973  0.88930  1.0000
  C   C516      1.0  0.62180  0.02263  0.36349  1.0000
  C   C517      1.0  0.65323  0.06453  0.31488  1.0000
  H   H872      1.0  0.69290  0.24977  0.88342  1.0000
  C   C518      1.0  0.75109  0.10072  0.20288  1.0000
  H   H873      1.0  0.75154  0.25951  0.95994  1.0000
  H   H874      1.0  0.54431  0.12154  0.93015  1.0000
  C   C519      1.0  0.72744  0.08872  0.18264  1.0000
  H   H875      1.0  0.68317  0.27230  0.96204  1.0000
  C   C520      1.0  0.58650  0.30275  0.85019  1.0000
  H   H876      1.0  0.51721  0.12264  0.01958  1.0000
  H   H877      1.0  0.74699  0.14754  0.57464  1.0000
  H   H878      1.0  0.74433  0.22827  0.96382  1.0000
  Fe  Fe75      1.0  0.68947  0.29873  0.75589  1.0000
  C   C521      1.0  0.65932  0.21942  0.14207  1.0000
  H   H879      1.0  0.65091  0.23638  0.12466  1.0000
  H   H880      1.0  0.70877  0.19785  0.89614  1.0000
  S   S148      1.0  0.54820  0.24977  0.77763  1.0000
  S   S149      1.0  0.54638  0.18810  0.99817  1.0000
  H   H881      1.0  0.67607  0.21489  0.11936  1.0000
  C   C522      1.0  0.72643  0.32643  0.54413  1.0000
  C   C523      1.0  0.57251  0.28184  0.84093  1.0000
  H   H882      1.0  0.62808  0.26545  0.78642  1.0000
  C   C524      1.0  0.75059  0.24243  0.93586  1.0000
  C   C525      1.0  0.53423  0.08647  0.53016  1.0000
  H   H883      1.0  0.65598  0.07269  0.39605  1.0000
  H   H884      1.0  0.56426  0.27267  0.87293  1.0000
  H   H885      1.0  0.66553  0.22329  0.18228  1.0000
  H   H886      1.0  0.74922  0.08631  0.58892  1.0000
  H   H887      1.0  0.75258  0.29822  0.50986  1.0000
  H   H888      1.0  0.57202  0.19751  0.77356  1.0000
  C   C526      1.0  0.73046  0.10996  0.64419  1.0000
  C   C527      1.0  0.72749  0.19902  0.88018  1.0000
  H   H889      1.0  0.63767  0.04400  0.61704  1.0000
  C   C528      1.0  0.60458  0.19732  0.26596  1.0000
  H   H890      1.0  0.59354  0.18057  0.26038  1.0000
  N   N35       1.0  0.70806  0.30652  0.55315  1.0000
  C   C529      1.0  0.66631  0.02060  0.37780  1.0000
  H   H891      1.0  0.67199  0.27426  0.46330  1.0000
  H   H892      1.0  0.62472  0.02163  0.32091  1.0000
  H   H893      1.0  0.61237  0.19609  0.30594  1.0000
  H   H894      1.0  0.73069  0.27261  0.55434  1.0000
  H   H895      1.0  0.62628  0.19307  0.67299  1.0000
  C   C530      1.0  0.63986  0.03547  0.44826  1.0000
  H   H896      1.0  0.51824  0.20792  0.62701  1.0000
  N   N36       1.0  0.73249  0.24621  0.89178  1.0000
  S   S150      1.0  0.52877  0.25190  0.92835  1.0000
  C   C531      1.0  0.68782  0.31708  0.58665  1.0000
  H   H897      1.0  0.68923  0.05040  0.41202  1.0000
  H   H898      1.0  0.59250  0.21412  0.26466  1.0000
  H   H899      1.0  0.72069  0.12329  0.61822  1.0000
  H   H900      1.0  0.54230  0.14640  0.59658  1.0000
  N   N37       1.0  0.64303  0.03493  0.39017  1.0000
  H   H901      1.0  0.74933  0.22209  0.83331  1.0000
  H   H902      1.0  0.67300  0.05949  0.31158  1.0000
  H   H903      1.0  0.51876  0.32025  0.20685  1.0000
  C   C532      1.0  0.73759  0.26971  0.86240  1.0000
  H   H904      1.0  0.54178  0.31557  0.13707  1.0000
  H   H905      1.0  0.66115  0.28628  0.52354  1.0000
  H   H906      1.0  0.68408  0.26145  0.52213  1.0000
  H   H907      1.0  0.74766  0.05715  0.25716  1.0000
  H   H908      1.0  0.69142  0.31422  0.47787  1.0000
  H   H909      1.0  0.71779  0.09449  0.65072  1.0000
  H   H910      1.0  0.73065  0.07742  0.14736  1.0000
  H   H911      1.0  0.64348  0.01689  0.46556  1.0000
  C   C533      1.0  0.69007  0.03038  0.40281  1.0000
  C   C534      1.0  0.55530  0.32635  0.06363  1.0000
  H   H912      1.0  0.54484  0.31508  0.03529  1.0000
  H   H913      1.0  0.51798  0.08914  0.93812  1.0000
  C   C535      1.0  0.50937  0.10416  0.01386  1.0000
  H   H914      1.0  0.57215  0.31567  0.07515  1.0000
  H   H915      1.0  0.73382  0.11872  0.68250  1.0000
  C   C536      1.0  0.51972  0.31276  0.78912  1.0000
  C   C537      1.0  0.75447  0.09935  0.62059  1.0000
  H   H916      1.0  0.51949  0.33045  0.09863  1.0000
  C   C538      1.0  0.75699  0.26813  0.81928  1.0000
  H   H917      1.0  0.75268  0.29995  0.61727  1.0000
  H   H918      1.0  0.69445  0.02015  0.43924  1.0000
  H   H919      1.0  0.51289  0.33030  0.93041  1.0000
  C   C539      1.0  0.50815  0.11624  0.64132  1.0000
  H   H920      1.0  0.74899  0.32639  0.47391  1.0000
  H   H921      1.0  0.52428  0.09098  0.02618  1.0000
  H   H922      1.0  0.72562  0.30173  0.65755  1.0000
  H   H923      1.0  0.54564  0.32995  0.93156  1.0000
  H   H924      1.0  0.51316  0.28782  0.72467  1.0000
  S   S151      1.0  0.71970  0.32602  0.76102  1.0000
  C   C540      1.0  0.74966  0.31845  0.51367  1.0000
  H   H925      1.0  0.75606  0.08223  0.29719  1.0000
  C   C541      1.0  0.51021  0.09675  0.45300  1.0000
  H   H926      1.0  0.69913  0.00580  0.54745  1.0000
  H   H927      1.0  0.55452  0.00436  0.45060  1.0000
  H   H928      1.0  0.73219  0.33519  0.58136  1.0000
  H   H929      1.0  0.66132  0.33151  0.52759  1.0000
  C   C542      1.0  0.50840  0.14137  0.92412  1.0000
  H   H930      1.0  0.75755  0.11332  0.17212  1.0000
  Fe  Fe76      1.0  0.60337  0.60154  0.20186  1.0000
  S   S152      1.0  0.59451  0.59427  0.28498  1.0000
  S   S153      1.0  0.61808  0.57021  0.15244  1.0000
  Fe  Fe77      1.0  0.55986  0.61635  0.26808  1.0000
  C   C543      1.0  0.74319  0.39079  0.79636  1.0000
  S   S154      1.0  0.62298  0.63703  0.21661  1.0000
  S   S155      1.0  0.56719  0.62031  0.18330  1.0000
  N   N38       1.0  0.69902  0.46700  0.92760  1.0000
  S   S156      1.0  0.67868  0.36685  0.80268  1.0000
  H   H931      1.0  0.51682  0.64515  0.85190  1.0000
  C   C544      1.0  0.72112  0.46335  0.45617  1.0000
  H   H932      1.0  0.67339  0.43969  0.95298  1.0000
  Fe  Fe78      1.0  0.69240  0.35303  0.72575  1.0000
  S   S157      1.0  0.70379  0.37568  0.65691  1.0000
  H   H933      1.0  0.54402  0.39522  0.12970  1.0000
  H   H934      1.0  0.60715  0.35650  0.16565  1.0000
  H   H935      1.0  0.69533  0.42970  0.85386  1.0000
  Fe  Fe79      1.0  0.68822  0.42180  0.15269  1.0000
  S   S158      1.0  0.69035  0.38865  0.20512  1.0000
  S   S159      1.0  0.68023  0.42018  0.06638  1.0000
  Fe  Fe80      1.0  0.68944  0.45832  0.24371  1.0000
  S   S160      1.0  0.69096  0.42800  0.30277  1.0000
  S   S161      1.0  0.68986  0.49721  0.27495  1.0000
  Fe  Fe81      1.0  0.71864  0.41016  0.25001  1.0000
  H   H936      1.0  0.66499  0.44177  0.83904  1.0000
  Fe  Fe82      1.0  0.66246  0.40995  0.25273  1.0000
  S   S162      1.0  0.62861  0.39376  0.28852  1.0000
  S   S163      1.0  0.71864  0.44174  0.19313  1.0000
  S   S164      1.0  0.65884  0.44192  0.19809  1.0000
  Fe  Fe83      1.0  0.72267  0.55302  0.57586  1.0000
  S   S165      1.0  0.72521  0.55250  0.66397  1.0000
  S   S166      1.0  0.69113  0.55621  0.51607  1.0000
  Fe  Fe84      1.0  0.74000  0.51355  0.65560  1.0000
  S   S167      1.0  0.72800  0.48582  0.71483  1.0000
  S   S168      1.0  0.73507  0.51301  0.56949  1.0000
  C   C545      1.0  0.55379  0.42174  0.22721  1.0000
  C   C546      1.0  0.55542  0.40844  0.27364  1.0000
  C   C547      1.0  0.57845  0.39974  0.29208  1.0000
  C   C548      1.0  0.59985  0.40419  0.26406  1.0000
  C   C549      1.0  0.59796  0.41684  0.21692  1.0000
  C   C550      1.0  0.57508  0.42573  0.19878  1.0000
  H   H937      1.0  0.53906  0.40532  0.29589  1.0000
  H   H938      1.0  0.57974  0.38981  0.32846  1.0000
  H   H939      1.0  0.61406  0.41950  0.19393  1.0000
  H   H940      1.0  0.57392  0.43582  0.16257  1.0000
  C   C551      1.0  0.71352  0.36274  0.95492  1.0000
  C   C552      1.0  0.72678  0.36974  0.99934  1.0000
  C   C553      1.0  0.71632  0.38641  0.03556  1.0000
  C   C554      1.0  0.69265  0.39630  0.02709  1.0000
  C   C555      1.0  0.67929  0.38884  0.98329  1.0000
  C   C556      1.0  0.68956  0.37197  0.94765  1.0000
  H   H941      1.0  0.66732  0.46918  0.01574  1.0000
  H   H942      1.0  0.72681  0.39218  0.06912  1.0000
  H   H943      1.0  0.66090  0.39623  0.97674  1.0000
  H   H944      1.0  0.54767  0.63649  0.86845  1.0000
  C   C557      1.0  0.70725  0.40752  0.66901  1.0000
  C   C558      1.0  0.71954  0.42221  0.63322  1.0000
  C   C559      1.0  0.72520  0.44681  0.64572  1.0000
  C   C560      1.0  0.71844  0.45667  0.69391  1.0000
  C   C561      1.0  0.70521  0.44234  0.72841  1.0000
  C   C562      1.0  0.69952  0.41791  0.71590  1.0000
  H   H945      1.0  0.72552  0.41429  0.59673  1.0000
  H   H946      1.0  0.73545  0.45784  0.61897  1.0000
  H   H947      1.0  0.69957  0.45009  0.76518  1.0000
  H   H948      1.0  0.68945  0.40710  0.74294  1.0000
  C   C563      1.0  0.66881  0.62194  0.44891  1.0000
  C   C564      1.0  0.68067  0.60455  0.48219  1.0000
  C   C565      1.0  0.67708  0.57919  0.47525  1.0000
  C   C566      1.0  0.66163  0.57152  0.43445  1.0000
  C   C567      1.0  0.64986  0.58888  0.40109  1.0000
  H   H949      1.0  0.57672  0.48287  0.20296  1.0000
  H   H950      1.0  0.69240  0.61078  0.51342  1.0000
  H   H951      1.0  0.65875  0.55197  0.42867  1.0000
  H   H952      1.0  0.73406  0.46502  0.96778  1.0000
  H   H953      1.0  0.67213  0.64974  0.27421  1.0000
  H   H954      1.0  0.67330  0.48584  0.84004  1.0000
  C   C568      1.0  0.63876  0.55045  0.18587  1.0000
  C   C569      1.0  0.64701  0.55644  0.23578  1.0000
  C   C570      1.0  0.66284  0.54005  0.26279  1.0000
  C   C571      1.0  0.67060  0.51771  0.23986  1.0000
  C   C572      1.0  0.66245  0.51173  0.18990  1.0000
  C   C573      1.0  0.64659  0.52813  0.16289  1.0000
  H   H955      1.0  0.64128  0.57374  0.25356  1.0000
  H   H956      1.0  0.66882  0.54455  0.30173  1.0000
  H   H957      1.0  0.66850  0.49459  0.17184  1.0000
  H   H958      1.0  0.64024  0.52345  0.12428  1.0000
  H   H959      1.0  0.75346  0.45802  0.29159  1.0000
  H   H960      1.0  0.72802  0.38833  0.36755  1.0000
  H   H961      1.0  0.54893  0.36622  0.77330  1.0000
  H   H962      1.0  0.71286  0.60036  0.20615  1.0000
  H   H963      1.0  0.52430  0.37710  0.19964  1.0000
  H   H964      1.0  0.71775  0.41545  0.92062  1.0000
  H   H965      1.0  0.58800  0.66778  0.82561  1.0000
  C   C574      1.0  0.65326  0.61426  0.40833  1.0000
  H   H966      1.0  0.69763  0.47508  0.04201  1.0000
  S   S169      1.0  0.63944  0.63697  0.36648  1.0000
  H   H967      1.0  0.68217  0.35446  0.55277  1.0000
  H   H968      1.0  0.52110  0.39765  0.04658  1.0000
  H   H969      1.0  0.59140  0.38069  0.13164  1.0000
  C   C575      1.0  0.53003  0.34213  0.85763  1.0000
  H   H970      1.0  0.51707  0.54491  0.16261  1.0000
  H   H971      1.0  0.51397  0.64922  0.24721  1.0000
  C   C576      1.0  0.54234  0.37806  0.10597  1.0000
  H   H972      1.0  0.52100  0.51776  0.20417  1.0000
  H   H973      1.0  0.72123  0.46836  0.35497  1.0000
  H   H974      1.0  0.70697  0.42878  0.42265  1.0000
  C   C577      1.0  0.69129  0.49441  0.84680  1.0000
  H   H975      1.0  0.75324  0.36366  0.70623  1.0000
  C   C578      1.0  0.72138  0.56266  0.22704  1.0000
  C   C579      1.0  0.68800  0.63816  0.26085  1.0000
  H   H976      1.0  0.68860  0.51279  0.86554  1.0000
  H   H977      1.0  0.56046  0.34297  0.04185  1.0000
  C   C580      1.0  0.69161  0.48870  0.96174  1.0000
  H   H978      1.0  0.69695  0.62834  0.33901  1.0000
  H   H979      1.0  0.72320  0.47093  0.49612  1.0000
  H   H980      1.0  0.71357  0.51332  0.42694  1.0000
  H   H981      1.0  0.73153  0.37945  0.77081  1.0000
  H   H982      1.0  0.74529  0.36259  0.00537  1.0000
  S   S170      1.0  0.52581  0.43441  0.20386  1.0000
  H   H983      1.0  0.68254  0.63011  0.22298  1.0000
  C   C581      1.0  0.52314  0.35878  0.17982  1.0000
  C   C582      1.0  0.68257  0.48237  0.01665  1.0000
  N   N39       1.0  0.54338  0.35554  0.14054  1.0000
  H   H984      1.0  0.53772  0.34711  0.72078  1.0000
  H   H985      1.0  0.73625  0.43950  0.36690  1.0000
  H   H986      1.0  0.75576  0.39052  0.66808  1.0000
  Fe  Fe85      1.0  0.70337  0.33737  0.83727  1.0000
  H   H987      1.0  0.67638  0.49981  0.94355  1.0000
  H   H988      1.0  0.72572  0.48860  0.88713  1.0000
  H   H989      1.0  0.75536  0.44526  0.52701  1.0000
  H   H990      1.0  0.60958  0.48617  0.19641  1.0000
  C   C583      1.0  0.71564  0.58140  0.33385  1.0000
  H   H991      1.0  0.70337  0.65093  0.25583  1.0000
  S   S171      1.0  0.52397  0.60093  0.29525  1.0000
  C   C584      1.0  0.71901  0.45253  0.95597  1.0000
  C   C585      1.0  0.75006  0.49445  0.42795  1.0000
  H   H992      1.0  0.72705  0.50953  0.36317  1.0000
  S   S172      1.0  0.72735  0.34335  0.90768  1.0000
  H   H993      1.0  0.51638  0.36503  0.04586  1.0000
  C   C586      1.0  0.67714  0.43407  0.87020  1.0000
  C   C587      1.0  0.73095  0.43040  0.92715  1.0000
  H   H994      1.0  0.62279  0.46913  0.26892  1.0000
  H   H995      1.0  0.54900  0.34022  0.84222  1.0000
  H   H996      1.0  0.68868  0.58454  0.23567  1.0000
  H   H997      1.0  0.74072  0.37825  0.45831  1.0000
  S   S173      1.0  0.61314  0.34198  0.82059  1.0000
  C   C588      1.0  0.69373  0.61812  0.30220  1.0000
  C   C589      1.0  0.56749  0.35417  0.17007  1.0000
  C   C590      1.0  0.67157  0.33786  0.56227  1.0000
  H   H998      1.0  0.65769  0.34400  0.59118  1.0000
  H   H999      1.0  0.74568  0.42219  0.95228  1.0000
  H   H1000     1.0  0.55802  0.37852  0.07908  1.0000
  H   H1001     1.0  0.72770  0.42383  0.47706  1.0000
  H   H1002     1.0  0.67893  0.36628  0.91436  1.0000
  H   H1003     1.0  0.57959  0.46380  0.34506  1.0000
  H   H1004     1.0  0.71473  0.54778  0.25250  1.0000
  C   C591      1.0  0.59299  0.50992  0.25749  1.0000
  H   H1005     1.0  0.74462  0.59559  0.38567  1.0000
  H   H1006     1.0  0.66009  0.46344  0.91392  1.0000
  C   C592      1.0  0.72492  0.59104  0.38676  1.0000
  H   H1007     1.0  0.72769  0.56519  0.32491  1.0000
  C   C593      1.0  0.70917  0.47757  0.87832  1.0000
  H   H1008     1.0  0.70508  0.47368  0.43917  1.0000
  C   C594      1.0  0.53337  0.65122  0.87349  1.0000
  H   H1009     1.0  0.71198  0.44457  0.99248  1.0000
  C   C595      1.0  0.59092  0.36059  0.14038  1.0000
  C   C596      1.0  0.53299  0.36255  0.74761  1.0000
  C   C597      1.0  0.70871  0.58786  0.23906  1.0000
  H   H1010     1.0  0.73976  0.62743  0.32048  1.0000
  H   H1011     1.0  0.52815  0.65259  0.91483  1.0000
  H   H1012     1.0  0.52983  0.37930  0.72329  1.0000
  C   C598      1.0  0.52239  0.33890  0.22276  1.0000
  H   H1013     1.0  0.63812  0.58267  0.36989  1.0000
  Fe  Fe86      1.0  0.61205  0.63073  0.29989  1.0000
  H   H1014     1.0  0.75261  0.50017  0.46889  1.0000
  H   H1015     1.0  0.58351  0.65346  0.88532  1.0000
  H   H1016     1.0  0.58890  0.50975  0.17368  1.0000
  H   H1017     1.0  0.73072  0.40439  0.81574  1.0000
  C   C599      1.0  0.59200  0.49597  0.20519  1.0000
  H   H1018     1.0  0.69726  0.43546  0.48715  1.0000
  H   H1019     1.0  0.73703  0.62717  0.25282  1.0000
  H   H1020     1.0  0.53380  0.54659  0.22170  1.0000
  C   C600      1.0  0.74726  0.38741  0.37816  1.0000
  H   H1021     1.0  0.66917  0.41606  0.88083  1.0000
  H   H1022     1.0  0.72304  0.57628  0.41633  1.0000
  C   C601      1.0  0.51759  0.53805  0.20304  1.0000
  C   C602      1.0  0.67683  0.45133  0.91835  1.0000
  H   H1023     1.0  0.74158  0.56319  0.22905  1.0000
  H   H1024     1.0  0.75158  0.37908  0.82736  1.0000
  H   H1025     1.0  0.52849  0.36183  0.87018  1.0000
  Fe  Fe87      1.0  0.58576  0.65570  0.20487  1.0000
  H   H1026     1.0  0.70712  0.50163  0.96663  1.0000
  H   H1027     1.0  0.56705  0.36710  0.20386  1.0000
  H   H1028     1.0  0.71640  0.55711  0.18682  1.0000
  H   H1029     1.0  0.69929  0.49800  0.80814  1.0000
  S   S174      1.0  0.57636  0.65260  0.28998  1.0000
  H   H1030     1.0  0.67544  0.49957  0.03559  1.0000
  C   C603      1.0  0.71315  0.43621  0.46059  1.0000
  H   H1031     1.0  0.71588  0.46303  0.85133  1.0000
  H   H1032     1.0  0.67164  0.64150  0.45482  1.0000
  N   N40       1.0  0.59653  0.49414  0.30533  1.0000
  C   C604      1.0  0.59407  0.51077  0.35226  1.0000
  C   C605      1.0  0.57762  0.47437  0.30815  1.0000
  C   C606      1.0  0.62147  0.48159  0.30321  1.0000
  C   C607      1.0  0.61549  0.52836  0.36232  1.0000
  C   C608      1.0  0.55064  0.48351  0.30462  1.0000
  C   C609      1.0  0.62881  0.46512  0.35004  1.0000
  H   H1033     1.0  0.57604  0.52178  0.26012  1.0000
  H   H1034     1.0  0.60811  0.52320  0.25414  1.0000
  H   H1035     1.0  0.59139  0.49993  0.38830  1.0000
  H   H1036     1.0  0.57724  0.52282  0.34903  1.0000
  H   H1037     1.0  0.58063  0.46027  0.27733  1.0000
  H   H1038     1.0  0.63613  0.49506  0.29661  1.0000
  H   H1039     1.0  0.61105  0.54034  0.39625  1.0000
  H   H1040     1.0  0.63282  0.51812  0.37199  1.0000
  H   H1041     1.0  0.61841  0.54088  0.32911  1.0000
  H   H1042     1.0  0.54579  0.49641  0.33664  1.0000
  H   H1043     1.0  0.53860  0.46729  0.30795  1.0000
  H   H1044     1.0  0.54624  0.49226  0.26676  1.0000
  H   H1045     1.0  0.62332  0.44567  0.34323  1.0000
  H   H1046     1.0  0.62087  0.47158  0.38709  1.0000
  H   H1047     1.0  0.64903  0.46542  0.35567  1.0000
  N   N41       1.0  0.71463  0.60013  0.29037  1.0000
  H   H1048     1.0  0.69719  0.57350  0.33985  1.0000
  Fe  Fe88      1.0  0.65186  0.33635  0.79503  1.0000
  H   H1049     1.0  0.67640  0.60797  0.30791  1.0000
  S   S175      1.0  0.75714  0.39836  0.27545  1.0000
  H   H1050     1.0  0.71427  0.60732  0.40085  1.0000
  H   H1051     1.0  0.75169  0.41756  0.73900  1.0000
  H   H1052     1.0  0.53924  0.33843  0.24721  1.0000
  H   H1053     1.0  0.59333  0.34976  0.10434  1.0000
  C   C610      1.0  0.73092  0.51297  0.40480  1.0000
  C   C611      1.0  0.75449  0.38163  0.42944  1.0000
  C   C612      1.0  0.73784  0.61456  0.28687  1.0000
  H   H1054     1.0  0.71790  0.34211  0.52197  1.0000
  C   C613      1.0  0.51912  0.38117  0.07175  1.0000
  H   H1055     1.0  0.73831  0.53189  0.40789  1.0000
  N   N42       1.0  0.74382  0.46745  0.42475  1.0000
  C   C614      1.0  0.73877  0.45982  0.36947  1.0000
  H   H1056     1.0  0.73976  0.43575  0.89048  1.0000
  N   N43       1.0  0.51136  0.33625  0.81601  1.0000
  C   C615      1.0  0.50953  0.35761  0.77860  1.0000
  H   H1057     1.0  0.57072  0.33539  0.18690  1.0000
  Fe  Fe89      1.0  0.66626  0.90541  0.55041  1.0000
  S   S176      1.0  0.66557  0.90449  0.46247  1.0000
  S   S177      1.0  0.66704  0.87116  0.60247  1.0000
  Fe  Fe90      1.0  0.66194  0.96163  0.55373  1.0000
  S   S178      1.0  0.65960  0.96519  0.46776  1.0000
  H   H1058     1.0  0.57408  0.73401  0.78474  1.0000
  Fe  Fe91      1.0  0.63486  0.93284  0.47076  1.0000
  S   S179      1.0  0.60020  0.93283  0.42196  1.0000
  Fe  Fe92      1.0  0.69069  0.93720  0.46557  1.0000
  S   S180      1.0  0.72376  0.95037  0.41972  1.0000
  S   S181      1.0  0.63440  0.93178  0.55746  1.0000
  S   S182      1.0  0.69437  0.93544  0.55312  1.0000
  Fe  Fe93      1.0  0.58470  0.82313  0.84409  1.0000
  S   S183      1.0  0.58582  0.81924  0.93161  1.0000
  S   S184      1.0  0.59885  0.85636  0.79930  1.0000
  Fe  Fe94      1.0  0.54717  0.78223  0.83338  1.0000
  S   S185      1.0  0.54502  0.77532  0.91888  1.0000
  S   S186      1.0  0.52495  0.76353  0.77132  1.0000
  Fe  Fe95      1.0  0.54482  0.81658  0.92594  1.0000
  H   H1059     1.0  0.75437  0.97930  0.35510  1.0000
  Fe  Fe96      1.0  0.58585  0.77786  0.91802  1.0000
  S   S187      1.0  0.60808  0.74745  0.95978  1.0000
  S   S188      1.0  0.54352  0.82329  0.84047  1.0000
  S   S189      1.0  0.58827  0.78199  0.83069  1.0000
  H   H1060     1.0  0.56007  0.84597  0.71940  1.0000
  H   H1061     1.0  0.51041  0.84487  0.59648  1.0000
  C   C616      1.0  0.74782  0.96418  0.33158  1.0000
  S   S190      1.0  0.57252  0.69113  0.16276  1.0000
  C   C617      1.0  0.62765  0.95682  0.70729  1.0000
  H   H1062     1.0  0.65998  0.97790  0.71474  1.0000
  H   H1063     1.0  0.61262  0.67568  0.93099  1.0000
  C   C618      1.0  0.54126  0.67622  0.85101  1.0000
  C   C619      1.0  0.58100  0.80299  0.66925  1.0000
  H   H1064     1.0  0.70945  0.90907  0.72304  1.0000
  C   C620      1.0  0.59808  0.73203  0.01642  1.0000
  C   C621      1.0  0.61186  0.71163  0.03576  1.0000
  C   C622      1.0  0.60421  0.69861  0.07998  1.0000
  C   C623      1.0  0.58275  0.70602  0.10564  1.0000
  C   C624      1.0  0.56885  0.72628  0.08592  1.0000
  C   C625      1.0  0.57636  0.73913  0.04147  1.0000
  H   H1065     1.0  0.62865  0.70592  0.01661  1.0000
  H   H1066     1.0  0.54748  0.97228  0.43617  1.0000
  N   N44       1.0  0.56297  0.68800  0.87704  1.0000
  H   H1067     1.0  0.56552  0.75468  0.02691  1.0000
  H   H1068     1.0  0.51968  0.89457  0.43231  1.0000
  N   N45       1.0  0.66988  0.94116  0.74336  1.0000
  C   C626      1.0  0.65715  0.92107  0.77247  1.0000
  C   C627      1.0  0.70302  0.91829  0.68711  1.0000
  C   C628      1.0  0.60983  0.68180  0.89017  1.0000
  H   H1069     1.0  0.53562  0.70454  0.99529  1.0000
  H   H1070     1.0  0.53467  0.82542  0.08910  1.0000
  C   C629      1.0  0.51160  0.81700  0.23352  1.0000
  H   H1071     1.0  0.59750  0.83769  0.65007  1.0000
  H   H1072     1.0  0.61097  0.70220  0.88921  1.0000
  C   C630      1.0  0.73207  0.92460  0.27140  1.0000
  C   C631      1.0  0.72284  0.92811  0.32198  1.0000
  C   C632      1.0  0.73109  0.94763  0.35281  1.0000
  H   H1073     1.0  0.54095  0.78138  0.09333  1.0000
  H   H1074     1.0  0.53899  0.87127  0.71203  1.0000
  H   H1075     1.0  0.71013  0.91513  0.33780  1.0000
  H   H1076     1.0  0.72205  0.97482  0.77517  1.0000
  C   C633      1.0  0.64661  0.86617  0.65465  1.0000
  C   C634      1.0  0.62786  0.88326  0.66699  1.0000
  C   C635      1.0  0.61302  0.87950  0.71055  1.0000
  C   C636      1.0  0.61639  0.85843  0.74194  1.0000
  C   C637      1.0  0.63452  0.84082  0.72864  1.0000
  C   C638      1.0  0.64960  0.84475  0.68531  1.0000
  H   H1077     1.0  0.62501  0.89963  0.64361  1.0000
  H   H1078     1.0  0.59903  0.89322  0.72047  1.0000
  H   H1079     1.0  0.63747  0.82459  0.75265  1.0000
  H   H1080     1.0  0.66398  0.83133  0.67608  1.0000
  C   C639      1.0  0.57440  0.92230  0.45491  1.0000
  C   C640      1.0  0.55502  0.91169  0.42726  1.0000
  C   C641      1.0  0.53449  0.90302  0.45365  1.0000
  H   H1081     1.0  0.64057  0.91519  0.75120  1.0000
  C   C642      1.0  0.55241  0.91625  0.53502  1.0000
  C   C643      1.0  0.57274  0.92494  0.50867  1.0000
  H   H1082     1.0  0.55607  0.90984  0.38552  1.0000
  H   H1083     1.0  0.66051  0.88435  0.80588  1.0000
  H   H1084     1.0  0.55138  0.91831  0.57671  1.0000
  H   H1085     1.0  0.58677  0.93432  0.52997  1.0000
  H   H1086     1.0  0.54774  0.72391  0.85481  1.0000
  H   H1087     1.0  0.53704  0.81102  0.63582  1.0000
  H   H1088     1.0  0.67588  0.88685  0.74590  1.0000
  H   H1089     1.0  0.70167  0.90341  0.65744  1.0000
  C   C644      1.0  0.69078  0.95045  0.77621  1.0000
  H   H1090     1.0  0.68402  0.95625  0.81521  1.0000
  C   C645      1.0  0.58553  0.67203  0.86757  1.0000
  H   H1091     1.0  0.67914  0.94838  0.66358  1.0000
  H   H1092     1.0  0.57777  0.72514  0.87893  1.0000
  C   C646      1.0  0.52995  0.81728  0.12739  1.0000
  H   H1093     1.0  0.63103  0.94715  0.67003  1.0000
  C   C647      1.0  0.67193  0.89690  0.78260  1.0000
  C   C648      1.0  0.51908  0.82989  0.57300  1.0000
  C   C649      1.0  0.65169  0.96254  0.73666  1.0000
  H   H1094     1.0  0.53496  0.72320  0.93841  1.0000
  H   H1095     1.0  0.59862  0.79787  0.68900  1.0000
  H   H1096     1.0  0.59431  0.70810  0.79560  1.0000
  H   H1097     1.0  0.71735  0.93069  0.67263  1.0000
  H   H1098     1.0  0.55222  0.73212  0.10543  1.0000
  H   H1099     1.0  0.57164  0.97967  0.48016  1.0000
  H   H1100     1.0  0.61463  0.99403  0.42324  1.0000
  H   H1101     1.0  0.51906  0.69420  0.93947  1.0000
  H   H1102     1.0  0.59913  0.98998  0.36286  1.0000
  H   H1103     1.0  0.72619  0.90896  0.24855  1.0000
  C   C650      1.0  0.67792  0.93230  0.69038  1.0000
  H   H1104     1.0  0.61791  0.97457  0.69771  1.0000
  H   H1105     1.0  0.52955  0.84124  0.69262  1.0000
  H   H1106     1.0  0.54187  0.99951  0.54181  1.0000
  H   H1107     1.0  0.52212  0.83648  0.53295  1.0000
  H   H1108     1.0  0.54491  0.67282  0.80919  1.0000
  N   N46       1.0  0.56322  0.83736  0.60687  1.0000
  C   C651      1.0  0.57036  0.84698  0.55422  1.0000
  C   C652      1.0  0.54279  0.81936  0.59872  1.0000
  C   C653      1.0  0.55520  0.85930  0.63943  1.0000
  C   C654      1.0  0.59343  0.86308  0.55286  1.0000
  H   H1109     1.0  0.53901  0.96709  0.53307  1.0000
  H   H1110     1.0  0.57358  0.83132  0.52664  1.0000
  H   H1111     1.0  0.55533  0.85861  0.53682  1.0000
  H   H1112     1.0  0.69375  0.99014  0.75838  1.0000
  H   H1113     1.0  0.70469  0.93572  0.78470  1.0000
  H   H1114     1.0  0.59707  0.81543  0.59980  1.0000
  H   H1115     1.0  0.57059  0.87207  0.64574  1.0000
  H   H1116     1.0  0.54079  0.87047  0.61873  1.0000
  H   H1117     1.0  0.61028  0.85296  0.56616  1.0000
  H   H1118     1.0  0.59667  0.86876  0.51213  1.0000
  H   H1119     1.0  0.59110  0.88043  0.57547  1.0000
  H   H1120     1.0  0.66521  0.00117  0.39106  1.0000
  H   H1121     1.0  0.57473  0.78617  0.64864  1.0000
  C   C655      1.0  0.53335  0.90518  0.50765  1.0000
  S   S191      1.0  0.65602  0.99413  0.60707  1.0000
  C   C656      1.0  0.58547  0.82420  0.63052  1.0000
  H   H1122     1.0  0.64648  0.97055  0.77503  1.0000
  H   H1123     1.0  0.68897  0.89981  0.80523  1.0000
  C   C657      1.0  0.57489  0.71452  0.79832  1.0000
  H   H1124     1.0  0.53885  0.82937  0.15644  1.0000
  H   H1125     1.0  0.70896  0.97005  0.71203  1.0000
  H   H1126     1.0  0.54937  0.80347  0.57443  1.0000
  C   C658      1.0  0.55291  0.98550  0.46695  1.0000
  H   H1127     1.0  0.61512  0.68311  0.09471  1.0000
  H   H1128     1.0  0.56330  0.70390  0.77116  1.0000
  H   H1129     1.0  0.65054  0.92816  0.81066  1.0000
  H   H1130     1.0  0.56319  0.79420  0.13602  1.0000
  H   H1131     1.0  0.57494  0.70031  0.95265  1.0000
  H   H1132     1.0  0.66390  0.92016  0.67280  1.0000
  H   H1133     1.0  0.61500  0.94606  0.73140  1.0000
  H   H1134     1.0  0.53658  0.78023  0.16273  1.0000
  C   C659      1.0  0.53546  0.98523  0.51380  1.0000
  H   H1135     1.0  0.56770  0.80777  0.69993  1.0000
  S   S192      1.0  0.50841  0.89459  0.54259  1.0000
  H   H1136     1.0  0.52913  0.80614  0.23378  1.0000
  C   C660      1.0  0.54317  0.79168  0.13035  1.0000
  H   H1137     1.0  0.52016  0.86576  0.15686  1.0000
  C   C661      1.0  0.70451  0.97257  0.75358  1.0000
  C   C662      1.0  0.54540  0.85364  0.69374  1.0000
  C   C663      1.0  0.55950  0.69022  0.93477  1.0000
  C   C664      1.0  0.56559  0.71357  0.85459  1.0000
  S   S193      1.0  0.51854  0.83761  0.97785  1.0000
  C   C665      1.0  0.61665  0.99589  0.38075  1.0000
  H   H1138     1.0  0.52490  0.68894  0.85138  1.0000
  H   H1139     1.0  0.62543  0.67482  0.86641  1.0000
  C   C666      1.0  0.74944  0.94065  0.25085  1.0000
  H   H1140     1.0  0.63098  0.98255  0.36702  1.0000
  H   H1141     1.0  0.51567  0.83692  0.23441  1.0000
  H   H1142     1.0  0.56030  0.67171  0.95374  1.0000
  N   N47       1.0  0.50843  0.98902  0.50177  1.0000
  C   C667      1.0  0.53578  0.70382  0.95220  1.0000
  C   C668      1.0  0.75680  0.96085  0.28081  1.0000
  H   H1143     1.0  0.51697  0.96667  0.60696  1.0000
  H   H1144     1.0  0.50966  0.95041  0.47985  1.0000
  Fe  Fe97      1.0  0.87812  0.15542  0.25141  1.0000
  S   S194      1.0  0.84972  0.18339  0.27748  1.0000
  S   S195      1.0  0.86753  0.13057  0.18474  1.0000
  Fe  Fe98      1.0  0.91687  0.17539  0.32443  1.0000
  S   S196      1.0  0.89137  0.20478  0.35598  1.0000
  S   S197      1.0  0.95434  0.17242  0.36170  1.0000
  Fe  Fe99      1.0  0.86383  0.17474  0.35740  1.0000
  S   S198      1.0  0.83914  0.17121  0.42634  1.0000
  Fe  Fe100     1.0  0.88004  0.21072  0.27292  1.0000
  S   S199      1.0  0.87233  0.24924  0.24070  1.0000
  S   S200      1.0  0.89018  0.14470  0.33210  1.0000
  S   S201      1.0  0.90757  0.18336  0.24090  1.0000
  Fe  Fe101     1.0  0.88268  0.09679  0.66159  1.0000
  S   S202      1.0  0.87751  0.13510  0.69379  1.0000
  S   S203      1.0  0.87903  0.08700  0.57675  1.0000
  Fe  Fe102     1.0  0.89275  0.07467  0.76871  1.0000
  S   S204      1.0  0.88821  0.11123  0.80946  1.0000
  S   S205      1.0  0.89922  0.04039  0.81635  1.0000
  Fe  Fe103     1.0  0.85574  0.11699  0.75595  1.0000
  S   S206      1.0  0.81594  0.12630  0.77171  1.0000
  Fe  Fe104     1.0  0.91057  0.12531  0.74335  1.0000
  S   S207      1.0  0.94266  0.15064  0.74964  1.0000
  S   S208      1.0  0.85882  0.07917  0.72030  1.0000
  S   S209      1.0  0.91737  0.08825  0.70640  1.0000
  S   S210      1.0  0.94025  0.29266  0.06614  1.0000
  H   H1145     1.0  0.84625  0.23610  0.05672  1.0000
  H   H1146     1.0  0.81002  0.12517  0.28266  1.0000
  H   H1147     1.0  0.78816  0.03624  0.26730  1.0000
  H   H1148     1.0  0.86712  0.00343  0.86186  1.0000
  C   C669      1.0  0.97740  0.30997  0.48205  1.0000
  H   H1149     1.0  0.90472  0.03477  0.70488  1.0000
  H   H1150     1.0  0.87216  0.20212  0.05913  1.0000
  C   C670      1.0  0.99286  0.14674  0.75879  1.0000
  C   C671      1.0  0.97044  0.13530  0.76736  1.0000
  C   C672      1.0  0.97043  0.11189  0.79055  1.0000
  H   H1151     1.0  0.99403  0.29250  0.07772  1.0000
  H   H1152     1.0  0.95324  0.10302  0.79772  1.0000
  C   C673      1.0  0.97307  0.19636  0.34151  1.0000
  C   C674      1.0  0.82922  0.22888  0.03964  1.0000
  C   C675      1.0  0.79405  0.10392  0.57954  1.0000
  H   H1153     1.0  0.86559  0.05212  0.93196  1.0000
  H   H1154     1.0  0.78959  0.10554  0.31552  1.0000
  C   C676      1.0  0.89112  0.26110  0.19175  1.0000
  C   C677      1.0  0.88569  0.28467  0.17105  1.0000
  C   C678      1.0  0.90072  0.29479  0.13280  1.0000
  C   C679      1.0  0.92094  0.28111  0.11434  1.0000
  C   C680      1.0  0.92616  0.25747  0.13469  1.0000
  C   C681      1.0  0.91151  0.24763  0.17368  1.0000
  H   H1155     1.0  0.86994  0.29521  0.18493  1.0000
  H   H1156     1.0  0.89652  0.31300  0.11719  1.0000
  H   H1157     1.0  0.94183  0.24682  0.12065  1.0000
  H   H1158     1.0  0.91604  0.22960  0.18953  1.0000
  C   C682      1.0  0.84810  0.14685  0.46780  1.0000
  C   C683      1.0  0.84744  0.15052  0.52152  1.0000
  C   C684      1.0  0.85648  0.13202  0.55524  1.0000
  C   C685      1.0  0.86562  0.10955  0.53552  1.0000
  C   C686      1.0  0.86513  0.10541  0.48185  1.0000
  C   C687      1.0  0.85660  0.12412  0.44796  1.0000
  H   H1159     1.0  0.84080  0.16806  0.53698  1.0000
  H   H1160     1.0  0.85649  0.13526  0.59640  1.0000
  H   H1161     1.0  0.87195  0.08795  0.46633  1.0000
  H   H1162     1.0  0.85667  0.12096  0.40653  1.0000
  C   C688      1.0  0.86080  0.09981  0.20005  1.0000
  C   C689      1.0  0.86270  0.09101  0.25089  1.0000
  C   C690      1.0  0.85689  0.06642  0.26198  1.0000
  C   C691      1.0  0.84896  0.05062  0.22237  1.0000
  C   C692      1.0  0.84689  0.05947  0.17151  1.0000
  C   C693      1.0  0.85288  0.08401  0.16045  1.0000
  H   H1163     1.0  0.86866  0.10305  0.28172  1.0000
  H   H1164     1.0  0.85841  0.05967  0.30142  1.0000
  H   H1165     1.0  0.84058  0.04744  0.14088  1.0000
  H   H1166     1.0  0.85142  0.09087  0.12127  1.0000
  C   C694      1.0  0.82260  0.15216  0.86299  1.0000
  C   C695      1.0  0.80663  0.13881  0.83145  1.0000
  C   C696      1.0  0.78231  0.13587  0.84681  1.0000
  S   S211      1.0  0.90398  0.32017  0.49717  1.0000
  H   H1167     1.0  0.84135  0.15466  0.85103  1.0000
  H   H1168     1.0  0.89483  0.30144  0.61695  1.0000
  H   H1169     1.0  0.80742  0.25731  0.17565  1.0000
  H   H1170     1.0  0.79386  0.05281  0.18938  1.0000
  S   S212      1.0  0.79152  0.01888  0.99894  1.0000
  C   C697      1.0  0.95252  0.31682  0.72313  1.0000
  H   H1171     1.0  0.88676  0.06928  0.00781  1.0000
  H   H1172     1.0  0.95541  0.05120  0.76600  1.0000
  H   H1173     1.0  0.82589  0.08078  0.59936  1.0000
  H   H1174     1.0  0.76795  0.08557  0.10655  1.0000
  C   C698      1.0  0.85394  0.05638  0.96613  1.0000
  H   H1175     1.0  0.79993  0.08725  0.12611  1.0000
  H   H1176     1.0  0.80670  0.11600  0.55859  1.0000
  H   H1177     1.0  0.92201  0.25702  0.38613  1.0000
  C   C699      1.0  0.82241  0.08436  0.00358  1.0000
  C   C700      1.0  0.90707  0.01487  0.77719  1.0000
  H   H1178     1.0  0.96016  0.19607  0.26230  1.0000
  H   H1179     1.0  0.77782  0.13006  0.27338  1.0000
  C   C701      1.0  0.77761  0.06448  0.17787  1.0000
  C   C702      1.0  0.75916  0.13274  0.55806  1.0000
  H   H1180     1.0  0.92665  0.32680  0.60371  1.0000
  C   C703      1.0  0.92527  0.32370  0.64623  1.0000
  H   H1181     1.0  0.94514  0.28783  0.47540  1.0000
  C   C704      1.0  0.82223  0.07530  0.91123  1.0000
  H   H1182     1.0  0.83283  0.08549  0.04028  1.0000
  H   H1183     1.0  0.81605  0.12471  0.99246  1.0000
  H   H1184     1.0  0.88624  0.32409  0.66315  1.0000
  H   H1185     1.0  0.78418  0.12395  0.68057  1.0000
  C   C705      1.0  0.81409  0.16276  0.90955  1.0000
  C   C706      1.0  0.77888  0.13485  0.64541  1.0000
  S   S213      1.0  0.84054  0.02040  0.23794  1.0000
  C   C707      1.0  0.78281  0.05196  0.29293  1.0000
  C   C708      1.0  0.99266  0.10023  0.80590  1.0000
  H   H1186     1.0  0.77925  0.22331  0.88796  1.0000
  N   N48       1.0  0.93621  0.29676  0.31867  1.0000
  C   C709      1.0  0.93646  0.26910  0.31002  1.0000
  C   C710      1.0  0.93240  0.30905  0.26663  1.0000
  C   C711      1.0  0.91499  0.30323  0.35416  1.0000
  H   H1187     1.0  0.98607  0.23073  0.23521  1.0000
  C   C712      1.0  0.93745  0.25300  0.35952  1.0000
  C   C713      1.0  0.97972  0.02025  0.78701  1.0000
  C   C714      1.0  0.76464  0.03644  0.01111  1.0000
  C   C715      1.0  0.93303  0.30790  0.76110  1.0000
  H   H1188     1.0  0.91994  0.26363  0.28742  1.0000
  H   H1189     1.0  0.95251  0.26299  0.28664  1.0000
  H   H1190     1.0  0.76621  0.32559  0.53358  1.0000
  H   H1191     1.0  0.91441  0.30375  0.24975  1.0000
  N   N49       1.0  0.77146  0.08306  0.21986  1.0000
  H   H1192     1.0  0.92061  0.30105  0.39547  1.0000
  H   H1193     1.0  0.96284  0.29419  0.38138  1.0000
  H   H1194     1.0  0.96330  0.01089  0.80206  1.0000
  H   H1195     1.0  0.93603  0.23334  0.34783  1.0000
  H   H1196     1.0  0.95512  0.25451  0.38069  1.0000
  H   H1197     1.0  0.80849  0.15791  0.67275  1.0000
  C   C716      1.0  0.95210  0.30339  0.22548  1.0000
  C   C717      1.0  0.90255  0.32911  0.34832  1.0000
  H   H1198     1.0  0.93141  0.32951  0.27025  1.0000
  C   C718      1.0  0.98312  0.15341  0.53207  1.0000
  H   H1199     1.0  0.81335  0.14712  0.60947  1.0000
  C   C719      1.0  0.97002  0.32092  0.63711  1.0000
  H   H1200     1.0  0.99000  0.29478  0.47327  1.0000
  S   S214      1.0  0.77954  0.17300  0.98340  1.0000
  H   H1201     1.0  0.82145  0.14568  0.13493  1.0000
  H   H1202     1.0  0.96261  0.11487  0.49146  1.0000
  C   C720      1.0  0.96474  0.33093  0.35269  1.0000
  H   H1203     1.0  0.99301  0.16484  0.74094  1.0000
  H   H1204     1.0  0.80054  0.07505  0.63981  1.0000
  C   C721      1.0  0.80574  0.10789  0.00123  1.0000
  C   C722      1.0  0.78374  0.07532  0.12438  1.0000
  C   C723      1.0  0.90087  0.31016  0.65387  1.0000
  C   C724      1.0  0.90859  0.01712  0.72328  1.0000
  C   C725      1.0  0.79233  0.11551  0.27860  1.0000
  H   H1205     1.0  0.79880  0.20741  0.06302  1.0000
  H   H1206     1.0  0.96604  0.27492  0.67514  1.0000
  H   H1207     1.0  0.89132  0.33015  0.31218  1.0000
  H   H1208     1.0  0.76258  0.14593  0.65833  1.0000
  H   H1209     1.0  0.89468  0.17454  0.54833  1.0000
  H   H1210     1.0  0.81019  0.08537  0.23780  1.0000
  H   H1211     1.0  0.90079  0.29639  0.68537  1.0000
  H   H1212     1.0  0.98720  0.03068  0.82069  1.0000
  C   C726      1.0  0.00209  0.23586  0.31114  1.0000
  C   C727      1.0  0.94668  0.27448  0.60190  1.0000
  H   H1213     1.0  0.91881  0.09794  0.49364  1.0000
  H   H1214     1.0  0.84171  0.04031  0.97081  1.0000
  H   H1215     1.0  0.79088  0.22973  0.18550  1.0000
  H   H1216     1.0  0.86987  0.09543  0.91893  1.0000
  H   H1217     1.0  0.93403  0.27436  0.68024  1.0000
  C   C728      1.0  0.94879  0.28336  0.65871  1.0000
  H   H1218     1.0  0.79945  0.06180  0.30547  1.0000
  C   C729      1.0  0.98679  0.22434  0.27498  1.0000
  C   C730      1.0  0.98859  0.20766  0.37751  1.0000
  H   H1219     1.0  0.79706  0.11094  0.03956  1.0000
  H   H1220     1.0  0.98170  0.13940  0.56320  1.0000
  H   H1221     1.0  0.98895  0.20152  0.41735  1.0000
  C   C731      1.0  0.77395  0.14608  0.89366  1.0000
  H   H1222     1.0  0.82060  0.06848  0.82814  1.0000
  H   H1223     1.0  0.78801  0.09026  0.54983  1.0000
  H   H1224     1.0  0.81495  0.24391  0.03847  1.0000
  H   H1225     1.0  0.88980  0.33224  0.38122  1.0000
  H   H1226     1.0  0.81087  0.05875  0.91784  1.0000
  H   H1227     1.0  0.79043  0.10607  0.97299  1.0000
  H   H1228     1.0  0.96051  0.17386  0.47723  1.0000
  H   H1229     1.0  0.80403  0.15813  0.08029  1.0000
  C   C732      1.0  0.83488  0.07162  0.85834  1.0000
  C   C733      1.0  0.96046  0.30327  0.34311  1.0000
  C   C734      1.0  0.97207  0.20478  0.29028  1.0000
  H   H1230     1.0  0.84450  0.08844  0.84645  1.0000
  H   H1231     1.0  0.93082  0.28759  0.76021  1.0000
  H   H1232     1.0  0.97060  0.30900  0.73653  1.0000
  N   N50       1.0  0.83882  0.07984  0.95750  1.0000
  C   C735      1.0  0.78974  0.15972  0.92490  1.0000
  C   C736      1.0  0.79397  0.09782  0.23159  1.0000
  H   H1233     1.0  0.93165  0.28419  0.58031  1.0000
  N   N51       1.0  0.77215  0.11817  0.60078  1.0000
  C   C737      1.0  0.87182  0.05599  0.01279  1.0000
  H   H1234     1.0  0.84413  0.11583  0.92409  1.0000
  H   H1235     1.0  0.85912  0.13387  0.99635  1.0000
  H   H1236     1.0  0.88682  0.11697  0.98459  1.0000
  C   C738      1.0  0.86698  0.11479  0.99234  1.0000
  C   C739      1.0  0.00323  0.29327  0.11631  1.0000
  N   N52       1.0  0.93777  0.14567  0.50985  1.0000
  C   C740      1.0  0.94678  0.12531  0.47390  1.0000
  C   C741      1.0  0.95786  0.16422  0.51491  1.0000
  C   C742      1.0  0.91571  0.15804  0.48418  1.0000
  C   C743      1.0  0.93102  0.13430  0.56118  1.0000
  C   C744      1.0  0.92795  0.10557  0.45914  1.0000
  H   H1237     1.0  0.94278  0.25440  0.60129  1.0000
  C   C745      1.0  0.90395  0.18038  0.51250  1.0000
  C   C746      1.0  0.93345  0.15060  0.61016  1.0000
  H   H1238     1.0  0.84762  0.05537  0.85721  1.0000
  H   H1239     1.0  0.77491  0.04373  0.32831  1.0000
  H   H1240     1.0  0.95293  0.17921  0.54268  1.0000
  C   C747      1.0  0.95203  0.30608  0.48329  1.0000
  H   H1241     1.0  0.92029  0.16425  0.44434  1.0000
  H   H1242     1.0  0.90069  0.14479  0.47915  1.0000
  H   H1243     1.0  0.91183  0.12791  0.55987  1.0000
  H   H1244     1.0  0.94230  0.11723  0.56936  1.0000
  H   H1245     1.0  0.91402  0.11295  0.43115  1.0000
  H   H1246     1.0  0.99246  0.08241  0.82484  1.0000
  H   H1247     1.0  0.86258  0.05883  0.05043  1.0000
  H   H1248     1.0  0.98739  0.31098  0.64869  1.0000
  H   H1249     1.0  0.77243  0.06431  0.95434  1.0000
  H   H1250     1.0  0.89969  0.29012  0.34830  1.0000
  H   H1251     1.0  0.97598  0.29584  0.31955  1.0000
  H   H1252     1.0  0.88929  0.18855  0.48706  1.0000
  H   H1253     1.0  0.95257  0.28366  0.21355  1.0000
  H   H1254     1.0  0.95285  0.15376  0.62088  1.0000
  H   H1255     1.0  0.92553  0.14059  0.64329  1.0000
  H   H1256     1.0  0.92356  0.16863  0.60722  1.0000
  N   N53       1.0  0.82685  0.20063  0.12139  1.0000
  C   C748      1.0  0.80817  0.18425  0.14618  1.0000
  C   C749      1.0  0.82793  0.22393  0.15373  1.0000
  C   C750      1.0  0.85137  0.18712  0.12415  1.0000
  C   C751      1.0  0.81917  0.20547  0.06583  1.0000
  C   C752      1.0  0.80582  0.15798  0.12308  1.0000
  C   C753      1.0  0.80358  0.23886  0.15859  1.0000
  C   C754      1.0  0.87351  0.20047  0.10192  1.0000
  C   C755      1.0  0.79883  0.15392  0.63561  1.0000
  H   H1257     1.0  0.81213  0.18196  0.18845  1.0000
  H   H1258     1.0  0.78944  0.19288  0.14350  1.0000
  H   H1259     1.0  0.84173  0.23691  0.13966  1.0000
  H   H1260     1.0  0.83421  0.21938  0.19391  1.0000
  H   H1261     1.0  0.85604  0.18242  0.16511  1.0000
  H   H1262     1.0  0.85087  0.16921  0.10285  1.0000
  H   H1263     1.0  0.82426  0.18927  0.04096  1.0000
  H   H1264     1.0  0.79068  0.17148  0.62013  1.0000
  C   C756      1.0  0.81028  0.08995  0.61981  1.0000
  H   H1265     1.0  0.77462  0.25968  0.83227  1.0000
  C   C757      1.0  0.96986  0.03948  0.74724  1.0000
  H   H1266     1.0  0.88089  0.03737  0.01516  1.0000
  H   H1267     1.0  0.79879  0.10952  0.19796  1.0000
  C   C758      1.0  0.77526  0.14527  0.51727  1.0000
  H   H1268     1.0  0.89036  0.18910  0.11029  1.0000
  H   H1269     1.0  0.87642  0.21874  0.12012  1.0000
  C   C759      1.0  0.85491  0.10138  0.94572  1.0000
  H   H1270     1.0  0.81835  0.10273  0.64868  1.0000
  H   H1271     1.0  0.82640  0.17332  0.93363  1.0000
  H   H1272     1.0  0.93754  0.08987  0.43934  1.0000
  H   H1273     1.0  0.93891  0.31266  0.80125  1.0000
  H   H1274     1.0  0.78851  0.05976  0.09780  1.0000
  H   H1275     1.0  0.91700  0.19530  0.52054  1.0000
  H   H1276     1.0  0.95363  0.13321  0.43702  1.0000
  H   H1277     1.0  0.91518  0.31776  0.75475  1.0000
  H   H1278     1.0  0.81041  0.06828  0.00945  1.0000
  H   H1279     1.0  0.86579  0.10542  0.03018  1.0000
  H   H1280     1.0  0.99273  0.14480  0.49858  1.0000
  H   H1281     1.0  0.80912  0.09112  0.90499  1.0000
  H   H1282     1.0  0.79433  0.24195  0.12065  1.0000
  H   H1283     1.0  0.78798  0.25287  0.91522  1.0000
  H   H1284     1.0  0.96786  0.31756  0.59478  1.0000
  H   H1285     1.0  0.78398  0.13137  0.49098  1.0000
  H   H1286     1.0  0.83329  0.22450  0.99842  1.0000
  N   N54       1.0  0.94846  0.31108  0.66642  1.0000
  H   H1287     1.0  0.96419  0.27670  0.58101  1.0000
  H   H1288     1.0  0.98348  0.33308  0.36913  1.0000
  C   C760      1.0  0.00286  0.22760  0.36245  1.0000
  H   H1289     1.0  0.94760  0.31428  0.18996  1.0000
  C   C761      1.0  0.98644  0.33338  0.49350  1.0000
  H   H1290     1.0  0.78903  0.14955  0.13855  1.0000
  H   H1291     1.0  0.98425  0.05216  0.73436  1.0000
  H   H1292     1.0  0.76990  0.12556  0.82246  1.0000
  H   H1293     1.0  0.96122  0.03070  0.71301  1.0000
  H   H1294     1.0  0.97053  0.30891  0.23862  1.0000
  H   H1295     1.0  0.78614  0.22542  0.95421  1.0000
  H   H1296     1.0  0.78952  0.15699  0.53451  1.0000
  C   C762      1.0  0.76015  0.05866  0.98430  1.0000
  H   H1297     1.0  0.98933  0.30048  0.14388  1.0000
  H   H1298     1.0  0.99470  0.16853  0.54705  1.0000
  C   C763      1.0  0.77738  0.23589  0.92164  1.0000
  H   H1299     1.0  0.76301  0.08767  0.65156  1.0000
  C   C764      1.0  0.93561  0.32565  0.49506  1.0000
  C   C765      1.0  0.76327  0.06922  0.26709  1.0000
  H   H1300     1.0  0.76250  0.05121  0.17216  1.0000
  H   H1301     1.0  0.76343  0.15746  0.49237  1.0000
  H   H1302     1.0  0.84477  0.01560  0.78450  1.0000
  Fe  Fe105     1.0  0.94029  0.33281  0.04148  1.0000
  H   H1303     1.0  0.88034  0.00613  0.94137  1.0000
  H   H1304     1.0  0.83606  0.01159  0.87576  1.0000
  H   H1305     1.0  0.76079  0.28716  0.80582  1.0000
  Fe  Fe106     1.0  0.88017  0.35124  0.52968  1.0000
  C   C766      1.0  0.97002  0.35289  0.50552  1.0000
  H   H1306     1.0  0.81280  0.36238  0.83928  1.0000
  Fe  Fe107     1.0  0.87238  0.40591  0.54830  1.0000
  S   S215      1.0  0.83831  0.40092  0.59395  1.0000
  S   S216      1.0  0.88694  0.44371  0.53480  1.0000
  Fe  Fe108     1.0  0.85923  0.36959  0.63177  1.0000
  C   C767      1.0  0.94465  0.34910  0.50586  1.0000
  Fe  Fe109     1.0  0.82822  0.37383  0.53176  1.0000
  S   S217      1.0  0.78796  0.37365  0.50836  1.0000
  S   S218      1.0  0.89439  0.37678  0.59105  1.0000
  S   S219      1.0  0.86108  0.38114  0.48256  1.0000
  Fe  Fe110     1.0  0.93777  0.58766  0.96588  1.0000
  S   S220      1.0  0.93720  0.58786  0.05244  1.0000
  S   S221      1.0  0.97151  0.59808  0.92205  1.0000
  Fe  Fe111     1.0  0.88396  0.57281  0.95506  1.0000
  S   S222      1.0  0.87921  0.57277  0.04264  1.0000
  S   S223      1.0  0.85737  0.55416  0.89782  1.0000
  Fe  Fe112     1.0  0.90119  0.60792  0.04374  1.0000
  S   S224      1.0  0.89693  0.64407  0.08988  1.0000
  Fe  Fe113     1.0  0.91599  0.55303  0.04482  1.0000
  S   S225      1.0  0.92952  0.52167  0.09626  1.0000
  S   S226      1.0  0.90261  0.60968  0.95596  1.0000
  S   S227      1.0  0.91980  0.55109  0.95854  1.0000
  H   H1307     1.0  0.86912  0.47956  0.17865  1.0000
  H   H1308     1.0  0.98031  0.62443  0.05210  1.0000
  Fe  Fe114     1.0  0.92248  0.38644  0.04014  1.0000
  S   S228      1.0  0.95395  0.39926  0.99249  1.0000
  S   S229      1.0  0.89173  0.41325  0.06056  1.0000
  Fe  Fe115     1.0  0.94696  0.36515  0.94525  1.0000
  S   S230      1.0  0.95080  0.36831  0.85830  1.0000
  Fe  Fe116     1.0  0.97698  0.37440  0.04378  1.0000
  H   H1309     1.0  0.89761  0.46180  0.18508  1.0000
  S   S231      1.0  0.91383  0.35381  0.98929  1.0000
  S   S232      1.0  0.94612  0.36447  0.09637  1.0000
  H   H1310     1.0  0.89778  0.49411  0.78760  1.0000
  H   H1311     1.0  0.79595  0.43764  0.19806  1.0000
  S   S233      1.0  0.79925  0.52020  0.50140  1.0000
  C   C768      1.0  0.97445  0.34896  0.64242  1.0000
  S   S234      1.0  0.78802  0.58853  0.70710  1.0000
  C   C769      1.0  0.93704  0.63866  0.22481  1.0000
  C   C770      1.0  0.83837  0.56449  0.84493  1.0000
  C   C771      1.0  0.83674  0.58926  0.82910  1.0000
  C   C772      1.0  0.82118  0.59633  0.78717  1.0000
  C   C773      1.0  0.80712  0.57880  0.76034  1.0000
  C   C774      1.0  0.80893  0.55401  0.77597  1.0000
  C   C775      1.0  0.82442  0.54695  0.81787  1.0000
  H   H1312     1.0  0.84726  0.60301  0.84947  1.0000
  H   H1313     1.0  0.81992  0.61557  0.77562  1.0000
  H   H1314     1.0  0.79813  0.54030  0.75627  1.0000
  H   H1315     1.0  0.82532  0.52780  0.82983  1.0000
  C   C776      1.0  0.92485  0.63253  0.17817  1.0000
  H   H1316     1.0  0.92440  0.61344  0.16544  1.0000
  H   H1317     1.0  0.81092  0.57927  0.59579  1.0000
  C   C777      1.0  0.91863  0.49177  0.08560  1.0000
  C   C778      1.0  0.93488  0.47142  0.09110  1.0000
  C   C779      1.0  0.92673  0.44727  0.08330  1.0000
  C   C780      1.0  0.90208  0.44333  0.07152  1.0000
  C   C781      1.0  0.88560  0.46359  0.06766  1.0000
  C   C782      1.0  0.89395  0.48786  0.07369  1.0000
  H   H1318     1.0  0.95393  0.47439  0.10087  1.0000
  H   H1319     1.0  0.93949  0.43171  0.08705  1.0000
  H   H1320     1.0  0.86645  0.46057  0.05902  1.0000
  H   H1321     1.0  0.88129  0.50354  0.07011  1.0000
  C   C783      1.0  0.76233  0.40493  0.76518  1.0000
  C   C784      1.0  0.95204  0.65718  0.99506  1.0000
  C   C785      1.0  0.86905  0.42132  0.19857  1.0000
  H   H1322     1.0  0.98450  0.57387  0.01930  1.0000
  C   C786      1.0  0.86283  0.46551  0.52807  1.0000
  C   C787      1.0  0.86346  0.48273  0.48781  1.0000
  C   C788      1.0  0.84381  0.49951  0.48020  1.0000
  C   C789      1.0  0.82380  0.49959  0.51368  1.0000
  C   C790      1.0  0.82352  0.48306  0.55533  1.0000
  C   C791      1.0  0.84297  0.46582  0.56219  1.0000
  H   H1323     1.0  0.87887  0.48264  0.46168  1.0000
  H   H1324     1.0  0.84409  0.51242  0.44818  1.0000
  H   H1325     1.0  0.80815  0.48324  0.58155  1.0000
  H   H1326     1.0  0.84281  0.45308  0.59433  1.0000
  C   C792      1.0  0.77946  0.38036  0.44355  1.0000
  H   H1327     1.0  0.90870  0.45130  0.83184  1.0000
  H   H1328     1.0  0.80846  0.41792  0.24703  1.0000
  C   C793      1.0  0.78994  0.38994  0.35463  1.0000
  C   C794      1.0  0.79713  0.38462  0.40596  1.0000
  H   H1329     1.0  0.93216  0.36439  0.51433  1.0000
  C   C795      1.0  0.91280  0.65097  0.14880  1.0000
  H   H1330     1.0  0.81636  0.38347  0.41625  1.0000
  C   C796      1.0  0.88169  0.36514  0.75705  1.0000
  H   H1331     1.0  0.95321  0.33712  0.72975  1.0000
  C   C797      1.0  0.90234  0.35766  0.83993  1.0000
  C   C798      1.0  0.92378  0.36770  0.82066  1.0000
  C   C799      1.0  0.92401  0.37683  0.76984  1.0000
  C   C800      1.0  0.90297  0.37569  0.73822  1.0000
  C   C801      1.0  0.79091  0.42541  0.67370  1.0000
  C   C802      1.0  0.83312  0.44730  0.22028  1.0000
  H   H1332     1.0  0.87308  0.41593  0.30369  1.0000
  H   H1333     1.0  0.90325  0.38304  0.69937  1.0000
  C   C803      1.0  0.84126  0.43497  0.33351  1.0000
  H   H1334     1.0  0.83622  0.57278  0.55416  1.0000
  H   H1335     1.0  0.90552  0.40845  0.17473  1.0000
  H   H1336     1.0  0.90206  0.35032  0.87884  1.0000
  H   H1337     1.0  0.78271  0.45801  0.42672  1.0000
  H   H1338     1.0  0.88331  0.39914  0.91095  1.0000
  H   H1339     1.0  0.94610  0.63836  0.00532  1.0000
  N   N55       1.0  0.86331  0.54599  0.64108  1.0000
  C   C804      1.0  0.86690  0.51820  0.64379  1.0000
  C   C805      1.0  0.87987  0.55524  0.59916  1.0000
  C   C806      1.0  0.83672  0.55165  0.62705  1.0000
  C   C807      1.0  0.86958  0.55654  0.69369  1.0000
  C   C808      1.0  0.84982  0.50454  0.68099  1.0000
  C   C809      1.0  0.90754  0.54938  0.60629  1.0000
  C   C810      1.0  0.83098  0.57539  0.59539  1.0000
  C   C811      1.0  0.86941  0.58493  0.69820  1.0000
  H   H1340     1.0  0.86458  0.50983  0.60450  1.0000
  H   H1341     1.0  0.88586  0.51299  0.65664  1.0000
  H   H1342     1.0  0.87811  0.57562  0.59461  1.0000
  H   H1343     1.0  0.87428  0.54738  0.56084  1.0000
  H   H1344     1.0  0.82897  0.53651  0.60290  1.0000
  H   H1345     1.0  0.82524  0.55258  0.66250  1.0000
  H   H1346     1.0  0.85646  0.55030  0.72339  1.0000
  H   H1347     1.0  0.88790  0.54954  0.70718  1.0000
  H   H1348     1.0  0.83019  0.50781  0.67142  1.0000
  H   H1349     1.0  0.85346  0.48429  0.67723  1.0000
  H   H1350     1.0  0.85328  0.50948  0.72215  1.0000
  H   H1351     1.0  0.91191  0.52933  0.60163  1.0000
  H   H1352     1.0  0.91769  0.55896  0.57536  1.0000
  H   H1353     1.0  0.91474  0.55620  0.64391  1.0000
  H   H1354     1.0  0.83974  0.59208  0.61099  1.0000
  H   H1355     1.0  0.88272  0.59348  0.67196  1.0000
  H   H1356     1.0  0.87481  0.59003  0.73846  1.0000
  H   H1357     1.0  0.85077  0.59300  0.69183  1.0000
  C   C812      1.0  0.90554  0.49062  0.82698  1.0000
  H   H1358     1.0  0.95759  0.63347  0.09741  1.0000
  H   H1359     1.0  0.96709  0.65581  0.96654  1.0000
  H   H1360     1.0  0.89972  0.50703  0.84986  1.0000
  C   C813      1.0  0.89487  0.41029  0.21114  1.0000
  H   H1361     1.0  0.85747  0.40510  0.19018  1.0000
  H   H1362     1.0  0.88917  0.45380  0.27842  1.0000
  S   S235      1.0  0.97287  0.34132  0.99253  1.0000
  H   H1363     1.0  0.98904  0.60442  0.13250  1.0000
  H   H1364     1.0  0.81812  0.41451  0.18026  1.0000
  H   H1365     1.0  0.94583  0.62412  0.24764  1.0000
  H   H1366     1.0  0.77875  0.35560  0.78023  1.0000
  S   S236      1.0  0.77956  0.52362  0.65178  1.0000
  H   H1367     1.0  0.92307  0.34247  0.66363  1.0000
  C   C814      1.0  0.87338  0.45927  0.25292  1.0000
  H   H1368     1.0  0.80856  0.41627  0.74588  1.0000
  C   C815      1.0  0.88371  0.47322  0.20608  1.0000
  S   S237      1.0  0.85547  0.36220  0.71749  1.0000
  H   H1369     1.0  0.86292  0.47330  0.27617  1.0000
  C   C816      1.0  0.97707  0.63621  0.08686  1.0000
  H   H1370     1.0  0.79372  0.38963  0.84309  1.0000
  C   C817      1.0  0.76673  0.37677  0.69087  1.0000
  H   H1371     1.0  0.78730  0.44299  0.51376  1.0000
  H   H1372     1.0  0.82196  0.43995  0.32345  1.0000
  H   H1373     1.0  0.96373  0.34192  0.31650  1.0000
  H   H1374     1.0  0.89320  0.48998  0.22003  1.0000
  H   H1375     1.0  0.95016  0.48146  0.95912  1.0000
  H   H1376     1.0  0.94050  0.38481  0.75486  1.0000
  H   H1377     1.0  0.84074  0.42200  0.36688  1.0000
  C   C818      1.0  0.79230  0.36947  0.76802  1.0000
  H   H1378     1.0  0.86956  0.43102  0.16053  1.0000
  N   N56       1.0  0.98105  0.66308  0.07428  1.0000
  C   C819      1.0  0.80584  0.37871  0.81693  1.0000
  C   C820      1.0  0.00018  0.58366  0.00567  1.0000
  H   H1379     1.0  0.80616  0.35862  0.74570  1.0000
  C   C821      1.0  0.76503  0.39151  0.34054  1.0000
  C   C822      1.0  0.88132  0.35643  0.80820  1.0000
  C   C823      1.0  0.99898  0.59613  0.95818  1.0000
  Fe  Fe117     1.0  0.76511  0.56262  0.65660  1.0000
  S   S238      1.0  0.84630  0.34170  0.57373  1.0000
  H   H1380     1.0  0.80664  0.43694  0.66292  1.0000
  H   H1381     1.0  0.89355  0.39171  0.22916  1.0000
  H   H1382     1.0  0.84526  0.40451  0.27921  1.0000
  N   N57       1.0  0.89360  0.46319  0.90535  1.0000
  C   C824      1.0  0.88068  0.43931  0.91596  1.0000
  C   C825      1.0  0.87829  0.48392  0.92900  1.0000
  C   C826      1.0  0.91858  0.46135  0.93132  1.0000
  C   C827      1.0  0.89596  0.46586  0.84742  1.0000
  C   C828      1.0  0.89441  0.41521  0.89966  1.0000
  C   C829      1.0  0.85243  0.48807  0.90535  1.0000
  C   C830      1.0  0.93130  0.48576  0.94455  1.0000
  C   C831      1.0  0.79975  0.40581  0.71383  1.0000
  H   H1383     1.0  0.87666  0.43761  0.95816  1.0000
  H   H1384     1.0  0.86265  0.43888  0.89559  1.0000
  H   H1385     1.0  0.88731  0.50205  0.92710  1.0000
  H   H1386     1.0  0.87601  0.48068  0.97114  1.0000
  H   H1387     1.0  0.91749  0.45134  0.96895  1.0000
  H   H1388     1.0  0.93164  0.45014  0.90735  1.0000
  H   H1389     1.0  0.77659  0.43822  0.68933  1.0000
  H   H1390     1.0  0.87832  0.46212  0.82702  1.0000
  C   C832      1.0  0.85478  0.42204  0.28817  1.0000
  H   H1391     1.0  0.89687  0.41400  0.85708  1.0000
  H   H1392     1.0  0.91237  0.41273  0.91963  1.0000
  H   H1393     1.0  0.84344  0.50413  0.92517  1.0000
  H   H1394     1.0  0.85316  0.49276  0.86357  1.0000
  H   H1395     1.0  0.84041  0.47217  0.91162  1.0000
  C   C833      1.0  0.77014  0.45367  0.50435  1.0000
  H   H1396     1.0  0.92175  0.49575  0.97642  1.0000
  C   C834      1.0  0.76208  0.59945  0.28139  1.0000
  H   H1397     1.0  0.78411  0.41685  0.63731  1.0000
  H   H1398     1.0  0.98890  0.35411  0.61458  1.0000
  H   H1399     1.0  0.79211  0.34566  0.67021  1.0000
  N   N58       1.0  0.85761  0.43745  0.24003  1.0000
  H   H1400     1.0  0.99926  0.35813  0.89541  1.0000
  H   H1401     1.0  0.92586  0.48995  0.82431  1.0000
  N   N59       1.0  0.78031  0.38923  0.73452  1.0000
  H   H1402     1.0  0.85090  0.45163  0.34729  1.0000
  H   H1403     1.0  0.81486  0.39467  0.69608  1.0000
  H   H1404     1.0  0.83529  0.45699  0.18262  1.0000
  H   H1405     1.0  0.77708  0.60950  0.30112  1.0000
  H   H1406     1.0  0.97695  0.37104  0.51438  1.0000
  H   H1407     1.0  0.82213  0.38951  0.80676  1.0000
  C   C835      1.0  0.81313  0.42795  0.21119  1.0000
  H   H1408     1.0  0.80375  0.39264  0.32562  1.0000
  H   H1409     1.0  0.93294  0.49816  0.91087  1.0000
  H   H1410     1.0  0.82531  0.46162  0.24698  1.0000
  H   H1411     1.0  0.90590  0.42207  0.23703  1.0000
  C   C836      1.0  0.78256  0.36180  0.65197  1.0000
  H   H1412     1.0  0.86489  0.34827  0.82303  1.0000
  Fe  Fe118     1.0  0.77298  0.52760  0.56637  1.0000
  H   H1413     1.0  0.99250  0.40326  0.89103  1.0000
  C   C837      1.0  0.99237  0.62463  0.13160  1.0000
  H   H1414     1.0  0.79598  0.37337  0.63203  1.0000
  H   H1415     1.0  0.95785  0.36035  0.63259  1.0000
  H   H1416     1.0  0.76692  0.59708  0.23988  1.0000
  H   H1417     1.0  0.77038  0.35442  0.62114  1.0000
  H   H1418     1.0  0.76197  0.58110  0.30018  1.0000
  H   H1419     1.0  0.99995  0.34546  0.23977  1.0000
  H   H1420     1.0  0.98643  0.63206  0.16981  1.0000
  H   H1421     1.0  0.98143  0.35391  0.68153  1.0000
  H   H1422     1.0  0.76096  0.48584  0.32489  1.0000
  H   H1423     1.0  0.77675  0.45676  0.34064  1.0000
  H   H1424     1.0  0.77200  0.41739  0.79259  1.0000
  H   H1425     1.0  0.95195  0.33867  0.38199  1.0000
  H   H1426     1.0  0.99941  0.35000  0.80808  1.0000
  H   H1427     1.0  0.91557  0.34443  0.34882  1.0000
  H   H1428     1.0  0.99690  0.34243  0.17101  1.0000
  H   H1429     1.0  0.77275  0.47289  0.51786  1.0000
  C   C838      1.0  0.93778  0.66332  0.24246  1.0000
  S   S239      1.0  0.76090  0.56736  0.56960  1.0000
  H   H1430     1.0  0.00451  0.39218  0.83117  1.0000
  H   H1431     1.0  0.76370  0.43242  0.43494  1.0000
  H   H1432     1.0  0.93609  0.66639  0.97526  1.0000
  H   H1433     1.0  0.76803  0.49791  0.40953  1.0000
  C   C839      1.0  0.76541  0.45228  0.44526  1.0000
  C   C840      1.0  0.00336  0.66585  0.04082  1.0000
  H   H1434     1.0  0.00303  0.65239  0.00801  1.0000
  C   C841      1.0  0.75888  0.46564  0.33001  1.0000
  Fe  Fe119     1.0  0.84148  0.95567  0.09272  1.0000
  S   S240      1.0  0.83133  0.95537  0.17749  1.0000
  S   S241      1.0  0.87682  0.93890  0.05923  1.0000
  H   H1435     1.0  0.96483  0.67610  0.14564  1.0000
  H   H1436     1.0  0.81534  0.94176  0.95495  1.0000
  C   C842      1.0  0.81321  0.94068  0.91225  1.0000
  C   C843      1.0  0.84809  0.99682  0.85846  1.0000
  Fe  Fe120     1.0  0.79196  0.95659  0.15054  1.0000
  C   C844      1.0  0.86276  0.95294  0.86771  1.0000
  H   H1437     1.0  0.91713  0.99842  0.65133  1.0000
  S   S242      1.0  0.80230  0.95306  0.06553  1.0000
  Fe  Fe121     1.0  0.98273  0.89247  0.79091  1.0000
  S   S243      1.0  0.97963  0.89497  0.70458  1.0000
  C   C845      1.0  0.90302  0.75367  0.51328  1.0000
  Fe  Fe122     1.0  0.92948  0.87752  0.80390  1.0000
  S   S244      1.0  0.92250  0.87756  0.71736  1.0000
  S   S245      1.0  0.89853  0.87129  0.86088  1.0000
  Fe  Fe123     1.0  0.95992  0.85895  0.70984  1.0000
  S   S246      1.0  0.97515  0.82611  0.66261  1.0000
  Fe  Fe124     1.0  0.94290  0.91327  0.71958  1.0000
  S   S247      1.0  0.93060  0.94823  0.67788  1.0000
  S   S248      1.0  0.96510  0.85561  0.79692  1.0000
  S   S249      1.0  0.94797  0.91378  0.80557  1.0000
  C   C846      1.0  0.83393  0.91438  0.38594  1.0000
  S   S250      1.0  0.78840  0.99804  0.14879  1.0000
  Fe  Fe125     1.0  0.97201  0.75411  0.39695  1.0000
  S   S251      1.0  0.96984  0.74390  0.31137  1.0000
  S   S252      1.0  0.95044  0.78570  0.43585  1.0000
  Fe  Fe126     1.0  0.96989  0.70414  0.33768  1.0000
  S   S253      1.0  0.95258  0.66952  0.30289  1.0000
  H   H1438     1.0  0.85113  0.92219  0.37047  1.0000
  H   H1439     1.0  0.80196  0.86758  0.25019  1.0000
  S   S254      1.0  0.96830  0.71460  0.42275  1.0000
  H   H1440     1.0  0.82398  0.99092  0.78969  1.0000
  C   C847      1.0  0.99080  0.97093  0.84196  1.0000
  C   C848      1.0  0.91544  0.99648  0.69291  1.0000
  H   H1441     1.0  0.99758  0.91464  0.93967  1.0000
  H   H1442     1.0  0.89208  0.97441  0.94038  1.0000
  H   H1443     1.0  0.98938  0.72355  0.54423  1.0000
  H   H1444     1.0  0.92610  0.70087  0.22612  1.0000
  H   H1445     1.0  0.80695  0.98008  0.90400  1.0000
  C   C849      1.0  0.91178  0.99190  0.80042  1.0000
  C   C850      1.0  0.96953  0.81748  0.59707  1.0000
  C   C851      1.0  0.94981  0.82737  0.56809  1.0000
  C   C852      1.0  0.94469  0.81806  0.51800  1.0000
  C   C853      1.0  0.95929  0.79892  0.49620  1.0000
  C   C854      1.0  0.97957  0.78971  0.52445  1.0000
  C   C855      1.0  0.98452  0.79881  0.57469  1.0000
  H   H1446     1.0  0.93808  0.84169  0.58479  1.0000
  H   H1447     1.0  0.92899  0.82535  0.49645  1.0000
  C   C856      1.0  0.97389  0.89390  0.99218  1.0000
  H   H1448     1.0  0.80226  0.96649  0.34892  1.0000
  C   C857      1.0  0.89166  0.89159  0.91339  1.0000
  C   C858      1.0  0.86956  0.88920  0.94045  1.0000
  C   C859      1.0  0.86417  0.90428  0.98391  1.0000
  C   C860      1.0  0.88124  0.92133  0.00170  1.0000
  C   C861      1.0  0.90327  0.92375  0.97452  1.0000
  C   C862      1.0  0.90817  0.90943  0.92994  1.0000
  H   H1449     1.0  0.85665  0.87544  0.92805  1.0000
  H   H1450     1.0  0.84726  0.90201  0.00479  1.0000
  H   H1451     1.0  0.91659  0.93688  0.98800  1.0000
  H   H1452     1.0  0.92496  0.91179  0.90911  1.0000
  C   C863      1.0  0.91768  0.97115  0.76991  1.0000
  C   C864      1.0  0.92018  0.97341  0.71619  1.0000
  H   H1453     1.0  0.98245  0.74424  0.59605  1.0000
  H   H1454     1.0  0.92014  0.95349  0.78815  1.0000
  H   H1455     1.0  0.95770  0.84018  0.09320  1.0000
  C   C865      1.0  0.81886  0.96546  0.88565  1.0000
  C   C866      1.0  0.85150  0.97792  0.94387  1.0000
  H   H1456     1.0  0.77005  0.97342  0.26551  1.0000
  N   N60       1.0  0.92974  0.73679  0.58948  1.0000
  C   C867      1.0  0.99787  0.86180  0.94326  1.0000
  C   C868      1.0  0.90597  0.73552  0.55923  1.0000
  C   C869      1.0  0.93063  0.71751  0.63190  1.0000
  C   C870      1.0  0.93396  0.76226  0.61135  1.0000
  C   C871      1.0  0.85566  0.93930  0.81699  1.0000
  Fe  Fe127     1.0  0.80208  0.99464  0.06705  1.0000
  H   H1457     1.0  0.82717  0.87827  0.42457  1.0000
  C   C872      1.0  0.91411  0.77371  0.64682  1.0000
  C   C873      1.0  0.97790  0.91315  0.94910  1.0000
  H   H1458     1.0  0.85412  0.89365  0.44568  1.0000
  H   H1459     1.0  0.88977  0.73880  0.58412  1.0000
  N   N61       1.0  0.84535  0.97287  0.88752  1.0000
  C   C874      1.0  0.97706  0.85122  0.02392  1.0000
  H   H1460     1.0  0.96461  0.82706  0.90274  1.0000
  H   H1461     1.0  0.95119  0.76245  0.63474  1.0000
  H   H1462     1.0  0.93736  0.77575  0.58014  1.0000
  C   C875      1.0  0.98210  0.67809  0.12365  1.0000
  H   H1463     1.0  0.91087  0.99016  0.84211  1.0000
  H   H1464     1.0  0.90370  0.71647  0.54339  1.0000
  H   H1465     1.0  0.78025  0.87796  0.38465  1.0000
  H   H1466     1.0  0.79374  0.93621  0.90456  1.0000
  H   H1467     1.0  0.94985  0.87097  0.07314  1.0000
  C   C876      1.0  0.98629  0.70601  0.11683  1.0000
  C   C877      1.0  0.95412  0.85202  0.05861  1.0000
  C   C878      1.0  0.00093  0.96202  0.70978  1.0000
  H   H1468     1.0  0.91727  0.76811  0.68781  1.0000
  H   H1469     1.0  0.89517  0.76959  0.63477  1.0000
  H   H1470     1.0  0.91501  0.79424  0.64468  1.0000
  H   H1471     1.0  0.93595  0.86747  0.96439  1.0000
  H   H1472     1.0  0.76133  0.90101  0.41486  1.0000
  H   H1473     1.0  0.83829  0.99177  0.96072  1.0000
  C   C879      1.0  0.94988  0.83389  0.92880  1.0000
  N   N62       1.0  0.81438  0.91326  0.34392  1.0000
  H   H1474     1.0  0.86558  0.93841  0.89769  1.0000
  C   C880      1.0  0.81971  0.96048  0.33063  1.0000
  H   H1475     1.0  0.93237  0.83222  0.90678  1.0000
  H   H1476     1.0  0.93774  0.84461  0.03872  1.0000
  H   H1477     1.0  0.97153  0.93171  0.96282  1.0000
  C   C881      1.0  0.95296  0.86131  0.94407  1.0000
  H   H1478     1.0  0.96148  0.69168  0.02986  1.0000
  H   H1479     1.0  0.98936  0.95124  0.68261  1.0000
  C   C882      1.0  0.91343  0.67566  0.16650  1.0000
  C   C883      1.0  0.79937  0.88648  0.26665  1.0000
  H   H1480     1.0  0.95553  0.89842  0.00883  1.0000
  C   C884      1.0  0.95023  0.73072  0.55211  1.0000
  H   H1481     1.0  0.83860  0.94601  0.79785  1.0000
  H   H1482     1.0  0.82805  0.92723  0.41764  1.0000
  H   H1483     1.0  0.90403  0.69007  0.14436  1.0000
  H   H1484     1.0  0.95170  0.74541  0.52221  1.0000
  H   H1485     1.0  0.87063  0.94089  0.78827  1.0000
  H   H1486     1.0  0.98131  0.83151  0.01394  1.0000
  H   H1487     1.0  0.82309  0.97395  0.29913  1.0000
  H   H1488     1.0  0.83501  0.96214  0.35892  1.0000
  N   N63       1.0  0.97551  0.86704  0.97585  1.0000
  H   H1489     1.0  0.99253  0.85694  0.04936  1.0000
  H   H1490     1.0  0.93593  0.69897  0.61568  1.0000
  H   H1491     1.0  0.88127  0.96048  0.86180  1.0000
  H   H1492     1.0  0.84967  0.96095  0.96761  1.0000
  S   S255      1.0  0.84159  0.99725  0.08978  1.0000
  H   H1493     1.0  0.85396  0.91916  0.82458  1.0000
  C   C885      1.0  0.90673  0.71328  0.66182  1.0000
  H   H1494     1.0  0.95262  0.87189  0.90716  1.0000
  C   C886      1.0  0.98563  0.98454  0.72932  1.0000
  H   H1495     1.0  0.94863  0.82156  0.96288  1.0000
  H   H1496     1.0  0.97032  0.71553  0.09796  1.0000
  C   C887      1.0  0.78912  0.91668  0.36648  1.0000
  H   H1497     1.0  0.99097  0.77501  0.50824  1.0000
  H   H1498     1.0  0.77979  0.88846  0.27733  1.0000
  H   H1499     1.0  0.88032  0.98773  0.99842  1.0000
  H   H1500     1.0  0.80350  0.89953  0.23492  1.0000
  C   C888      1.0  0.87759  0.98710  0.95566  1.0000
  H   H1501     1.0  0.83560  0.93099  0.28452  1.0000
  H   H1502     1.0  0.89856  0.73047  0.67817  1.0000
  H   H1503     1.0  0.90546  0.77321  0.52507  1.0000
  H   H1504     1.0  0.88416  0.75241  0.49698  1.0000
  C   C889      1.0  0.92601  0.68186  0.21279  1.0000
  S   S256      1.0  0.76291  0.93360  0.18977  1.0000
  H   H1505     1.0  0.94639  0.71334  0.53035  1.0000
  H   H1506     1.0  0.89295  0.70398  0.63702  1.0000
  H   H1507     1.0  0.98726  0.89781  0.02391  1.0000
  C   C890      1.0  0.84243  0.88965  0.41125  1.0000
  C   C891      1.0  0.81833  0.93428  0.30657  1.0000
  H   H1508     1.0  0.91567  0.74882  0.48117  1.0000
  H   H1509     1.0  0.82459  0.92499  0.89732  1.0000
  H   H1510     1.0  0.00081  0.96127  0.87406  1.0000
  H   H1511     1.0  0.81167  0.96416  0.84554  1.0000
  H   H1512     1.0  0.78748  0.93431  0.38868  1.0000
  H   H1513     1.0  0.94510  0.72184  0.66116  1.0000
  H   H1514     1.0  0.85392  0.87846  0.38413  1.0000
  H   H1515     1.0  0.91082  0.70065  0.69494  1.0000
  H   H1516     1.0  0.96772  0.90907  0.91300  1.0000
  C   C892      1.0  0.97619  0.72734  0.57604  1.0000
  H   H1517     1.0  0.85659  0.98493  0.77863  1.0000
  H   H1518     1.0  0.81411  0.87301  0.33860  1.0000
  H   H1519     1.0  0.97574  0.98211  0.85967  1.0000
  H   H1520     1.0  0.97762  0.71127  0.60267  1.0000
  H   H1521     1.0  0.94232  0.67331  0.06853  1.0000
  H   H1522     1.0  0.99637  0.87188  0.90575  1.0000
  Fe  Fe128     1.0  0.82812  0.99673  0.17130  1.0000
  H   H1523     1.0  0.96861  0.97732  0.74633  1.0000
  C   C893      1.0  0.95893  0.67244  0.04363  1.0000
  C   C894      1.0  0.81689  0.88937  0.31362  1.0000
  H   H1524     1.0  0.98838  0.71462  0.15582  1.0000
  H   H1525     1.0  0.80336  0.93546  0.27700  1.0000
  H   H1526     1.0  0.98302  0.95629  0.81706  1.0000
  H   H1527     1.0  0.79156  0.89588  0.43962  1.0000
  H   H1528     1.0  0.83593  0.88714  0.29860  1.0000
  H   H1529     1.0  0.00327  0.70959  0.09511  1.0000
  H   H1530     1.0  0.99931  0.84187  0.93264  1.0000
  C   C895      1.0  0.78053  0.89643  0.40337  1.0000
  H   H1531     1.0  0.97938  0.99482  0.69407  1.0000
  C   C896      1.0  0.84283  0.99649  0.79965  1.0000
  H   H1532     1.0  0.99972  0.79093  0.59685  1.0000
  H   H1533     1.0  0.77525  0.91825  0.33499  1.0000
  H   H1534     1.0  0.99649  0.67119  0.15091  1.0000
  N   N64       1.0  0.99832  0.00147  0.76704  1.0000
  H   H1535     1.0  0.00313  0.68416  0.02101  1.0000
  H   H1536     1.0  0.00659  0.94923  0.74154  1.0000
