data_image0
_chemical_formula_structural       HCHCFeNHSHCSCHFeCH3CHCSCH2CFeC2HCHSHNCFeCHSC2HFeHSH3SH2C2SHCH5CH8CH2CH3NHC3SH2CFeSHC2H2C3SFeC3H4C6SC2HFeH3CSCH3SCH2CH4Fe2HCHC2H3SH4CH2C3SH2NSHNH2CHCH4CH2SH2C2HC3HC2H2SCSHCH3CH3FeHC2HC2H3C2HC2H2CSFeH2CHFeCHSC2SCFeCH5SCH2CH3C2HC2HNHCHCHNHSHSH4FeH2SH2SH2SH2CH2CH5CH3C2H2C2H4C2HC3NC2H2CSHCHFeH4SHSCH6NH3SC2HCH2CHSCH3CH3NCH2C2H5C6H5CH2CHSFeH2CHSH2SHNSHSH2CHCH4SHCFeC2SHCH2SH2CHSH4CHCH2CH2SFeHC3H4CHC3H6C2HCHCH3CH3CHC2H8CHCFeH4C3HS2CHFeHCSHC2H2CHSH2C2H4CSHCHFeCH2FeNHSCH2CH2CHCH2CHC2H2C2HCH2CFeH4C2H2CSCHC2H4CH4C2H2C3H4CSHCSHNH2C2HCSCHC4HNH3CH4CH4FeSCHCH2C2H2CHC2HSHCFeHSHCH3CNHNHCH3C5FeCH3SH3CHFeHSHC4HFe2H5C3HSHS2H3CHSH5SHSHCH2C2H6CH2C2H2C2HFeHCHNH5CH5CHC2HNHC2SHCH2CHCH4C2FeSCSCH2CHCSCH2FeSCH7SHSHFeSH4CH4NHCSH2CFeCH4CH2CH2CH2CHCH3CHCHCH2C3HNFeHCFeCH2SC2HC2H3CH4SCHC3H5CH3CH3SCH2CH2CH2SFeSH2C3HCSHSC2H3C2NHCFeCH2CSH5SCSH3CS2CNHCFeC2FeCHCH2CH2CHCH6C3H3CS2H2FeSC3HCH2SH3C3SHCH4CH2CSFeH2C2HSHCHCFeHNH5C2H2C2HFeCHCHNCH4CHC3HFeHCH2FeSH4CHC2NH2CSCH2CSCHC2H2CH4SHCFeSCHC2SHFeH3CH5C4FeCH2CHCHC2HCHCH3C2H7FeSHS2NH3CHC3FeH3NC2HNHCH6CHSH7C3H4CH2CSHCH3SCH3CNC3H2CH2CHCHCHSHSFeCHC2HFeH3SC2H2FeC2SCHCH7CH2Fe2H3Fe2HCHCFeCHSHSHSCHCH2FeCH7CHCSFeHCS2C2SH2SHCH4CHS3FeN2SCH4CH2SC3SCHC2SCH3C2H6C2HC3H2C2H2C2H6CH12CSHSHCHCHSH2CH3CH3CH2CH2C5HCHFeC3H2NH3CH5CSH2CH2
_chemical_formula_sum              "H768 C448 Fe64 N32 S128"
_cell_length_a       26.1833
_cell_length_b       22.8175
_cell_length_c       32.2341
_cell_angle_alpha    88.301
_cell_angle_beta     109.85
_cell_angle_gamma    85.6489

_space_group_name_H-M_alt    "P 1"
_space_group_IT_number       1

loop_
  _space_group_symop_operation_xyz
  'x, y, z'

loop_
  _atom_site_type_symbol
  _atom_site_label
  _atom_site_symmetry_multiplicity
  _atom_site_fract_x
  _atom_site_fract_y
  _atom_site_fract_z
  _atom_site_occupancy
  H   H1        1.0  0.78586  0.44502  0.72664  1.0000
  C   C1        1.0  0.65004  0.77265  0.67393  1.0000
  H   H2        1.0  0.54984  0.37619  0.57166  1.0000
  C   C2        1.0  0.76579  0.72882  0.69429  1.0000
  Fe  Fe1       1.0  0.45156  0.63958  0.69141  1.0000
  N   N1        1.0  0.59395  0.44330  0.70533  1.0000
  H   H3        1.0  0.63299  0.56029  0.71802  1.0000
  S   S1        1.0  0.73411  0.47674  0.62948  1.0000
  H   H4        1.0  0.63381  0.41785  0.65883  1.0000
  C   C3        1.0  0.36840  0.45289  0.60588  1.0000
  S   S2        1.0  0.30481  0.34903  0.53331  1.0000
  C   C4        1.0  0.76685  0.75967  0.65113  1.0000
  H   H5        1.0  0.57873  0.68469  0.61535  1.0000
  Fe  Fe2       1.0  0.72854  0.54509  0.57666  1.0000
  C   C5        1.0  0.45396  0.57573  0.55114  1.0000
  H   H6        1.0  0.34139  0.42982  0.61977  1.0000
  H   H7        1.0  0.43525  0.61948  0.53530  1.0000
  H   H8        1.0  0.55715  0.37231  0.66475  1.0000
  C   C6        1.0  0.35864  0.49917  0.51189  1.0000
  H   H9        1.0  0.61588  0.31632  0.72673  1.0000
  C   C7        1.0  0.55534  0.63565  0.49673  1.0000
  S   S3        1.0  0.76273  0.61381  0.62351  1.0000
  C   C8        1.0  0.42054  0.54712  0.57589  1.0000
  H   H10       1.0  0.73844  0.63403  0.50417  1.0000
  H   H11       1.0  0.69114  0.71875  0.52757  1.0000
  C   C9        1.0  0.62213  0.45833  0.67313  1.0000
  Fe  Fe3       1.0  0.77383  0.54373  0.67619  1.0000
  C   C10       1.0  0.60234  0.61357  0.53141  1.0000
  C   C11       1.0  0.58885  0.50099  0.63342  1.0000
  H   H12       1.0  0.64671  0.61414  0.60123  1.0000
  C   C12       1.0  0.33093  0.59850  0.53395  1.0000
  H   H13       1.0  0.77155  0.76380  0.55995  1.0000
  S   S4        1.0  0.47345  0.73780  0.55764  1.0000
  H   H14       1.0  0.77991  0.69389  0.51496  1.0000
  N   N2        1.0  0.36207  0.53889  0.54932  1.0000
  C   C13       1.0  0.57363  0.49797  0.72211  1.0000
  Fe  Fe4       1.0  0.47023  0.72713  0.62613  1.0000
  C   C14       1.0  0.54535  0.33424  0.55668  1.0000
  H   H15       1.0  0.42241  0.57399  0.60464  1.0000
  S   S5        1.0  0.46237  0.32289  0.58957  1.0000
  C   C15       1.0  0.57198  0.67087  0.58237  1.0000
  C   C16       1.0  0.32219  0.59293  0.68442  1.0000
  H   H16       1.0  0.60791  0.34427  0.52808  1.0000
  Fe  Fe5       1.0  0.41130  0.76835  0.68909  1.0000
  H   H17       1.0  0.66129  0.47741  0.69017  1.0000
  S   S6        1.0  0.39517  0.70125  0.63790  1.0000
  H   H18       1.0  0.31420  0.70195  0.73081  1.0000
  H   H19       1.0  0.29525  0.49939  0.56162  1.0000
  H   H20       1.0  0.40385  0.34505  0.70388  1.0000
  S   S7        1.0  0.52630  0.66039  0.67658  1.0000
  H   H21       1.0  0.39166  0.46235  0.52287  1.0000
  H   H22       1.0  0.61428  0.50911  0.61276  1.0000
  C   C17       1.0  0.57795  0.31631  0.53171  1.0000
  C   C18       1.0  0.51667  0.67520  0.50486  1.0000
  S   S8        1.0  0.64963  0.56344  0.52051  1.0000
  H   H23       1.0  0.73428  0.74493  0.62219  1.0000
  C   C19       1.0  0.33738  0.51035  0.58007  1.0000
  H   H24       1.0  0.51531  0.43815  0.65475  1.0000
  H   H25       1.0  0.38199  0.42253  0.58486  1.0000
  H   H26       1.0  0.33313  0.63425  0.67434  1.0000
  H   H27       1.0  0.57742  0.54452  0.64370  1.0000
  H   H28       1.0  0.49437  0.58301  0.57537  1.0000
  C   C20       1.0  0.52457  0.69224  0.54777  1.0000
  H   H29       1.0  0.64203  0.73490  0.69252  1.0000
  H   H30       1.0  0.31977  0.47776  0.50234  1.0000
  H   H31       1.0  0.40449  0.46200  0.63425  1.0000
  H   H32       1.0  0.48130  0.42266  0.71135  1.0000
  H   H33       1.0  0.49395  0.34827  0.69659  1.0000
  H   H34       1.0  0.46190  0.54645  0.52672  1.0000
  H   H35       1.0  0.33564  0.62657  0.56255  1.0000
  H   H36       1.0  0.44406  0.50422  0.58988  1.0000
  C   C21       1.0  0.54575  0.40998  0.68207  1.0000
  H   H37       1.0  0.33327  0.54146  0.60498  1.0000
  H   H38       1.0  0.55210  0.48210  0.61164  1.0000
  C   C22       1.0  0.61084  0.63149  0.57422  1.0000
  H   H39       1.0  0.37391  0.45152  0.71670  1.0000
  H   H40       1.0  0.34741  0.62372  0.51252  1.0000
  H   H41       1.0  0.71926  0.41792  0.49648  1.0000
  N   N3        1.0  0.75069  0.76842  0.72565  1.0000
  H   H42       1.0  0.73731  0.69368  0.68496  1.0000
  C   C23       1.0  0.36042  0.54361  0.69652  1.0000
  C   C24       1.0  0.50604  0.29861  0.56114  1.0000
  C   C25       1.0  0.34492  0.49007  0.70847  1.0000
  S   S9        1.0  0.42807  0.54802  0.69838  1.0000
  H   H43       1.0  0.65675  0.75710  0.64380  1.0000
  H   H44       1.0  0.53928  0.52281  0.69546  1.0000
  C   C26       1.0  0.51334  0.38820  0.71068  1.0000
  Fe  Fe6       1.0  0.53314  0.73219  0.72380  1.0000
  S   S10       1.0  0.75883  0.56752  0.73776  1.0000
  H   H45       1.0  0.35934  0.34644  0.73549  1.0000
  C   C27       1.0  0.65081  0.34371  0.73500  1.0000
  C   C28       1.0  0.69069  0.71903  0.49288  1.0000
  H   H46       1.0  0.66908  0.34263  0.70862  1.0000
  H   H47       1.0  0.35655  0.29189  0.69598  1.0000
  C   C29       1.0  0.38433  0.31676  0.72163  1.0000
  C   C30       1.0  0.29318  0.48693  0.71205  1.0000
  C   C31       1.0  0.74119  0.67963  0.49248  1.0000
  S   S11       1.0  0.33178  0.31684  0.86711  1.0000
  Fe  Fe7       1.0  0.67279  0.38138  0.96693  1.0000
  C   C32       1.0  0.36476  0.63012  0.86337  1.0000
  C   C33       1.0  0.38866  0.71283  0.82581  1.0000
  C   C34       1.0  0.64614  0.72899  0.97489  1.0000
  H   H48       1.0  0.65107  0.52057  0.77114  1.0000
  H   H49       1.0  0.40214  0.45253  0.91955  1.0000
  H   H50       1.0  0.42754  0.48878  0.96996  1.0000
  H   H51       1.0  0.38985  0.73302  0.79429  1.0000
  C   C35       1.0  0.41048  0.42869  0.81756  1.0000
  C   C36       1.0  0.44557  0.59108  0.81984  1.0000
  C   C37       1.0  0.77292  0.50481  0.77348  1.0000
  C   C38       1.0  0.74330  0.73053  0.76199  1.0000
  C   C39       1.0  0.36686  0.76066  0.85004  1.0000
  C   C40       1.0  0.36954  0.39994  0.82595  1.0000
  S   S12       1.0  0.46417  0.70491  0.74364  1.0000
  C   C41       1.0  0.56286  0.76224  0.98957  1.0000
  C   C42       1.0  0.78153  0.40386  0.82754  1.0000
  H   H52       1.0  0.53889  0.37485  0.74518  1.0000
  Fe  Fe8       1.0  0.68889  0.49683  0.92606  1.0000
  H   H53       1.0  0.64410  0.77127  0.95616  1.0000
  H   H54       1.0  0.74480  0.69967  0.91551  1.0000
  H   H55       1.0  0.68227  0.32277  0.76551  1.0000
  C   C43       1.0  0.61491  0.66155  0.82222  1.0000
  S   S13       1.0  0.72005  0.58550  0.93756  1.0000
  C   C44       1.0  0.38335  0.35256  0.85728  1.0000
  H   H56       1.0  0.57795  0.65163  0.79677  1.0000
  H   H57       1.0  0.38599  0.63786  0.76349  1.0000
  H   H58       1.0  0.42020  0.35561  0.95801  1.0000
  S   S14       1.0  0.61000  0.76160  0.77142  1.0000
  C   C45       1.0  0.47927  0.36343  0.87226  1.0000
  H   H59       1.0  0.29632  0.57434  0.84330  1.0000
  H   H60       1.0  0.32218  0.76288  0.84211  1.0000
  C   C46       1.0  0.38609  0.61587  0.79468  1.0000
  H   H61       1.0  0.44943  0.56244  0.84932  1.0000
  H   H62       1.0  0.62007  0.40465  0.77272  1.0000
  H   H63       1.0  0.61332  0.59381  0.95508  1.0000
  H   H64       1.0  0.34529  0.55533  0.89684  1.0000
  Fe  Fe9       1.0  0.71405  0.38037  0.88967  1.0000
  Fe  Fe10      1.0  0.59649  0.42539  0.87659  1.0000
  H   H65       1.0  0.38686  0.75376  0.88642  1.0000
  C   C47       1.0  0.68761  0.63490  0.89197  1.0000
  H   H66       1.0  0.62162  0.58177  0.86174  1.0000
  C   C48       1.0  0.70917  0.68850  0.88919  1.0000
  C   C49       1.0  0.50162  0.75933  0.98084  1.0000
  H   H67       1.0  0.67307  0.42872  0.75685  1.0000
  H   H68       1.0  0.40003  0.46568  0.79373  1.0000
  H   H69       1.0  0.40806  0.62448  0.88576  1.0000
  S   S15       1.0  0.64504  0.33874  0.90178  1.0000
  H   H70       1.0  0.29450  0.36165  0.98010  1.0000
  H   H71       1.0  0.34363  0.66010  0.88029  1.0000
  H   H72       1.0  0.77398  0.46383  0.87578  1.0000
  H   H73       1.0  0.47402  0.62584  0.82904  1.0000
  C   C50       1.0  0.61683  0.54105  0.74249  1.0000
  H   H74       1.0  0.72382  0.75703  0.78180  1.0000
  H   H75       1.0  0.73955  0.29298  0.97418  1.0000
  C   C51       1.0  0.63811  0.71373  0.81844  1.0000
  C   C52       1.0  0.78356  0.44921  0.75927  1.0000
  C   C53       1.0  0.63983  0.62191  0.85891  1.0000
  S   S16       1.0  0.77095  0.34272  0.85650  1.0000
  H   H76       1.0  0.51888  0.68672  0.92109  1.0000
  H   H77       1.0  0.71473  0.69662  0.74803  1.0000
  N   N4        1.0  0.59012  0.71351  0.97175  1.0000
  S   S17       1.0  0.51461  0.44283  0.82518  1.0000
  H   H78       1.0  0.55595  0.48627  0.74792  1.0000
  N   N5        1.0  0.35998  0.65722  0.81890  1.0000
  H   H79       1.0  0.70149  0.76899  0.85009  1.0000
  H   H80       1.0  0.36172  0.53572  0.84935  1.0000
  C   C54       1.0  0.78752  0.39847  0.78629  1.0000
  H   H81       1.0  0.52171  0.34899  0.88982  1.0000
  C   C55       1.0  0.68457  0.72777  0.85237  1.0000
  H   H82       1.0  0.59742  0.57812  0.75482  1.0000
  H   H83       1.0  0.32736  0.41405  0.80760  1.0000
  H   H84       1.0  0.45963  0.56294  0.79755  1.0000
  H   H85       1.0  0.47708  0.76973  0.94556  1.0000
  C   C56       1.0  0.43125  0.44710  0.95404  1.0000
  H   H86       1.0  0.47266  0.44011  0.95194  1.0000
  H   H87       1.0  0.58032  0.67130  0.91065  1.0000
  S   S18       1.0  0.66221  0.46331  0.85859  1.0000
  H   H88       1.0  0.36201  0.57743  0.78403  1.0000
  H   H89       1.0  0.43331  0.30204  0.78997  1.0000
  C   C57       1.0  0.77649  0.45961  0.84323  1.0000
  C   C58       1.0  0.34056  0.57044  0.86256  1.0000
  H   H90       1.0  0.50090  0.77204  0.87737  1.0000
  C   C59       1.0  0.43819  0.33421  0.88058  1.0000
  C   C60       1.0  0.55815  0.70489  0.92405  1.0000
  C   C61       1.0  0.46510  0.40978  0.83993  1.0000
  H   H91       1.0  0.43237  0.70293  0.84597  1.0000
  C   C62       1.0  0.77079  0.51008  0.81587  1.0000
  C   C63       1.0  0.41724  0.39398  0.97763  1.0000
  H   H92       1.0  0.66589  0.69586  0.95930  1.0000
  H   H93       1.0  0.37333  0.40093  0.97382  1.0000
  S   S19       1.0  0.74511  0.41665  0.95638  1.0000
  C   C64       1.0  0.54555  0.76034  0.89200  1.0000
  S   S20       1.0  0.61874  0.46508  0.94239  1.0000
  H   H94       1.0  0.76291  0.55299  0.82707  1.0000
  C   C65       1.0  0.30037  0.66971  0.79136  1.0000
  H   H95       1.0  0.56012  0.75118  0.86402  1.0000
  H   H96       1.0  0.44890  0.29733  0.90476  1.0000
  H   H97       1.0  0.78308  0.66633  0.81621  1.0000
  C   C66       1.0  0.63457  0.40712  0.74409  1.0000
  H   H98       1.0  0.29156  0.75873  0.76018  1.0000
  H   H99       1.0  0.55075  0.60668  0.16277  1.0000
  H   H100      1.0  0.75839  0.72640  0.14052  1.0000
  Fe  Fe11      1.0  0.47415  0.38652  0.21005  1.0000
  H   H101      1.0  0.45063  0.32358  0.07999  1.0000
  C   C67       1.0  0.40848  0.77704  0.14721  1.0000
  C   C68       1.0  0.40083  0.63384  0.08455  1.0000
  H   H102      1.0  0.62647  0.53359  0.15821  1.0000
  C   C69       1.0  0.51037  0.36649  0.02843  1.0000
  C   C70       1.0  0.43066  0.33008  0.04350  1.0000
  H   H103      1.0  0.62296  0.45898  0.13988  1.0000
  H   H104      1.0  0.35918  0.64266  0.06301  1.0000
  H   H105      1.0  0.69565  0.69344  0.04226  1.0000
  C   C71       1.0  0.36339  0.74559  0.15687  1.0000
  C   C72       1.0  0.75223  0.48576  0.06652  1.0000
  H   H106      1.0  0.69931  0.40753  0.11067  1.0000
  C   C73       1.0  0.55078  0.34512  0.07460  1.0000
  C   C74       1.0  0.46772  0.59147  0.15286  1.0000
  H   H107      1.0  0.75732  0.55959  0.10744  1.0000
  H   H108      1.0  0.54070  0.30326  0.08677  1.0000
  C   C75       1.0  0.50910  0.61375  0.14060  1.0000
  S   S21       1.0  0.54769  0.67737  0.08690  1.0000
  Fe  Fe12      1.0  0.39100  0.49454  0.18536  1.0000
  H   H109      1.0  0.75425  0.43705  0.06775  1.0000
  H   H110      1.0  0.58252  0.76329  0.02606  1.0000
  C   C76       1.0  0.49650  0.64519  0.10003  1.0000
  H   H111      1.0  0.51334  0.33299  0.00470  1.0000
  Fe  Fe13      1.0  0.35516  0.37265  0.19588  1.0000
  C   C77       1.0  0.69941  0.31369  0.21881  1.0000
  H   H112      1.0  0.38652  0.33938  0.03834  1.0000
  S   S22       1.0  0.68277  0.33461  0.03151  1.0000
  C   C78       1.0  0.74086  0.51800  0.18091  1.0000
  C   C79       1.0  0.41347  0.60237  0.12531  1.0000
  S   S23       1.0  0.39698  0.41041  0.15303  1.0000
  C   C80       1.0  0.76180  0.51062  0.11231  1.0000
  Fe  Fe14      1.0  0.71090  0.72248  0.21477  1.0000
  C   C81       1.0  0.64330  0.31191  0.19796  1.0000
  H   H113      1.0  0.47310  0.46870  0.04554  1.0000
  H   H114      1.0  0.34017  0.72141  0.12807  1.0000
  H   H115      1.0  0.78465  0.49897  0.05403  1.0000
  H   H116      1.0  0.58268  0.51972  0.10466  1.0000
  H   H117      1.0  0.73901  0.56692  0.17647  1.0000
  S   S24       1.0  0.66107  0.77767  0.15330  1.0000
  C   C82       1.0  0.44246  0.65444  0.07155  1.0000
  H   H118      1.0  0.55353  0.37867  0.09927  1.0000
  H   H119      1.0  0.47793  0.56762  0.18436  1.0000
  C   C83       1.0  0.68585  0.73542  0.02189  1.0000
  H   H120      1.0  0.59221  0.33659  0.07257  1.0000
  H   H121      1.0  0.29519  0.57987  0.22033  1.0000
  H   H122      1.0  0.61150  0.66457  0.03482  1.0000
  C   C84       1.0  0.66796  0.51597  0.10985  1.0000
  C   C85       1.0  0.39189  0.46172  0.04661  1.0000
  H   H123      1.0  0.66641  0.56451  0.10318  1.0000
  C   C86       1.0  0.59347  0.65755  0.99898  1.0000
  C   C87       1.0  0.72610  0.42485  0.14181  1.0000
  H   H124      1.0  0.38271  0.71340  0.18547  1.0000
  N   N6        1.0  0.72533  0.49095  0.13666  1.0000
  H   H125      1.0  0.70797  0.41294  0.16719  1.0000
  C   C88       1.0  0.62321  0.50585  0.12990  1.0000
  H   H126      1.0  0.43261  0.67966  0.04042  1.0000
  C   C89       1.0  0.44952  0.43334  0.05248  1.0000
  H   H127      1.0  0.42641  0.74485  0.12969  1.0000
  N   N7        1.0  0.45198  0.38099  0.02547  1.0000
  H   H128      1.0  0.39538  0.49627  0.07076  1.0000
  S   S25       1.0  0.55898  0.76833  0.18883  1.0000
  H   H129      1.0  0.44260  0.78025  0.17881  1.0000
  S   S26       1.0  0.53674  0.33803  0.18709  1.0000
  H   H130      1.0  0.71180  0.50901  0.19814  1.0000
  H   H131      1.0  0.65413  0.49671  0.07701  1.0000
  H   H132      1.0  0.46935  0.42094  0.08843  1.0000
  H   H133      1.0  0.29922  0.57153  0.03147  1.0000
  Fe  Fe15      1.0  0.59849  0.71457  0.14943  1.0000
  H   H134      1.0  0.49191  0.71662  0.99198  1.0000
  H   H135      1.0  0.71299  0.50419  0.04181  1.0000
  S   S27       1.0  0.36151  0.57814  0.14228  1.0000
  H   H136      1.0  0.37158  0.48374  0.01333  1.0000
  H   H137      1.0  0.72443  0.74907  0.01921  1.0000
  S   S28       1.0  0.64973  0.65677  0.20813  1.0000
  H   H138      1.0  0.36528  0.42972  0.05308  1.0000
  H   H139      1.0  0.52717  0.40576  0.01851  1.0000
  S   S29       1.0  0.34182  0.45863  0.22336  1.0000
  H   H140      1.0  0.67054  0.77001  0.03923  1.0000
  H   H141      1.0  0.47840  0.77799  0.09693  1.0000
  C   C90       1.0  0.60662  0.34278  0.21417  1.0000
  H   H142      1.0  0.33506  0.77542  0.16697  1.0000
  H   H143      1.0  0.36023  0.78308  0.06353  1.0000
  C   C91       1.0  0.78213  0.38816  0.15433  1.0000
  H   H144      1.0  0.78252  0.35893  0.12742  1.0000
  H   H145      1.0  0.36888  0.63146  0.23001  1.0000
  H   H146      1.0  0.62136  0.56472  0.00902  1.0000
  H   H147      1.0  0.78846  0.35861  0.18401  1.0000
  H   H148      1.0  0.55216  0.64366  0.99406  1.0000
  C   C92       1.0  0.78922  0.69028  0.14483  1.0000
  H   H149      1.0  0.72751  0.28971  0.20596  1.0000
  H   H150      1.0  0.67101  0.60967  0.00234  1.0000
  H   H151      1.0  0.79111  0.70179  0.07878  1.0000
  C   C93       1.0  0.62682  0.60391  0.99030  1.0000
  C   C94       1.0  0.67441  0.77901  0.42436  1.0000
  H   H152      1.0  0.29741  0.60539  0.31455  1.0000
  H   H153      1.0  0.31063  0.70539  0.30325  1.0000
  C   C95       1.0  0.32600  0.42293  0.33706  1.0000
  C   C96       1.0  0.32076  0.59252  0.29261  1.0000
  H   H154      1.0  0.31428  0.44435  0.30445  1.0000
  H   H155      1.0  0.31146  0.69946  0.24971  1.0000
  H   H156      1.0  0.33870  0.54646  0.30380  1.0000
  H   H157      1.0  0.36488  0.68746  0.37496  1.0000
  C   C97       1.0  0.30087  0.37029  0.39293  1.0000
  C   C98       1.0  0.33889  0.69474  0.28481  1.0000
  H   H158      1.0  0.41642  0.63692  0.41202  1.0000
  C   C99       1.0  0.38240  0.64106  0.37977  1.0000
  C   C100      1.0  0.38056  0.41789  0.36485  1.0000
  C   C101      1.0  0.37689  0.74446  0.28986  1.0000
  N   N8        1.0  0.36532  0.63261  0.29635  1.0000
  C   C102      1.0  0.35516  0.36665  0.42128  1.0000
  C   C103      1.0  0.39485  0.39087  0.40738  1.0000
  H   H159      1.0  0.38470  0.75395  0.25870  1.0000
  H   H160      1.0  0.31930  0.53366  0.44270  1.0000
  C   C104      1.0  0.39322  0.61384  0.26415  1.0000
  S   S30       1.0  0.34121  0.72280  0.45689  1.0000
  H   H161      1.0  0.36693  0.34444  0.45365  1.0000
  C   C105      1.0  0.40517  0.62412  0.34310  1.0000
  H   H162      1.0  0.35200  0.61149  0.38282  1.0000
  Fe  Fe16      1.0  0.42177  0.43202  0.27622  1.0000
  H   H163      1.0  0.39592  0.56505  0.26271  1.0000
  H   H164      1.0  0.42248  0.57725  0.35037  1.0000
  H   H165      1.0  0.41633  0.73554  0.31693  1.0000
  H   H166      1.0  0.44106  0.64952  0.34825  1.0000
  S   S31       1.0  0.43127  0.44544  0.34724  1.0000
  H   H167      1.0  0.38540  0.49788  0.45471  1.0000
  S   S32       1.0  0.43212  0.34274  0.25107  1.0000
  C   C106      1.0  0.36063  0.52814  0.46836  1.0000
  H   H168      1.0  0.43690  0.38713  0.42921  1.0000
  H   H169      1.0  0.37882  0.57057  0.47129  1.0000
  H   H170      1.0  0.76498  0.59198  0.36229  1.0000
  H   H171      1.0  0.57618  0.76077  0.48757  1.0000
  H   H172      1.0  0.45647  0.67766  0.27759  1.0000
  H   H173      1.0  0.35758  0.78508  0.29858  1.0000
  N   N9        1.0  0.68521  0.78108  0.47340  1.0000
  H   H174      1.0  0.54880  0.62226  0.46352  1.0000
  H   H175      1.0  0.57565  0.77045  0.43200  1.0000
  H   H176      1.0  0.53029  0.42411  0.47037  1.0000
  S   S33       1.0  0.79028  0.34508  0.28113  1.0000
  C   C107      1.0  0.45206  0.63027  0.27346  1.0000
  C   C108      1.0  0.69532  0.39502  0.46712  1.0000
  H   H177      1.0  0.59205  0.45840  0.48043  1.0000
  C   C109      1.0  0.60058  0.50200  0.33657  1.0000
  H   H178      1.0  0.72436  0.36899  0.45510  1.0000
  H   H179      1.0  0.74349  0.67728  0.45895  1.0000
  C   C110      1.0  0.55539  0.44604  0.45394  1.0000
  H   H180      1.0  0.53030  0.48608  0.43557  1.0000
  S   S34       1.0  0.68119  0.77749  0.26022  1.0000
  C   C111      1.0  0.68547  0.63808  0.33588  1.0000
  H   H181      1.0  0.58836  0.36169  0.44322  1.0000
  H   H182      1.0  0.59766  0.39990  0.26338  1.0000
  H   H183      1.0  0.67197  0.36530  0.47983  1.0000
  C   C112      1.0  0.72706  0.60232  0.36747  1.0000
  H   H184      1.0  0.65418  0.48188  0.44824  1.0000
  H   H185      1.0  0.66541  0.58132  0.44282  1.0000
  H   H186      1.0  0.66011  0.30677  0.41783  1.0000
  N   N10       1.0  0.60676  0.42495  0.39950  1.0000
  C   C113      1.0  0.57045  0.40294  0.42306  1.0000
  H   H187      1.0  0.64340  0.74816  0.40891  1.0000
  H   H188      1.0  0.53193  0.39040  0.39870  1.0000
  C   C114      1.0  0.66007  0.44160  0.43119  1.0000
  C   C115      1.0  0.71939  0.34632  0.25603  1.0000
  H   H189      1.0  0.71146  0.76087  0.41790  1.0000
  H   H190      1.0  0.69145  0.65379  0.30608  1.0000
  H   H191      1.0  0.57624  0.51753  0.39281  1.0000
  H   H192      1.0  0.69827  0.40374  0.30076  1.0000
  H   H193      1.0  0.68666  0.45462  0.41272  1.0000
  C   C116      1.0  0.62905  0.63254  0.38147  1.0000
  C   C117      1.0  0.68287  0.37799  0.27221  1.0000
  C   C118      1.0  0.67103  0.59704  0.41310  1.0000
  C   C119      1.0  0.57731  0.47996  0.37172  1.0000
  C   C120      1.0  0.61588  0.37985  0.36872  1.0000
  C   C121      1.0  0.62656  0.31473  0.38588  1.0000
  H   H194      1.0  0.65051  0.39016  0.35791  1.0000
  H   H195      1.0  0.53403  0.47325  0.35345  1.0000
  H   H196      1.0  0.58900  0.29788  0.38850  1.0000
  H   H197      1.0  0.57927  0.54564  0.32199  1.0000
  H   H198      1.0  0.57932  0.38129  0.33805  1.0000
  C   C122      1.0  0.71946  0.58040  0.40555  1.0000
  H   H199      1.0  0.46493  0.61899  0.24501  1.0000
  H   H200      1.0  0.59095  0.64379  0.38686  1.0000
  C   C123      1.0  0.63596  0.65191  0.34238  1.0000
  H   H201      1.0  0.48129  0.60441  0.30276  1.0000
  S   S35       1.0  0.58235  0.69114  0.30081  1.0000
  Fe  Fe17      1.0  0.61548  0.71642  0.24806  1.0000
  H   H202      1.0  0.64471  0.50722  0.35032  1.0000
  H   H203      1.0  0.59288  0.47268  0.30886  1.0000
  C   C124      1.0  0.62625  0.37601  0.25120  1.0000
  H   H204      1.0  0.65429  0.69584  0.47488  1.0000
  S   S36       1.0  0.76930  0.53061  0.44282  1.0000
  H   H205      1.0  0.48026  0.69215  0.47795  1.0000
  H   H206      1.0  0.34459  0.29443  0.33843  1.0000
  S   S37       1.0  0.47142  0.47374  0.24023  1.0000
  H   H207      1.0  0.54756  0.98246  0.57676  1.0000
  N   N11       1.0  0.46777  0.95871  0.53699  1.0000
  S   S38       1.0  0.34328  0.22848  0.59621  1.0000
  H   H208      1.0  0.72907  0.26052  0.49452  1.0000
  S   S39       1.0  0.64272  0.95600  0.53825  1.0000
  H   H209      1.0  0.38503  0.95535  0.49287  1.0000
  H   H210      1.0  0.73160  0.97259  0.50587  1.0000
  C   C125      1.0  0.75509  0.21819  0.50606  1.0000
  H   H211      1.0  0.75897  0.23857  0.57343  1.0000
  C   C126      1.0  0.40692  0.18287  0.72377  1.0000
  H   H212      1.0  0.73028  0.83120  0.55865  1.0000
  H   H213      1.0  0.71164  0.18717  0.54816  1.0000
  H   H214      1.0  0.50338  0.91055  0.49489  1.0000
  H   H215      1.0  0.40639  0.89591  0.60723  1.0000
  S   S40       1.0  0.31281  0.80130  0.55565  1.0000
  H   H216      1.0  0.61218  0.80315  0.66275  1.0000
  C   C127      1.0  0.36805  0.01641  0.65337  1.0000
  Fe  Fe18      1.0  0.38076  0.28702  0.55986  1.0000
  C   C128      1.0  0.75284  0.20060  0.55203  1.0000
  C   C129      1.0  0.69779  0.80577  0.70259  1.0000
  S   S41       1.0  0.36041  0.23338  0.50011  1.0000
  H   H217      1.0  0.48102  0.06550  0.58397  1.0000
  C   C130      1.0  0.44829  0.18563  0.69935  1.0000
  H   H218      1.0  0.39965  0.02539  0.51151  1.0000
  H   H219      1.0  0.52913  0.00195  0.51982  1.0000
  S   S42       1.0  0.34606  0.81925  0.70745  1.0000
  H   H220      1.0  0.36058  0.06006  0.63550  1.0000
  H   H221      1.0  0.32721  0.94475  0.66746  1.0000
  C   C131      1.0  0.41749  0.98560  0.50070  1.0000
  H   H222      1.0  0.68292  0.82816  0.72715  1.0000
  S   S43       1.0  0.32175  0.08265  0.54267  1.0000
  H   H223      1.0  0.39485  0.98799  0.64065  1.0000
  H   H224      1.0  0.52810  0.18510  0.50163  1.0000
  H   H225      1.0  0.46682  0.08764  0.52647  1.0000
  H   H226      1.0  0.52325  0.84930  0.58623  1.0000
  C   C132      1.0  0.75936  0.80908  0.54476  1.0000
  H   H227      1.0  0.76245  0.80830  0.64986  1.0000
  C   C133      1.0  0.31502  0.98672  0.64679  1.0000
  H   H228      1.0  0.30284  0.19478  0.72822  1.0000
  H   H229      1.0  0.36672  0.19865  0.69926  1.0000
  C   C134      1.0  0.57146  0.26270  0.51116  1.0000
  H   H230      1.0  0.42702  0.85748  0.56767  1.0000
  H   H231      1.0  0.70344  0.84222  0.68135  1.0000
  S   S44       1.0  0.48137  0.80030  0.67238  1.0000
  Fe  Fe19      1.0  0.31661  0.18014  0.53430  1.0000
  H   H232      1.0  0.57209  0.88878  0.57081  1.0000
  C   C135      1.0  0.51243  0.99966  0.54717  1.0000
  C   C136      1.0  0.53514  0.86491  0.55823  1.0000
  C   C137      1.0  0.50097  0.24419  0.54198  1.0000
  H   H233      1.0  0.70901  0.92858  0.62859  1.0000
  H   H234      1.0  0.37166  0.91496  0.55033  1.0000
  H   H235      1.0  0.30028  0.97306  0.61229  1.0000
  H   H236      1.0  0.44072  0.88244  0.72017  1.0000
  C   C138      1.0  0.41244  0.90149  0.57494  1.0000
  H   H237      1.0  0.78271  0.16308  0.56906  1.0000
  C   C139      1.0  0.45317  0.94814  0.57780  1.0000
  C   C140      1.0  0.49682  0.06351  0.55618  1.0000
  C   C141      1.0  0.48796  0.90192  0.52247  1.0000
  H   H238      1.0  0.47255  0.21526  0.54692  1.0000
  H   H239      1.0  0.49026  0.93542  0.60713  1.0000
  H   H240      1.0  0.54673  0.82505  0.54333  1.0000
  H   H241      1.0  0.45421  0.87328  0.50885  1.0000
  H   H242      1.0  0.32299  0.01053  0.72593  1.0000
  H   H243      1.0  0.53389  0.08788  0.56536  1.0000
  C   C142      1.0  0.29672  0.04606  0.70288  1.0000
  C   C143      1.0  0.74817  0.96373  0.54126  1.0000
  H   H244      1.0  0.43364  0.16163  0.66863  1.0000
  C   C144      1.0  0.71354  0.95236  0.56493  1.0000
  H   H245      1.0  0.45229  0.23157  0.68939  1.0000
  C   C145      1.0  0.53327  0.22651  0.51683  1.0000
  H   H246      1.0  0.64728  0.81660  0.51856  1.0000
  H   H247      1.0  0.43425  0.98943  0.58592  1.0000
  H   H248      1.0  0.40359  0.13546  0.73092  1.0000
  C   C146      1.0  0.73562  0.93767  0.61031  1.0000
  H   H249      1.0  0.39127  0.02069  0.68881  1.0000
  H   H250      1.0  0.48888  0.16338  0.71882  1.0000
  H   H251      1.0  0.32381  0.08069  0.70136  1.0000
  C   C147      1.0  0.73668  0.81092  0.49376  1.0000
  H   H252      1.0  0.47003  0.13616  0.80002  1.0000
  C   C148      1.0  0.42875  0.27891  0.75922  1.0000
  C   C149      1.0  0.75796  0.93381  0.92338  1.0000
  H   H253      1.0  0.77861  0.83018  0.88378  1.0000
  H   H254      1.0  0.40993  0.27112  0.98789  1.0000
  H   H255      1.0  0.38217  0.23804  0.81416  1.0000
  H   H256      1.0  0.50736  0.19077  0.78636  1.0000
  H   H257      1.0  0.37519  0.80462  0.83946  1.0000
  H   H258      1.0  0.30315  0.19695  0.93268  1.0000
  H   H259      1.0  0.31576  0.08664  0.94977  1.0000
  H   H260      1.0  0.68136  0.97027  0.92905  1.0000
  C   C150      1.0  0.47247  0.18462  0.79781  1.0000
  H   H261      1.0  0.78150  0.82799  0.80618  1.0000
  C   C151      1.0  0.49067  0.20450  0.84557  1.0000
  Fe  Fe20      1.0  0.55152  0.93234  0.96940  1.0000
  H   H262      1.0  0.73496  0.96005  0.98114  1.0000
  H   H263      1.0  0.49939  0.25121  0.84683  1.0000
  H   H264      1.0  0.56762  0.80602  0.97636  1.0000
  H   H265      1.0  0.39136  0.12279  0.87829  1.0000
  C   C152      1.0  0.31188  0.85295  0.92058  1.0000
  C   C153      1.0  0.37593  0.20947  0.78578  1.0000
  C   C154      1.0  0.36178  0.14104  0.89347  1.0000
  H   H266      1.0  0.36260  0.18961  0.89216  1.0000
  S   S45       1.0  0.40123  0.99573  0.93049  1.0000
  S   S46       1.0  0.43155  0.03121  0.82341  1.0000
  C   C155      1.0  0.43836  0.94694  0.76685  1.0000
  H   H267      1.0  0.75302  0.88458  0.76193  1.0000
  Fe  Fe21      1.0  0.45879  0.99482  0.89318  1.0000
  H   H268      1.0  0.52940  0.17835  0.86526  1.0000
  C   C156      1.0  0.41082  0.96924  0.79405  1.0000
  S   S47       1.0  0.52681  0.02782  0.94770  1.0000
  H   H269      1.0  0.73223  0.02067  0.94258  1.0000
  C   C157      1.0  0.72571  0.97350  0.94584  1.0000
  C   C158      1.0  0.30434  0.12328  0.86721  1.0000
  H   H270      1.0  0.34392  0.96087  0.81760  1.0000
  H   H271      1.0  0.47385  0.96683  0.76508  1.0000
  C   C159      1.0  0.30382  0.88312  0.88016  1.0000
  H   H272      1.0  0.46103  0.19628  0.86233  1.0000
  S   S48       1.0  0.37760  0.83664  0.95905  1.0000
  H   H273      1.0  0.56464  0.79976  0.90694  1.0000
  H   H274      1.0  0.30899  0.07697  0.85847  1.0000
  C   C160      1.0  0.37311  0.87422  0.74291  1.0000
  C   C161      1.0  0.36551  0.94291  0.79694  1.0000
  H   H275      1.0  0.30941  0.87743  0.77129  1.0000
  H   H276      1.0  0.73826  0.89179  0.91884  1.0000
  H   H277      1.0  0.30765  0.27114  0.74246  1.0000
  H   H278      1.0  0.74947  0.95410  0.88953  1.0000
  C   C162      1.0  0.34586  0.89618  0.77056  1.0000
  S   S49       1.0  0.48701  0.89944  0.91125  1.0000
  H   H279      1.0  0.33861  0.89615  0.87261  1.0000
  C   C163      1.0  0.78767  0.85087  0.77774  1.0000
  H   H280      1.0  0.78823  0.19738  0.97138  1.0000
  Fe  Fe22      1.0  0.43452  0.90318  0.95349  1.0000
  C   C164      1.0  0.31616  0.22480  0.75548  1.0000
  H   H281      1.0  0.37829  0.16341  0.79939  1.0000
  H   H282      1.0  0.37684  0.12443  0.92847  1.0000
  Fe  Fe23      1.0  0.47113  0.02214  0.98690  1.0000
  N   N12       1.0  0.41993  0.21521  0.76577  1.0000
  H   H283      1.0  0.46844  0.28295  0.75424  1.0000
  S   S50       1.0  0.63799  0.89235  0.98808  1.0000
  C   C165      1.0  0.41990  0.89888  0.74171  1.0000
  H   H284      1.0  0.29173  0.14922  0.83516  1.0000
  H   H285      1.0  0.53743  0.16602  0.22260  1.0000
  C   C166      1.0  0.44113  0.85913  0.11563  1.0000
  H   H286      1.0  0.67285  0.11097  0.17914  1.0000
  H   H287      1.0  0.42127  0.23634  0.04053  1.0000
  C   C167      1.0  0.39145  0.07549  0.03405  1.0000
  H   H288      1.0  0.42060  0.20871  0.20243  1.0000
  C   C168      1.0  0.43594  0.27037  0.02321  1.0000
  H   H289      1.0  0.45226  0.15095  0.10164  1.0000
  H   H290      1.0  0.44318  0.90840  0.19327  1.0000
  C   C169      1.0  0.30049  0.04145  0.05266  1.0000
  H   H291      1.0  0.41174  0.98262  0.03204  1.0000
  C   C170      1.0  0.75100  0.07173  0.22741  1.0000
  C   C171      1.0  0.41893  0.10659  0.16232  1.0000
  H   H292      1.0  0.46824  0.24159  0.18517  1.0000
  H   H293      1.0  0.47404  0.86064  0.14811  1.0000
  C   C172      1.0  0.65589  0.92551  0.07331  1.0000
  C   C173      1.0  0.67733  0.89739  0.04399  1.0000
  H   H294      1.0  0.43159  0.90552  0.10152  1.0000
  C   C174      1.0  0.52270  0.19672  0.13345  1.0000
  H   H295      1.0  0.55851  0.19553  0.16425  1.0000
  H   H296      1.0  0.50605  0.84394  0.08835  1.0000
  C   C175      1.0  0.38307  0.01591  0.03671  1.0000
  Fe  Fe24      1.0  0.62587  0.82729  0.19822  1.0000
  H   H297      1.0  0.48867  0.79318  0.00010  1.0000
  H   H298      1.0  0.67283  0.95335  0.13980  1.0000
  H   H299      1.0  0.35565  0.85875  0.05009  1.0000
  H   H300      1.0  0.32863  0.86796  0.14731  1.0000
  C   C176      1.0  0.40415  0.89137  0.19195  1.0000
  C   C177      1.0  0.33760  0.99910  0.04591  1.0000
  H   H301      1.0  0.70610  0.05232  0.15985  1.0000
  H   H302      1.0  0.34958  0.22422  0.13648  1.0000
  C   C178      1.0  0.35116  0.82691  0.07515  1.0000
  S   S51       1.0  0.50097  0.92908  0.01321  1.0000
  C   C179      1.0  0.68921  0.93062  0.11742  1.0000
  H   H303      1.0  0.49999  0.24082  0.12731  1.0000
  C   C180      1.0  0.76473  0.87847  0.10295  1.0000
  C   C181      1.0  0.77077  0.20410  0.99707  1.0000
  H   H304      1.0  0.33073  0.95343  0.04740  1.0000
  H   H305      1.0  0.45263  0.03561  0.13122  1.0000
  H   H306      1.0  0.46969  0.02305  0.19032  1.0000
  H   H307      1.0  0.38562  0.11974  0.13056  1.0000
  C   C182      1.0  0.72571  0.22221  0.06348  1.0000
  H   H308      1.0  0.62834  0.28640  0.16921  1.0000
  H   H309      1.0  0.38898  0.28378  0.13176  1.0000
  H   H310      1.0  0.50951  0.10557  0.13507  1.0000
  H   H311      1.0  0.74796  0.85038  0.03700  1.0000
  C   C183      1.0  0.71334  0.09158  0.17998  1.0000
  C   C184      1.0  0.48527  0.14818  0.13424  1.0000
  H   H312      1.0  0.41236  0.85150  0.21459  1.0000
  H   H313      1.0  0.53839  0.18999  0.10578  1.0000
  C   C185      1.0  0.30758  0.10116  0.04791  1.0000
  C   C186      1.0  0.46743  0.82500  0.08622  1.0000
  C   C187      1.0  0.73149  0.87300  0.05919  1.0000
  H   H314      1.0  0.47859  0.25506  0.02716  1.0000
  H   H315      1.0  0.35680  0.92318  0.12505  1.0000
  H   H316      1.0  0.38274  0.92583  0.20525  1.0000
  H   H317      1.0  0.61414  0.94452  0.06196  1.0000
  C   C188      1.0  0.38921  0.23515  0.13412  1.0000
  S   S52       1.0  0.78909  0.92495  0.18378  1.0000
  H   H318      1.0  0.39126  0.22017  0.10250  1.0000
  C   C189      1.0  0.72008  0.26744  0.03160  1.0000
  S   S53       1.0  0.59611  0.92252  0.19669  1.0000
  H   H319      1.0  0.75516  0.13206  0.08496  1.0000
  N   N13       1.0  0.39117  0.83524  0.12082  1.0000
  H   H320      1.0  0.29345  0.03909  0.20421  1.0000
  H   H321      1.0  0.73178  0.12292  0.16361  1.0000
  C   C190      1.0  0.36754  0.88009  0.14450  1.0000
  C   C191      1.0  0.43730  0.20913  0.17509  1.0000
  H   H322      1.0  0.44109  0.82899  0.05107  1.0000
  C   C192      1.0  0.77639  0.15879  0.02879  1.0000
  S   S54       1.0  0.44846  0.09630  0.02280  1.0000
  C   C193      1.0  0.35307  0.11821  0.03879  1.0000
  H   H323      1.0  0.35784  0.16446  0.03488  1.0000
  C   C194      1.0  0.75356  0.16775  0.06186  1.0000
  C   C195      1.0  0.43782  0.04165  0.15936  1.0000
  C   C196      1.0  0.74413  0.90844  0.13194  1.0000
  C   C197      1.0  0.74306  0.25839  0.99868  1.0000
  H   H324      1.0  0.70732  0.22865  0.08860  1.0000
  N   N14       1.0  0.46248  0.14874  0.17137  1.0000
  H   H325      1.0  0.30089  0.93101  0.22580  1.0000
  H   H326      1.0  0.39853  0.10857  0.18741  1.0000
  H   H327      1.0  0.40228  0.01538  0.15323  1.0000
  C   C198      1.0  0.50876  0.13109  0.21390  1.0000
  H   H328      1.0  0.53375  0.09118  0.21022  1.0000
  H   H329      1.0  0.33406  0.14532  0.22038  1.0000
  H   H330      1.0  0.78564  0.04315  0.22412  1.0000
  H   H331      1.0  0.70712  0.18815  0.22342  1.0000
  C   C199      1.0  0.29367  0.02240  0.23693  1.0000
  H   H332      1.0  0.79005  0.17797  0.21097  1.0000
  H   H333      1.0  0.61499  0.85621  0.39651  1.0000
  H   H334      1.0  0.65240  0.83166  0.36240  1.0000
  H   H335      1.0  0.45135  0.03854  0.45976  1.0000
  Fe  Fe25      1.0  0.61933  0.02095  0.47999  1.0000
  S   S55       1.0  0.60416  0.99312  0.41160  1.0000
  C   C200      1.0  0.39176  0.90412  0.36364  1.0000
  H   H336      1.0  0.37860  0.19262  0.25533  1.0000
  C   C201      1.0  0.65592  0.83846  0.39725  1.0000
  H   H337      1.0  0.34961  0.28730  0.28521  1.0000
  H   H338      1.0  0.33676  0.01879  0.25956  1.0000
  C   C202      1.0  0.32297  0.18913  0.38622  1.0000
  C   C203      1.0  0.39514  0.96233  0.35024  1.0000
  H   H339      1.0  0.34351  0.15156  0.41032  1.0000
  H   H340      1.0  0.42407  0.23845  0.37473  1.0000
  C   C204      1.0  0.63915  0.81571  0.48244  1.0000
  H   H341      1.0  0.78626  0.11232  0.47651  1.0000
  C   C205      1.0  0.48262  0.87713  0.36307  1.0000
  C   C206      1.0  0.62919  0.01217  0.30743  1.0000
  H   H342      1.0  0.36436  0.12392  0.27778  1.0000
  S   S56       1.0  0.54679  0.08776  0.45967  1.0000
  H   H343      1.0  0.64484  0.17630  0.26201  1.0000
  C   C207      1.0  0.29747  0.19494  0.26057  1.0000
  Fe  Fe26      1.0  0.65709  0.06293  0.40600  1.0000
  H   H344      1.0  0.77000  0.79194  0.48271  1.0000
  S   S57       1.0  0.71964  0.03571  0.37568  1.0000
  H   H345      1.0  0.41810  0.18692  0.33200  1.0000
  C   C208      1.0  0.31665  0.17068  0.33918  1.0000
  H   H346      1.0  0.53022  0.10696  0.28372  1.0000
  H   H347      1.0  0.35541  0.89266  0.36934  1.0000
  H   H348      1.0  0.73020  0.85833  0.48237  1.0000
  C   C209      1.0  0.68743  0.93929  0.26750  1.0000
  N   N15       1.0  0.77159  0.12040  0.25776  1.0000
  H   H349      1.0  0.66190  0.10293  0.25010  1.0000
  N   N16       1.0  0.30633  0.22059  0.30474  1.0000
  H   H350      1.0  0.34770  0.22695  0.39597  1.0000
  C   C210      1.0  0.68575  0.00135  0.32713  1.0000
  H   H351      1.0  0.55815  0.99590  0.25254  1.0000
  H   H352      1.0  0.55038  0.82966  0.45577  1.0000
  H   H353      1.0  0.60645  0.03977  0.32288  1.0000
  C   C211      1.0  0.43661  0.86218  0.37220  1.0000
  C   C212      1.0  0.71491  0.96458  0.30730  1.0000
  C   C213      1.0  0.48610  0.93534  0.34990  1.0000
  C   C214      1.0  0.41051  0.23340  0.33851  1.0000
  C   C215      1.0  0.35125  0.26149  0.31561  1.0000
  Fe  Fe27      1.0  0.36236  0.79145  0.41589  1.0000
  C   C216      1.0  0.44355  0.97853  0.34579  1.0000
  H   H354      1.0  0.75865  0.95580  0.32251  1.0000
  H   H355      1.0  0.74162  0.19072  0.41802  1.0000
  H   H356      1.0  0.52222  0.94696  0.34375  1.0000
  S   S58       1.0  0.45349  0.05319  0.34105  1.0000
  H   H357      1.0  0.36185  0.99543  0.34672  1.0000
  H   H358      1.0  0.35328  0.14109  0.34172  1.0000
  H   H359      1.0  0.38411  0.01906  0.43229  1.0000
  C   C217      1.0  0.60191  0.98779  0.26740  1.0000
  H   H360      1.0  0.46740  0.08145  0.25152  1.0000
  Fe  Fe28      1.0  0.60384  0.15183  0.45167  1.0000
  H   H361      1.0  0.73310  0.18652  0.48296  1.0000
  S   S59       1.0  0.61095  0.24240  0.47822  1.0000
  H   H362      1.0  0.47203  0.15851  0.26369  1.0000
  C   C218      1.0  0.78306  0.20209  0.42101  1.0000
  C   C219      1.0  0.42458  0.00263  0.45658  1.0000
  C   C220      1.0  0.72546  0.16494  0.25665  1.0000
  C   C221      1.0  0.67874  0.14092  0.26909  1.0000
  H   H363      1.0  0.77955  0.22427  0.38887  1.0000
  Fe  Fe29      1.0  0.30483  0.79746  0.48457  1.0000
  Fe  Fe30      1.0  0.53630  0.06560  0.39009  1.0000
  H   H364      1.0  0.44005  0.96453  0.44245  1.0000
  H   H365      1.0  0.63577  0.86319  0.47186  1.0000
  H   H366      1.0  0.43836  0.25837  0.32692  1.0000
  H   H367      1.0  0.71007  0.91151  0.25182  1.0000
  H   H368      1.0  0.68547  0.87171  0.40943  1.0000
  C   C222      1.0  0.49264  0.11908  0.25495  1.0000
  C   C223      1.0  0.63096  0.95159  0.24725  1.0000
  C   C224      1.0  0.34719  0.16222  0.25398  1.0000
  H   H369      1.0  0.69195  0.12874  0.30496  1.0000
  S   S60       1.0  0.33439  0.86498  0.44901  1.0000
  H   H370      1.0  0.51639  0.84425  0.36778  1.0000
  S   S61       1.0  0.67710  0.08614  0.47624  1.0000
  S   S62       1.0  0.58858  0.13452  0.38027  1.0000
  H   H371      1.0  0.74048  0.20017  0.27962  1.0000
  H   H372      1.0  0.76918  0.07021  0.31472  1.0000
  H   H373      1.0  0.78096  0.28693  0.44806  1.0000
  C   C225      1.0  0.58253  0.79230  0.46334  1.0000
  H   H374      1.0  0.63804  0.28791  0.36165  1.0000
  S   S63       1.0  0.43711  0.79276  0.39729  1.0000
  H   H375      1.0  0.72894  0.04140  0.24143  1.0000
  H   H376      1.0  0.90839  0.75805  0.66936  1.0000
  H   H377      1.0  0.07474  0.51939  0.62742  1.0000
  H   H378      1.0  0.91605  0.60468  0.51617  1.0000
  H   H379      1.0  0.07327  0.30490  0.59527  1.0000
  S   S64       1.0  0.84476  0.35471  0.62699  1.0000
  H   H380      1.0  0.98022  0.52359  0.62448  1.0000
  S   S65       1.0  0.90541  0.64520  0.62950  1.0000
  H   H381      1.0  0.80674  0.70469  0.71070  1.0000
  C   C226      1.0  0.11047  0.41652  0.60289  1.0000
  H   H382      1.0  0.99694  0.46478  0.66766  1.0000
  H   H383      1.0  0.01883  0.49602  0.55497  1.0000
  C   C227      1.0  0.25571  0.53685  0.70152  1.0000
  C   C228      1.0  0.01297  0.50030  0.65301  1.0000
  H   H384      1.0  0.08558  0.64066  0.63584  1.0000
  H   H385      1.0  0.24045  0.62768  0.67702  1.0000
  H   H386      1.0  0.92999  0.49076  0.54546  1.0000
  H   H387      1.0  0.25253  0.64303  0.49372  1.0000
  H   H388      1.0  0.00700  0.38260  0.63845  1.0000
  H   H389      1.0  0.27591  0.74356  0.61870  1.0000
  C   C229      1.0  0.95305  0.44774  0.55980  1.0000
  H   H390      1.0  0.92490  0.41467  0.69262  1.0000
  H   H391      1.0  0.10611  0.49170  0.55620  1.0000
  C   C230      1.0  0.06847  0.66396  0.65865  1.0000
  C   C231      1.0  0.06305  0.47905  0.64078  1.0000
  H   H392      1.0  0.28241  0.44591  0.72300  1.0000
  H   H393      1.0  0.24716  0.58711  0.53147  1.0000
  C   C232      1.0  0.91086  0.33183  0.66293  1.0000
  C   C233      1.0  0.26926  0.59806  0.50878  1.0000
  H   H394      1.0  0.00919  0.76273  0.67388  1.0000
  Fe  Fe31      1.0  0.81760  0.45076  0.62760  1.0000
  H   H395      1.0  0.02946  0.68853  0.63806  1.0000
  C   C234      1.0  0.94102  0.61997  0.71865  1.0000
  H   H396      1.0  0.80651  0.31300  0.52575  1.0000
  N   N17       1.0  0.05616  0.43064  0.60897  1.0000
  H   H397      1.0  0.80602  0.74620  0.64633  1.0000
  H   H398      1.0  0.14902  0.67738  0.70296  1.0000
  H   H399      1.0  0.06025  0.62968  0.68000  1.0000
  H   H400      1.0  0.15585  0.35121  0.52036  1.0000
  H   H401      1.0  0.94476  0.43814  0.59054  1.0000
  C   C235      1.0  0.92068  0.72335  0.69537  1.0000
  H   H402      1.0  0.14182  0.39749  0.63441  1.0000
  H   H403      1.0  0.90641  0.31865  0.56311  1.0000
  H   H404      1.0  0.17100  0.44995  0.57842  1.0000
  H   H405      1.0  0.00245  0.33127  0.56889  1.0000
  H   H406      1.0  0.18708  0.74983  0.62987  1.0000
  C   C236      1.0  0.99566  0.35344  0.71818  1.0000
  H   H407      1.0  0.02067  0.42295  0.53850  1.0000
  C   C237      1.0  0.13511  0.46802  0.58653  1.0000
  C   C238      1.0  0.26968  0.58927  0.68625  1.0000
  H   H408      1.0  0.88859  0.31435  0.50508  1.0000
  N   N18       1.0  0.09279  0.74191  0.71727  1.0000
  H   H409      1.0  0.93439  0.41476  0.53586  1.0000
  C   C239      1.0  0.04590  0.78561  0.69102  1.0000
  C   C240      1.0  0.04389  0.37554  0.62950  1.0000
  S   S66       1.0  0.80973  0.51521  0.57111  1.0000
  H   H410      1.0  0.15073  0.49921  0.61272  1.0000
  C   C241      1.0  0.01389  0.45011  0.56462  1.0000
  H   H411      1.0  0.07714  0.36191  0.66145  1.0000
  H   H412      1.0  0.10746  0.38236  0.57850  1.0000
  C   C242      1.0  0.11022  0.70502  0.68553  1.0000
  H   H413      1.0  0.09708  0.46528  0.67211  1.0000
  C   C243      1.0  0.19204  0.77679  0.60368  1.0000
  H   H414      1.0  0.94717  0.57478  0.71118  1.0000
  H   H415      1.0  0.03562  0.68561  0.72922  1.0000
  H   H416      1.0  0.11910  0.73359  0.66081  1.0000
  H   H417      1.0  0.09004  0.38768  0.49247  1.0000
  C   C244      1.0  0.03563  0.32171  0.60092  1.0000
  C   C245      1.0  0.89114  0.28903  0.53571  1.0000
  Fe  Fe32      1.0  0.84460  0.57840  0.62352  1.0000
  S   S67       1.0  0.21671  0.31068  0.60761  1.0000
  C   C246      1.0  0.92473  0.66439  0.68480  1.0000
  S   S68       1.0  0.85754  0.51206  0.67948  1.0000
  C   C247      1.0  0.94182  0.37078  0.69154  1.0000
  H   H418      1.0  0.02529  0.53297  0.67862  1.0000
  H   H419      1.0  0.87239  0.67110  0.50326  1.0000
  C   C248      1.0  0.01873  0.29694  0.71639  1.0000
  H   H420      1.0  0.24511  0.71006  0.72837  1.0000
  C   C249      1.0  0.24241  0.77303  0.59729  1.0000
  S   S69       1.0  0.19208  0.53531  0.70859  1.0000
  C   C250      1.0  0.93049  0.73729  0.73951  1.0000
  H   H421      1.0  0.01945  0.38412  0.73963  1.0000
  H   H422      1.0  0.95881  0.68265  0.48983  1.0000
  Fe  Fe33      1.0  0.25291  0.36884  0.82847  1.0000
  S   S70       1.0  0.10994  0.44936  0.76642  1.0000
  C   C251      1.0  0.22220  0.41737  0.94287  1.0000
  H   H423      1.0  0.25817  0.66285  0.98746  1.0000
  H   H424      1.0  0.81884  0.67045  0.77811  1.0000
  H   H425      1.0  0.82631  0.54717  0.92327  1.0000
  H   H426      1.0  0.95940  0.42646  0.77813  1.0000
  H   H427      1.0  0.04321  0.40153  0.87268  1.0000
  H   H428      1.0  0.09594  0.62753  0.79391  1.0000
  H   H429      1.0  0.04362  0.36344  0.82550  1.0000
  S   S71       1.0  0.21222  0.36607  0.75524  1.0000
  H   H430      1.0  0.09635  0.40584  0.94941  1.0000
  S   S72       1.0  0.23622  0.46667  0.82913  1.0000
  H   H431      1.0  0.96333  0.49777  0.92514  1.0000
  Fe  Fe34      1.0  0.15851  0.44668  0.83840  1.0000
  S   S73       1.0  0.94962  0.70701  0.82737  1.0000
  H   H432      1.0  0.11016  0.61621  0.95090  1.0000
  H   H433      1.0  0.86984  0.48929  0.91476  1.0000
  H   H434      1.0  0.86609  0.68574  0.98684  1.0000
  H   H435      1.0  0.89909  0.29790  0.88515  1.0000
  C   C252      1.0  0.16630  0.43014  0.93433  1.0000
  H   H436      1.0  0.82232  0.72722  0.81675  1.0000
  H   H437      1.0  0.17623  0.74060  0.76157  1.0000
  H   H438      1.0  0.90523  0.39287  0.84150  1.0000
  H   H439      1.0  0.87706  0.58262  0.81955  1.0000
  N   N19       1.0  0.98171  0.33980  0.85252  1.0000
  H   H440      1.0  0.12621  0.62087  0.75227  1.0000
  C   C253      1.0  0.98466  0.43840  0.81137  1.0000
  S   S74       1.0  0.17899  0.34927  0.84354  1.0000
  H   H441      1.0  0.87879  0.34686  0.98103  1.0000
  H   H442      1.0  0.27614  0.68741  0.81142  1.0000
  C   C254      1.0  0.79542  0.69718  0.79483  1.0000
  Fe  Fe35      1.0  0.99280  0.78628  0.85398  1.0000
  C   C255      1.0  0.07431  0.70419  0.74774  1.0000
  H   H443      1.0  0.99991  0.60039  0.91298  1.0000
  H   H444      1.0  0.95052  0.32384  0.93244  1.0000
  H   H445      1.0  0.84082  0.67617  0.92883  1.0000
  H   H446      1.0  0.82824  0.62457  0.96755  1.0000
  C   C256      1.0  0.01059  0.57225  0.94384  1.0000
  H   H447      1.0  0.96053  0.59870  0.78809  1.0000
  H   H448      1.0  0.04670  0.54181  0.94584  1.0000
  C   C257      1.0  0.16838  0.34879  0.98512  1.0000
  H   H449      1.0  0.07462  0.68122  0.96126  1.0000
  H   H450      1.0  0.28216  0.62825  0.77895  1.0000
  C   C258      1.0  0.94358  0.69219  0.77287  1.0000
  H   H451      1.0  0.95966  0.40920  0.88932  1.0000
  H   H452      1.0  0.94107  0.64834  0.96456  1.0000
  C   C259      1.0  0.01604  0.38423  0.84177  1.0000
  H   H453      1.0  0.94256  0.55371  0.85568  1.0000
  C   C260      1.0  0.25144  0.37151  0.97350  1.0000
  H   H454      1.0  0.95868  0.46480  0.82596  1.0000
  H   H455      1.0  0.15265  0.66813  0.79753  1.0000
  H   H456      1.0  0.88277  0.51634  0.85225  1.0000
  C   C261      1.0  0.11522  0.65253  0.77395  1.0000
  H   H457      1.0  0.91060  0.63908  0.88782  1.0000
  C   C262      1.0  0.95318  0.31040  0.81065  1.0000
  H   H458      1.0  0.01461  0.46770  0.80681  1.0000
  C   C263      1.0  0.86890  0.52601  0.93646  1.0000
  H   H459      1.0  0.83569  0.78126  0.75993  1.0000
  H   H460      1.0  0.84623  0.61243  0.87754  1.0000
  C   C264      1.0  0.94943  0.63366  0.76237  1.0000
  C   C265      1.0  0.91247  0.61587  0.96708  1.0000
  C   C266      1.0  0.85836  0.65221  0.96164  1.0000
  H   H461      1.0  0.06473  0.73098  0.77288  1.0000
  N   N20       1.0  0.90925  0.56892  0.93464  1.0000
  Fe  Fe36      1.0  0.13646  0.35272  0.77083  1.0000
  H   H462      1.0  0.02306  0.59996  0.97260  1.0000
  C   C267      1.0  0.94095  0.37234  0.86945  1.0000
  Fe  Fe37      1.0  0.18948  0.46282  0.75671  1.0000
  C   C268      1.0  0.13944  0.39611  0.95569  1.0000
  H   H463      1.0  0.92587  0.78267  0.74741  1.0000
  H   H464      1.0  0.88660  0.36582  0.90709  1.0000
  S   S75       1.0  0.12921  0.48114  0.89100  1.0000
  C   C269      1.0  0.91849  0.33710  0.90005  1.0000
  C   C270      1.0  0.89899  0.55973  0.85243  1.0000
  H   H465      1.0  0.98218  0.29283  0.79460  1.0000
  C   C271      1.0  0.89055  0.59794  0.88864  1.0000
  C   C272      1.0  0.14064  0.77282  0.74476  1.0000
  H   H466      1.0  0.24284  0.44252  0.92551  1.0000
  H   H467      1.0  0.92558  0.34335  0.78526  1.0000
  H   H468      1.0  0.10000  0.29726  0.88114  1.0000
  C   C273      1.0  0.96464  0.53562  0.94623  1.0000
  H   H469      1.0  0.97875  0.51587  0.98063  1.0000
  H   H470      1.0  0.20291  0.59233  0.97571  1.0000
  H   H471      1.0  0.03673  0.31940  0.91953  1.0000
  H   H472      1.0  0.14028  0.68466  0.95758  1.0000
  S   S76       1.0  0.08363  0.77871  0.88573  1.0000
  C   C274      1.0  0.11544  0.65663  0.96964  1.0000
  H   H473      1.0  0.84573  0.46623  0.97909  1.0000
  C   C275      1.0  0.01950  0.29679  0.88820  1.0000
  C   C276      1.0  0.87734  0.49703  0.98244  1.0000
  C   C277      1.0  0.28771  0.71256  0.75052  1.0000
  H   H474      1.0  0.79148  0.35535  0.77404  1.0000
  H   H475      1.0  0.21151  0.72532  0.98868  1.0000
  H   H476      1.0  0.03362  0.33704  0.09441  1.0000
  H   H477      1.0  0.21843  0.65777  0.12764  1.0000
  H   H478      1.0  0.13176  0.68169  0.03661  1.0000
  C   C278      1.0  0.20541  0.58446  0.08273  1.0000
  H   H479      1.0  0.28271  0.38607  0.09679  1.0000
  H   H480      1.0  0.17339  0.33871  0.16323  1.0000
  H   H481      1.0  0.05772  0.33913  0.15338  1.0000
  C   C279      1.0  0.23584  0.66499  0.04824  1.0000
  H   H482      1.0  0.14835  0.63955  0.10550  1.0000
  H   H483      1.0  0.79755  0.45081  0.22779  1.0000
  H   H484      1.0  0.18033  0.54647  0.07772  1.0000
  S   S77       1.0  0.00604  0.58157  0.16964  1.0000
  C   C280      1.0  0.22462  0.33730  0.99476  1.0000
  H   H485      1.0  0.87218  0.52957  0.00585  1.0000
  H   H486      1.0  0.86886  0.31689  0.09754  1.0000
  C   C281      1.0  0.14768  0.42888  0.07111  1.0000
  H   H487      1.0  0.01633  0.76730  0.16965  1.0000
  H   H488      1.0  0.13440  0.57919  0.23442  1.0000
  C   C282      1.0  0.24648  0.69455  0.00869  1.0000
  H   H489      1.0  0.96451  0.30379  0.03184  1.0000
  H   H490      1.0  0.22196  0.29786  0.23412  1.0000
  S   S78       1.0  0.79611  0.68027  0.23179  1.0000
  Fe  Fe38      1.0  0.03730  0.48883  0.16571  1.0000
  S   S79       1.0  0.98575  0.48272  0.09501  1.0000
  H   H491      1.0  0.87616  0.75457  0.17340  1.0000
  H   H492      1.0  0.24812  0.56539  0.09913  1.0000
  C   C283      1.0  0.19970  0.42425  0.06794  1.0000
  C   C284      1.0  0.80723  0.67615  0.10972  1.0000
  C   C285      1.0  0.87136  0.59927  0.15610  1.0000
  H   H493      1.0  0.93911  0.36264  0.05595  1.0000
  C   C286      1.0  0.93309  0.31617  0.04706  1.0000
  S   S80       1.0  0.11859  0.68419  0.17729  1.0000
  H   H494      1.0  0.27631  0.64738  0.07182  1.0000
  S   S81       1.0  0.28707  0.31594  0.17382  1.0000
  C   C287      1.0  0.79701  0.49648  0.21484  1.0000
  C   C288      1.0  0.13870  0.39856  0.10590  1.0000
  H   H495      1.0  0.87530  0.59259  0.22397  1.0000
  H   H496      1.0  0.81803  0.41360  0.16208  1.0000
  H   H497      1.0  0.96003  0.34724  0.13246  1.0000
  C   C289      1.0  0.13890  0.64156  0.01995  1.0000
  C   C290      1.0  0.24271  0.38993  0.09971  1.0000
  N   N21       1.0  0.95947  0.77381  0.20573  1.0000
  H   H498      1.0  0.19832  0.59299  0.14752  1.0000
  C   C291      1.0  0.81423  0.66055  0.18625  1.0000
  Fe  Fe39      1.0  0.07354  0.60830  0.14827  1.0000
  C   C292      1.0  0.84824  0.63073  0.11524  1.0000
  H   H499      1.0  0.83107  0.49977  0.20226  1.0000
  H   H500      1.0  0.84485  0.34301  0.02036  1.0000
  C   C293      1.0  0.14416  0.67220  0.23438  1.0000
  S   S82       1.0  0.09515  0.47766  0.03508  1.0000
  H   H501      1.0  0.90113  0.56220  0.16025  1.0000
  H   H502      1.0  0.89706  0.75863  0.11118  1.0000
  H   H503      1.0  0.80556  0.50029  0.13151  1.0000
  H   H504      1.0  0.28138  0.72155  0.02149  1.0000
  H   H505      1.0  0.95794  0.74681  0.09829  1.0000
  S   S83       1.0  0.03267  0.42117  0.21498  1.0000
  C   C294      1.0  0.97234  0.77959  0.16352  1.0000
  S   S84       1.0  0.11028  0.51610  0.15182  1.0000
  H   H506      1.0  0.09897  0.40306  0.10907  1.0000
  H   H507      1.0  0.92948  0.59667  0.00160  1.0000
  H   H508      1.0  0.20666  0.44652  0.04073  1.0000
  C   C295      1.0  0.87692  0.32022  0.00975  1.0000
  S   S85       1.0  0.02479  0.61134  0.07632  1.0000
  S   S86       1.0  0.87185  0.61569  0.07147  1.0000
  C   C296      1.0  0.18111  0.36265  0.13687  1.0000
  N   N22       1.0  0.19779  0.61669  0.03909  1.0000
  H   H509      1.0  0.13563  0.76575  0.10106  1.0000
  C   C297      1.0  0.85562  0.61544  0.19189  1.0000
  Fe  Fe40      1.0  0.95890  0.57753  0.09787  1.0000
  C   C298      1.0  0.94092  0.74265  0.12537  1.0000
  C   C299      1.0  0.26749  0.54035  0.02511  1.0000
  Fe  Fe41      1.0  0.05646  0.51660  0.08082  1.0000
  C   C300      1.0  0.23324  0.35833  0.13383  1.0000
  H   H510      1.0  0.94549  0.69534  0.13548  1.0000
  C   C301      1.0  0.19167  0.62162  0.11734  1.0000
  H   H511      1.0  0.17995  0.53797  0.00313  1.0000
  H   H512      1.0  0.11188  0.60977  0.02653  1.0000
  C   C302      1.0  0.20950  0.57219  0.00907  1.0000
  H   H513      1.0  0.22111  0.70122  0.06492  1.0000
  H   H514      1.0  0.27566  0.51087  0.05503  1.0000
  C   C303      1.0  0.03566  0.31306  0.12535  1.0000
  H   H515      1.0  0.93569  0.41866  0.23706  1.0000
  C   C304      1.0  0.97877  0.30376  0.12727  1.0000
  H   H516      1.0  0.91710  0.47047  0.99673  1.0000
  H   H517      1.0  0.27158  0.51188  0.99888  1.0000
  H   H518      1.0  0.14747  0.32260  0.00149  1.0000
  H   H519      1.0  0.25100  0.63259  0.23601  1.0000
  H   H520      1.0  0.94776  0.68105  0.20498  1.0000
  H   H521      1.0  0.01663  0.69574  0.22212  1.0000
  C   C305      1.0  0.97653  0.71135  0.22489  1.0000
  C   C306      1.0  0.96976  0.53132  0.30528  1.0000
  C   C307      1.0  0.27742  0.59066  0.24611  1.0000
  H   H522      1.0  0.21870  0.46299  0.43565  1.0000
  H   H523      1.0  0.16308  0.41704  0.37056  1.0000
  H   H524      1.0  0.02306  0.38351  0.33151  1.0000
  C   C308      1.0  0.14001  0.44654  0.38619  1.0000
  S   S87       1.0  0.82818  0.38254  0.40782  1.0000
  S   S88       1.0  0.25152  0.33453  0.40732  1.0000
  H   H525      1.0  0.03409  0.41714  0.42273  1.0000
  H   H526      1.0  0.06608  0.76475  0.27230  1.0000
  Fe  Fe42      1.0  0.82747  0.39954  0.33866  1.0000
  S   S89       1.0  0.95042  0.56471  0.34634  1.0000
  C   C309      1.0  0.14931  0.39425  0.45780  1.0000
  C   C310      1.0  0.00834  0.46360  0.24948  1.0000
  C   C311      1.0  0.83617  0.68745  0.34283  1.0000
  H   H527      1.0  0.07256  0.32971  0.40318  1.0000
  C   C312      1.0  0.92761  0.66007  0.46444  1.0000
  H   H528      1.0  0.86887  0.62007  0.39388  1.0000
  H   H529      1.0  0.18584  0.36649  0.45734  1.0000
  S   S90       1.0  0.91017  0.48786  0.43624  1.0000
  H   H530      1.0  0.82354  0.73500  0.33579  1.0000
  H   H531      1.0  0.81815  0.67013  0.40202  1.0000
  H   H532      1.0  0.16413  0.52008  0.43039  1.0000
  C   C313      1.0  0.18150  0.48823  0.41248  1.0000
  C   C314      1.0  0.05968  0.44499  0.41044  1.0000
  C   C315      1.0  0.12425  0.36082  0.48736  1.0000
  S   S91       1.0  0.22284  0.64502  0.38291  1.0000
  H   H533      1.0  0.26034  0.56768  0.48158  1.0000
  C   C316      1.0  0.23529  0.30972  0.26882  1.0000
  H   H534      1.0  0.07581  0.51746  0.26691  1.0000
  H   H535      1.0  0.02228  0.67594  0.29217  1.0000
  H   H536      1.0  0.84197  0.74361  0.45065  1.0000
  H   H537      1.0  0.03317  0.45745  0.37588  1.0000
  C   C317      1.0  0.01858  0.54282  0.29941  1.0000
  H   H538      1.0  0.01475  0.75783  0.41200  1.0000
  H   H539      1.0  0.85835  0.61086  0.46667  1.0000
  C   C318      1.0  0.06455  0.36174  0.33825  1.0000
  S   S92       1.0  0.81259  0.49733  0.33848  1.0000
  Fe  Fe43      1.0  0.82026  0.48125  0.40954  1.0000
  H   H540      1.0  0.17616  0.56328  0.31592  1.0000
  H   H541      1.0  0.97655  0.73742  0.29184  1.0000
  C   C319      1.0  0.95887  0.45317  0.25446  1.0000
  C   C320      1.0  0.98841  0.74806  0.43160  1.0000
  H   H542      1.0  0.08558  0.38552  0.31922  1.0000
  S   S93       1.0  0.91821  0.40113  0.35961  1.0000
  H   H543      1.0  0.88559  0.75580  0.25430  1.0000
  C   C321      1.0  0.09736  0.35495  0.38828  1.0000
  H   H544      1.0  0.26726  0.34043  0.27370  1.0000
  C   C322      1.0  0.98141  0.69855  0.27359  1.0000
  Fe  Fe44      1.0  0.90317  0.49796  0.36549  1.0000
  H   H545      1.0  0.04282  0.57574  0.31805  1.0000
  N   N23       1.0  0.11176  0.41137  0.41121  1.0000
  H   H546      1.0  0.19929  0.33426  0.27311  1.0000
  H   H547      1.0  0.80518  0.52478  0.24343  1.0000
  H   H548      1.0  0.19506  0.51427  0.38911  1.0000
  H   H549      1.0  0.24397  0.40456  0.32988  1.0000
  H   H550      1.0  0.90110  0.47947  0.28585  1.0000
  C   C323      1.0  0.87468  0.75495  0.43788  1.0000
  C   C324      1.0  0.18813  0.65493  0.32617  1.0000
  H   H551      1.0  0.06907  0.53976  0.41248  1.0000
  H   H552      1.0  0.95991  0.67211  0.39508  1.0000
  C   C325      1.0  0.28613  0.40022  0.35146  1.0000
  C   C326      1.0  0.93943  0.48745  0.28210  1.0000
  H   H553      1.0  0.16585  0.43285  0.47608  1.0000
  Fe  Fe45      1.0  0.28286  0.29229  0.47572  1.0000
  C   C327      1.0  0.85518  0.66787  0.39232  1.0000
  H   H554      1.0  0.05939  0.31743  0.32489  1.0000
  C   C328      1.0  0.03765  0.50921  0.27111  1.0000
  H   H555      1.0  0.18912  0.74884  0.32582  1.0000
  N   N24       1.0  0.89915  0.70046  0.42375  1.0000
  C   C329      1.0  0.16127  0.71962  0.26015  1.0000
  H   H556      1.0  0.13501  0.32564  0.39232  1.0000
  H   H557      1.0  0.02845  0.51338  0.44327  1.0000
  H   H558      1.0  0.10966  0.47347  0.35803  1.0000
  H   H559      1.0  0.11108  0.31772  0.47493  1.0000
  C   C330      1.0  0.14774  0.61602  0.25440  1.0000
  H   H560      1.0  0.95064  0.66836  0.27527  1.0000
  C   C331      1.0  0.18073  0.71134  0.30602  1.0000
  C   C332      1.0  0.17092  0.60708  0.30048  1.0000
  C   C333      1.0  0.94139  0.71379  0.40335  1.0000
  H   H561      1.0  0.95003  0.62126  0.45601  1.0000
  Fe  Fe46      1.0  0.91799  0.39103  0.42826  1.0000
  H   H562      1.0  0.80022  0.66407  0.32472  1.0000
  C   C334      1.0  0.06536  0.50291  0.43431  1.0000
  H   H563      1.0  0.92327  0.73952  0.37127  1.0000
  H   H564      1.0  0.86802  0.67461  0.32835  1.0000
  Fe  Fe47      1.0  0.25990  0.72991  0.40308  1.0000
  S   S94       1.0  0.98505  0.33248  0.47684  1.0000
  H   H565      1.0  0.09971  0.50028  0.46596  1.0000
  H   H566      1.0  0.01509  0.72199  0.46178  1.0000
  H   H567      1.0  0.15793  0.76312  0.24474  1.0000
  H   H568      1.0  0.90472  0.77348  0.46681  1.0000
  C   C335      1.0  0.89075  0.63585  0.48839  1.0000
  H   H569      1.0  0.25030  0.55579  0.24695  1.0000
  C   C336      1.0  0.98750  0.25700  0.68893  1.0000
  C   C337      1.0  0.92308  0.11498  0.68161  1.0000
  N   N25       1.0  0.81125  0.22387  0.50418  1.0000
  H   H570      1.0  0.17892  0.91254  0.63251  1.0000
  H   H571      1.0  0.97537  0.00209  0.70701  1.0000
  C   C338      1.0  0.15583  0.21459  0.58796  1.0000
  S   S95       1.0  0.03964  0.95237  0.63952  1.0000
  C   C339      1.0  0.20609  0.84566  0.53592  1.0000
  H   H572      1.0  0.91001  0.24408  0.63997  1.0000
  H   H573      1.0  0.99164  0.86063  0.69485  1.0000
  C   C340      1.0  0.12706  0.16256  0.64213  1.0000
  S   S96       1.0  0.95657  0.93095  0.54021  1.0000
  C   C341      1.0  0.24943  0.80701  0.56316  1.0000
  H   H574      1.0  0.27800  0.10404  0.62416  1.0000
  C   C342      1.0  0.15609  0.85099  0.54326  1.0000
  C   C343      1.0  0.25769  0.07327  0.72544  1.0000
  H   H575      1.0  0.86650  0.16433  0.55625  1.0000
  H   H576      1.0  0.17676  0.79906  0.69480  1.0000
  C   C344      1.0  0.84887  0.16800  0.51947  1.0000
  H   H577      1.0  0.23210  0.02461  0.56520  1.0000
  H   H578      1.0  0.83133  0.97157  0.54498  1.0000
  H   H579      1.0  0.03360  0.22883  0.53189  1.0000
  H   H580      1.0  0.21076  0.09991  0.55554  1.0000
  S   S97       1.0  0.89636  0.94945  0.63790  1.0000
  H   H581      1.0  0.19584  0.27948  0.68605  1.0000
  C   C345      1.0  0.82643  0.94954  0.60889  1.0000
  Fe  Fe48      1.0  0.05295  0.03930  0.61278  1.0000
  S   S98       1.0  0.06751  0.99998  0.55436  1.0000
  C   C346      1.0  0.79197  0.93649  0.63228  1.0000
  H   H582      1.0  0.28174  0.96977  0.52715  1.0000
  C   C347      1.0  0.22781  0.98339  0.66082  1.0000
  C   C348      1.0  0.93356  0.27449  0.66208  1.0000
  S   S99       1.0  0.23637  0.23379  0.50436  1.0000
  H   H583      1.0  0.05522  0.80894  0.66403  1.0000
  Fe  Fe49      1.0  0.97692  0.01958  0.52121  1.0000
  H   H584      1.0  0.88559  0.01768  0.72103  1.0000
  H   H585      1.0  0.80189  0.83519  0.71737  1.0000
  H   H586      1.0  0.95413  0.12674  0.66726  1.0000
  C   C349      1.0  0.02753  0.83289  0.71757  1.0000
  H   H587      1.0  0.17132  0.05192  0.57563  1.0000
  H   H588      1.0  0.20040  0.95025  0.59319  1.0000
  H   H589      1.0  0.05942  0.86284  0.73238  1.0000
  H   H590      1.0  0.12979  0.85553  0.70333  1.0000
  H   H591      1.0  0.92175  0.25049  0.54230  1.0000
  C   C350      1.0  0.00395  0.21577  0.50188  1.0000
  C   C351      1.0  0.83480  0.27187  0.53433  1.0000
  C   C352      1.0  0.12781  0.16955  0.59900  1.0000
  C   C353      1.0  0.24691  0.07416  0.62553  1.0000
  Fe  Fe50      1.0  0.95113  0.97286  0.60063  1.0000
  C   C354      1.0  0.28549  0.05162  0.49364  1.0000
  H   H592      1.0  0.83977  0.25877  0.56903  1.0000
  H   H593      1.0  0.10905  0.13875  0.57483  1.0000
  C   C355      1.0  0.82385  0.10915  0.50568  1.0000
  H   H594      1.0  0.88808  0.14913  0.66872  1.0000
  C   C356      1.0  0.15101  0.20295  0.67308  1.0000
  H   H595      1.0  0.21900  0.10257  0.63696  1.0000
  C   C357      1.0  0.99381  0.15657  0.49714  1.0000
  C   C358      1.0  0.21311  0.06117  0.57804  1.0000
  H   H596      1.0  0.21150  0.87238  0.50988  1.0000
  C   C359      1.0  0.21349  0.93418  0.62812  1.0000
  H   H597      1.0  0.24088  0.95939  0.69394  1.0000
  C   C360      1.0  0.17723  0.24882  0.66171  1.0000
  H   H598      1.0  0.01621  0.12413  0.52332  1.0000
  H   H599      1.0  0.02420  0.28505  0.61840  1.0000
  H   H600      1.0  0.88435  0.16957  0.50798  1.0000
  C   C361      1.0  0.18104  0.25394  0.61961  1.0000
  C   C362      1.0  0.14912  0.81640  0.57717  1.0000
  H   H601      1.0  0.79665  0.83305  0.55543  1.0000
  H   H602      1.0  0.80885  0.92630  0.66756  1.0000
  H   H603      1.0  0.90773  0.07281  0.66891  1.0000
  H   H604      1.0  0.15025  0.19808  0.70636  1.0000
  H   H605      1.0  0.24775  0.89926  0.63498  1.0000
  H   H606      1.0  0.18914  0.01044  0.65721  1.0000
  H   H607      1.0  0.00581  0.21345  0.68709  1.0000
  Fe  Fe51      1.0  0.04615  0.91467  0.57809  1.0000
  S   S100      1.0  0.96358  0.06314  0.57882  1.0000
  H   H608      1.0  0.15748  0.21908  0.55498  1.0000
  S   S101      1.0  0.08766  0.82292  0.58778  1.0000
  S   S102      1.0  0.10327  0.10022  0.66057  1.0000
  N   N26       1.0  0.27100  0.02226  0.65803  1.0000
  H   H609      1.0  0.12299  0.88158  0.52265  1.0000
  H   H610      1.0  0.85384  0.07893  0.49739  1.0000
  H   H611      1.0  0.03195  0.07841  0.70884  1.0000
  C   C363      1.0  0.16125  0.81899  0.71964  1.0000
  H   H612      1.0  0.23358  0.11352  0.70700  1.0000
  C   C364      1.0  0.27184  0.99402  0.49566  1.0000
  C   C365      1.0  0.94477  0.11425  0.73265  1.0000
  C   C366      1.0  0.80468  0.96252  0.56327  1.0000
  Fe  Fe52      1.0  0.26549  0.28543  0.56459  1.0000
  H   H613      1.0  0.81658  0.08641  0.53383  1.0000
  H   H614      1.0  0.91584  0.94403  0.73393  1.0000
  H   H615      1.0  0.22983  0.04191  0.73073  1.0000
  N   N27       1.0  0.26160  0.13203  0.88890  1.0000
  C   C367      1.0  0.91665  0.26172  0.81360  1.0000
  C   C368      1.0  0.26716  0.83529  0.93040  1.0000
  H   H616      1.0  0.87546  0.28089  0.81145  1.0000
  N   N28       1.0  0.99064  0.06783  0.75598  1.0000
  H   H617      1.0  0.14490  0.16186  0.79422  1.0000
  C   C369      1.0  0.92112  0.98997  0.74394  1.0000
  H   H618      1.0  0.18272  0.18723  0.91536  1.0000
  H   H619      1.0  0.91207  0.23293  0.78561  1.0000
  H   H620      1.0  0.24474  0.91827  0.81794  1.0000
  H   H621      1.0  0.82486  0.87464  0.79105  1.0000
  H   H622      1.0  0.10416  0.03669  0.80415  1.0000
  H   H623      1.0  0.05649  0.24752  0.84556  1.0000
  C   C370      1.0  0.93183  0.15128  0.91713  1.0000
  H   H624      1.0  0.82118  0.01116  0.96939  1.0000
  S   S103      1.0  0.00798  0.20580  0.98044  1.0000
  H   H625      1.0  0.00196  0.16429  0.81246  1.0000
  H   H626      1.0  0.04990  0.12743  0.75168  1.0000
  H   H627      1.0  0.28247  0.08639  0.75867  1.0000
  H   H628      1.0  0.00770  0.97299  0.76166  1.0000
  H   H629      1.0  0.83382  0.91223  0.88603  1.0000
  H   H630      1.0  0.13132  0.79468  0.77204  1.0000
  H   H631      1.0  0.87238  0.10843  0.86643  1.0000
  C   C371      1.0  0.06840  0.26637  0.87836  1.0000
  C   C372      1.0  0.27315  0.08711  0.92706  1.0000
  C   C373      1.0  0.98321  0.14517  0.95029  1.0000
  H   H632      1.0  0.01788  0.00070  0.94221  1.0000
  H   H633      1.0  0.20895  0.19105  0.80409  1.0000
  H   H634      1.0  0.92987  0.95415  0.96723  1.0000
  H   H635      1.0  0.99759  0.26140  0.89680  1.0000
  C   C374      1.0  0.84220  0.98125  0.95288  1.0000
  H   H636      1.0  0.08783  0.99507  0.75502  1.0000
  H   H637      1.0  0.91993  0.99098  0.77788  1.0000
  C   C375      1.0  0.82086  0.82611  0.90777  1.0000
  S   S104      1.0  0.07166  0.91676  0.90976  1.0000
  H   H638      1.0  0.01454  0.81324  0.74367  1.0000
  C   C376      1.0  0.91214  0.10344  0.89203  1.0000
  H   H639      1.0  0.24793  0.09859  0.94784  1.0000
  H   H640      1.0  0.02842  0.02871  0.82299  1.0000
  H   H641      1.0  0.08762  0.22979  0.90373  1.0000
  S   S105      1.0  0.91844  0.98997  0.86814  1.0000
  C   C377      1.0  0.25088  0.89539  0.84938  1.0000
  H   H642      1.0  0.21817  0.01775  0.90129  1.0000
  H   H643      1.0  0.84671  0.80083  0.89211  1.0000
  H   H644      1.0  0.83564  0.00364  0.92001  1.0000
  C   C378      1.0  0.20681  0.12394  0.85488  1.0000
  N   N29       1.0  0.81873  0.92245  0.94753  1.0000
  C   C379      1.0  0.22013  0.21018  0.92783  1.0000
  C   C380      1.0  0.97588  0.00739  0.74133  1.0000
  C   C381      1.0  0.04013  0.08125  0.74484  1.0000
  H   H645      1.0  0.27329  0.81206  0.96166  1.0000
  H   H646      1.0  0.12655  0.05679  0.75953  1.0000
  C   C382      1.0  0.09224  0.03978  0.76769  1.0000
  H   H647      1.0  0.02937  0.11985  0.86289  1.0000
  H   H648      1.0  0.06911  0.12537  0.82781  1.0000
  C   C383      1.0  0.01448  0.09088  0.95889  1.0000
  H   H649      1.0  0.28161  0.00751  0.89092  1.0000
  C   C384      1.0  0.21425  0.84907  0.90036  1.0000
  H   H650      1.0  0.88701  0.88069  0.93212  1.0000
  C   C385      1.0  0.00157  0.06833  0.80506  1.0000
  H   H651      1.0  0.20979  0.08441  0.83599  1.0000
  S   S106      1.0  0.13958  0.89475  0.82177  1.0000
  H   H652      1.0  0.96311  0.06558  0.81225  1.0000
  S   S107      1.0  0.98945  0.87171  0.81691  1.0000
  Fe  Fe53      1.0  0.07964  0.86779  0.85300  1.0000
  C   C386      1.0  0.84207  0.88722  0.91826  1.0000
  H   H653      1.0  0.93415  0.23168  0.84342  1.0000
  C   C387      1.0  0.02699  0.12293  0.82776  1.0000
  C   C388      1.0  0.26249  0.02311  0.91478  1.0000
  H   H654      1.0  0.16630  0.21376  0.83552  1.0000
  Fe  Fe54      1.0  0.06877  0.82834  0.94024  1.0000
  H   H655      1.0  0.20723  0.25801  0.92114  1.0000
  H   H656      1.0  0.17648  0.11447  0.87086  1.0000
  H   H657      1.0  0.23777  0.20078  0.96412  1.0000
  S   S108      1.0  0.97816  0.82874  0.91118  1.0000
  C   C389      1.0  0.20596  0.87871  0.85966  1.0000
  C   C390      1.0  0.90291  0.98122  0.98070  1.0000
  H   H658      1.0  0.90703  0.19287  0.91103  1.0000
  H   H659      1.0  0.26086  0.22726  0.88054  1.0000
  Fe  Fe55      1.0  0.98159  0.91414  0.87660  1.0000
  C   C391      1.0  0.99446  0.04286  0.93412  1.0000
  C   C392      1.0  0.18102  0.17588  0.82052  1.0000
  S   S109      1.0  0.08695  0.27649  0.74728  1.0000
  C   C393      1.0  0.94361  0.04922  0.90027  1.0000
  H   H660      1.0  0.17998  0.83703  0.90901  1.0000
  C   C394      1.0  0.26315  0.19266  0.90639  1.0000
  H   H661      1.0  0.27979  0.99331  0.94511  1.0000
  H   H662      1.0  0.90947  0.11037  0.74411  1.0000
  H   H663      1.0  0.05385  0.08564  0.98496  1.0000
  H   H664      1.0  0.95762  0.15904  0.74096  1.0000
  H   H665      1.0  0.82230  0.79984  0.93763  1.0000
  H   H666      1.0  0.91452  0.02708  0.98065  1.0000
  H   H667      1.0  0.19580  0.83902  0.74367  1.0000
  C   C395      1.0  0.79585  0.80777  0.74410  1.0000
  H   H668      1.0  0.79666  0.85932  0.98826  1.0000
  H   H669      1.0  0.28933  0.21965  0.77538  1.0000
  Fe  Fe56      1.0  0.85291  0.97143  0.16812  1.0000
  Fe  Fe57      1.0  0.95901  0.96823  0.14856  1.0000
  H   H670      1.0  0.26562  0.82398  0.03477  1.0000
  H   H671      1.0  0.22755  0.84870  0.16341  1.0000
  H   H672      1.0  0.27896  0.80376  0.09162  1.0000
  Fe  Fe58      1.0  0.92298  0.07506  0.18882  1.0000
  Fe  Fe59      1.0  0.15969  0.18837  0.12706  1.0000
  H   H673      1.0  0.15383  0.89486  0.19126  1.0000
  C   C396      1.0  0.04072  0.12051  0.20971  1.0000
  H   H674      1.0  0.88601  0.83086  0.17317  1.0000
  C   C397      1.0  0.19764  0.89720  0.21058  1.0000
  Fe  Fe60      1.0  0.20511  0.22963  0.05598  1.0000
  C   C398      1.0  0.17524  0.00296  0.21348  1.0000
  H   H675      1.0  0.00476  0.22108  0.07516  1.0000
  S   S110      1.0  0.81276  0.09190  0.02663  1.0000
  H   H676      1.0  0.15961  0.97383  0.08811  1.0000
  S   S111      1.0  0.16436  0.16208  0.01034  1.0000
  H   H677      1.0  0.82211  0.92288  0.01547  1.0000
  S   S112      1.0  0.95465  0.14354  0.23738  1.0000
  C   C399      1.0  0.08388  0.13637  0.19697  1.0000
  H   H678      1.0  0.15533  0.90967  0.11824  1.0000
  C   C400      1.0  0.88391  0.85458  0.01437  1.0000
  H   H679      1.0  0.91930  0.19819  0.01581  1.0000
  H   H680      1.0  0.24666  0.94435  0.15090  1.0000
  Fe  Fe61      1.0  0.19483  0.10066  0.07063  1.0000
  C   C401      1.0  0.15914  0.95734  0.12067  1.0000
  H   H681      1.0  0.90949  0.18995  0.13826  1.0000
  H   H682      1.0  0.18273  0.04819  0.20448  1.0000
  H   H683      1.0  0.84726  0.22987  0.13554  1.0000
  H   H684      1.0  0.10131  0.10659  0.17899  1.0000
  H   H685      1.0  0.95686  0.13588  0.04948  1.0000
  H   H686      1.0  0.85728  0.25302  0.06695  1.0000
  H   H687      1.0  0.27384  0.84093  0.21995  1.0000
  C   C402      1.0  0.02906  0.90211  0.07095  1.0000
  H   H688      1.0  0.80655  0.85994  0.11407  1.0000
  C   C403      1.0  0.04992  0.87753  0.11442  1.0000
  S   S113      1.0  0.83476  0.06824  0.15202  1.0000
  Fe  Fe62      1.0  0.85942  0.04977  0.09362  1.0000
  H   H689      1.0  0.03282  0.89787  0.00498  1.0000
  C   C404      1.0  0.82807  0.89090  0.99172  1.0000
  S   S114      1.0  0.03643  0.91138  0.15838  1.0000
  S   S115      1.0  0.94673  0.06421  0.12853  1.0000
  C   C405      1.0  0.08736  0.82773  0.12463  1.0000
  C   C406      1.0  0.08201  0.22889  0.23145  1.0000
  S   S116      1.0  0.24656  0.01910  0.06811  1.0000
  H   H690      1.0  0.96386  0.82607  0.14989  1.0000
  H   H691      1.0  0.89827  0.86143  0.05033  1.0000
  S   S117      1.0  0.87379  0.95213  0.10776  1.0000
  H   H692      1.0  0.21310  0.80368  0.20331  1.0000
  C   C407      1.0  0.88960  0.23489  0.13670  1.0000
  H   H693      1.0  0.02773  0.07682  0.20435  1.0000
  H   H694      1.0  0.13243  0.99737  0.19270  1.0000
  H   H695      1.0  0.21795  0.01679  0.15152  1.0000
  H   H696      1.0  0.12218  0.97949  0.12472  1.0000
  C   C408      1.0  0.01471  0.16077  0.22946  1.0000
  H   H697      1.0  0.27843  0.13470  0.05122  1.0000
  S   S118      1.0  0.26198  0.28060  0.03334  1.0000
  S   S119      1.0  0.11510  0.80043  0.01103  1.0000
  S   S120      1.0  0.11796  0.11585  0.08702  1.0000
  Fe  Fe63      1.0  0.09184  0.18427  0.03027  1.0000
  N   N30       1.0  0.21437  0.95765  0.20420  1.0000
  N   N31       1.0  0.94098  0.27633  0.08776  1.0000
  S   S121      1.0  0.93916  0.97987  0.21066  1.0000
  C   C409      1.0  0.96762  0.21667  0.08402  1.0000
  H   H698      1.0  0.90987  0.25663  0.16762  1.0000
  H   H699      1.0  0.84057  0.11916  0.23469  1.0000
  H   H700      1.0  0.91723  0.86579  0.00272  1.0000
  H   H701      1.0  0.98242  0.19107  0.11647  1.0000
  C   C410      1.0  0.10570  0.80357  0.09229  1.0000
  H   H702      1.0  0.91041  0.96773  0.01572  1.0000
  H   H703      1.0  0.89660  0.16616  0.05790  1.0000
  S   S122      1.0  0.16154  0.20790  0.19534  1.0000
  C   C411      1.0  0.93234  0.17774  0.04967  1.0000
  C   C412      1.0  0.04727  0.87761  0.03816  1.0000
  C   C413      1.0  0.10496  0.19018  0.20825  1.0000
  S   S123      1.0  0.12962  0.25737  0.07114  1.0000
  C   C414      1.0  0.21241  0.96974  0.15737  1.0000
  H   H704      1.0  0.00142  0.94168  0.06327  1.0000
  C   C415      1.0  0.27187  0.96124  0.23517  1.0000
  C   C416      1.0  0.08650  0.82887  0.04919  1.0000
  S   S124      1.0  0.23838  0.16720  0.11572  1.0000
  C   C417      1.0  0.23038  0.84530  0.19848  1.0000
  H   H705      1.0  0.98654  0.27621  0.15812  1.0000
  H   H706      1.0  0.10372  0.80879  0.15815  1.0000
  H   H707      1.0  0.06075  0.27059  0.12929  1.0000
  C   C418      1.0  0.89892  0.78871  0.19377  1.0000
  C   C419      1.0  0.88744  0.27205  0.09525  1.0000
  H   H708      1.0  0.27592  0.88006  0.07272  1.0000
  H   H709      1.0  0.97935  0.86294  0.21829  1.0000
  H   H710      1.0  0.06909  0.81021  0.22612  1.0000
  H   H711      1.0  0.83115  0.80220  0.21743  1.0000
  H   H712      1.0  0.86410  0.27695  0.99781  1.0000
  H   H713      1.0  0.87949  0.80665  0.01189  1.0000
  C   C420      1.0  0.28976  0.83388  0.06902  1.0000
  C   C421      1.0  0.98963  0.81871  0.23575  1.0000
  H   H714      1.0  0.28271  0.22945  0.23337  1.0000
  C   C422      1.0  0.87638  0.79563  0.23187  1.0000
  C   C423      1.0  0.02666  0.07178  0.36558  1.0000
  C   C424      1.0  0.25350  0.25516  0.30179  1.0000
  H   H715      1.0  0.00161  0.98728  0.34060  1.0000
  H   H716      1.0  0.28271  0.14150  0.32939  1.0000
  C   C425      1.0  0.79848  0.09392  0.30420  1.0000
  C   C426      1.0  0.95491  0.13952  0.45873  1.0000
  H   H717      1.0  0.21929  0.22633  0.29317  1.0000
  H   H718      1.0  0.84692  0.25224  0.45630  1.0000
  C   C427      1.0  0.84817  0.04873  0.31150  1.0000
  C   C428      1.0  0.04030  0.00772  0.35608  1.0000
  H   H719      1.0  0.86932  0.81115  0.37842  1.0000
  H   H720      1.0  0.17055  0.16210  0.38739  1.0000
  H   H721      1.0  0.28278  0.12729  0.45122  1.0000
  H   H722      1.0  0.08903  0.19286  0.41199  1.0000
  H   H723      1.0  0.16153  0.96095  0.27081  1.0000
  H   H724      1.0  0.88926  0.83526  0.25034  1.0000
  C   C429      1.0  0.24866  0.05405  0.41342  1.0000
  H   H725      1.0  0.84990  0.84784  0.41851  1.0000
  H   H726      1.0  0.91350  0.27412  0.40376  1.0000
  H   H727      1.0  0.82186  0.22368  0.28841  1.0000
  H   H728      1.0  0.96967  0.19146  0.35393  1.0000
  H   H729      1.0  0.99740  0.09281  0.33393  1.0000
  H   H730      1.0  0.03583  0.15926  0.42099  1.0000
  H   H731      1.0  0.97726  0.82377  0.26508  1.0000
  H   H732      1.0  0.11547  0.20891  0.34791  1.0000
  H   H733      1.0  0.88041  0.06646  0.30106  1.0000
  H   H734      1.0  0.13552  0.03531  0.41528  1.0000
  H   H735      1.0  0.27080  0.05511  0.25029  1.0000
  H   H736      1.0  0.27653  0.94586  0.26953  1.0000
  C   C430      1.0  0.13869  0.16490  0.35418  1.0000
  S   S125      1.0  0.22188  0.80023  0.43320  1.0000
  H   H737      1.0  0.01682  0.19905  0.32528  1.0000
  S   S126      1.0  0.21415  0.95519  0.36869  1.0000
  H   H738      1.0  0.01579  0.24643  0.25620  1.0000
  C   C431      1.0  0.80642  0.24415  0.45794  1.0000
  H   H739      1.0  0.06360  0.98068  0.38681  1.0000
  C   C432      1.0  0.09836  0.06144  0.46269  1.0000
  H   H740      1.0  0.06959  0.84240  0.27575  1.0000
  S   S127      1.0  0.94156  0.06559  0.45367  1.0000
  H   H741      1.0  0.89631  0.16874  0.39501  1.0000
  H   H742      1.0  0.15961  0.16157  0.32944  1.0000
  C   C433      1.0  0.93612  0.24137  0.42976  1.0000
  H   H743      1.0  0.83578  0.00796  0.29428  1.0000
  H   H744      1.0  0.81108  0.16166  0.42501  1.0000
  H   H745      1.0  0.23646  0.92196  0.45865  1.0000
  C   C434      1.0  0.11740  0.07693  0.42372  1.0000
  H   H746      1.0  0.87873  0.16844  0.30291  1.0000
  H   H747      1.0  0.21583  0.00977  0.28544  1.0000
  H   H748      1.0  0.25611  0.27226  0.33417  1.0000
  C   C435      1.0  0.01113  0.20357  0.35747  1.0000
  H   H749      1.0  0.08904  0.10131  0.47861  1.0000
  H   H750      1.0  0.26499  0.16414  0.25362  1.0000
  C   C436      1.0  0.84799  0.80532  0.40231  1.0000
  H   H751      1.0  0.12504  0.07367  0.34620  1.0000
  H   H752      1.0  0.00261  0.07087  0.38818  1.0000
  C   C437      1.0  0.23684  0.99546  0.41580  1.0000
  C   C438      1.0  0.81153  0.15136  0.24245  1.0000
  C   C439      1.0  0.92638  0.18184  0.42480  1.0000
  C   C440      1.0  0.84629  0.19321  0.27503  1.0000
  C   C441      1.0  0.05215  0.80757  0.25317  1.0000
  H   H753      1.0  0.81091  0.12869  0.32823  1.0000
  C   C442      1.0  0.24656  0.96664  0.45684  1.0000
  H   H754      1.0  0.06292  0.00536  0.33256  1.0000
  Fe  Fe64      1.0  0.25315  0.86440  0.39559  1.0000
  C   C443      1.0  0.17550  0.00231  0.26132  1.0000
  C   C444      1.0  0.27248  0.08250  0.45261  1.0000
  C   C445      1.0  0.10060  0.11499  0.34825  1.0000
  H   H755      1.0  0.80450  0.79913  0.38416  1.0000
  H   H756      1.0  0.24134  0.07641  0.38162  1.0000
  N   N32       1.0  0.07479  0.10753  0.38325  1.0000
  H   H757      1.0  0.15216  0.10424  0.43700  1.0000
  H   H758      1.0  0.86696  0.22056  0.25759  1.0000
  H   H759      1.0  0.86660  0.03577  0.34737  1.0000
  C   C446      1.0  0.05488  0.16592  0.39547  1.0000
  H   H760      1.0  0.14627  0.03865  0.26402  1.0000
  H   H761      1.0  0.06294  0.03478  0.45315  1.0000
  H   H762      1.0  0.01336  0.25088  0.36423  1.0000
  H   H763      1.0  0.06921  0.12237  0.31481  1.0000
  H   H764      1.0  0.97343  0.79096  0.44053  1.0000
  C   C447      1.0  0.97464  0.25828  0.46855  1.0000
  S   S128      1.0  0.28351  0.79472  0.36000  1.0000
  H   H765      1.0  0.20145  0.88772  0.24563  1.0000
  H   H766      1.0  0.28251  0.20040  0.38940  1.0000
  C   C448      1.0  0.03581  0.21482  0.24106  1.0000
  H   H767      1.0  0.13213  0.03440  0.48828  1.0000
  H   H768      1.0  0.09829  0.27089  0.24001  1.0000
