data_image0
_chemical_formula_structural       C4HCHFeCH8CH3CH2CH4C2SNH2SC2FeC2H3CH2FeCSCSFeCHCH2CHCH2C2H2CH3CH3CHSH2C2NC2HCH3SHSH4CSCHCSH3CFeH4CNCH2CHCFeH5C3H3C3H2C2H2CH2CH4NCH3CH3S2FeCSCH3CHCSHCHS2CFeCHCH2CH3CSFeCH2SHSHC2H3CH3SH3CNHCH2C2SCHC2H2SH3CHCHCHCHSH4CH2CH2C3HCHCH2FeH2SH2CSH2CHCFeCFeC3H2C3HCHFeC2H2SHC3SHCH7FeSH2FeHNCH2CHFeNHCH8C3H2CSH2CH2CHCHCNHCH3CSH2CH5SHCH3CH2CHC2HSCS2H4NC2H2FeH2CHCHC3H2CH2C2H2CHSH5SH4FeHCHCH2CH4CHSC2SCNSFeHFeCHSH3C2H3CH3C2H4SHCHNC2H2CHC2SH4C2HFeH2CH3C2HCH6FeCHFeH2CFeCHCSH3C2SHSC2H3C2HSHS2FeHC2SCH2SCH2CH2SH2CH3CHCSHCH2CFeCNH3FeHFeHC2H4NCH3CH2CH6CH2CSC2H2CNHCHCH4C2H3FeC2H2CFeSCHCH5NS2H2SHSCH2CH2SH2C2HFeSCS2C2H4C2H2C3H8CH3C2HNCHC4H2CSCFeHSHCHSHC2HCH3CH2
_chemical_formula_sum              "C224 H384 Fe32 S64 N16"
_cell_length_a       19.2163
_cell_length_b       18.0227
_cell_length_c       26.7457
_cell_angle_alpha    98
_cell_angle_beta     96.8319
_cell_angle_gamma    104.974

_space_group_name_H-M_alt    "P 1"
_space_group_IT_number       1

loop_
  _space_group_symop_operation_xyz
  'x, y, z'

loop_
  _atom_site_type_symbol
  _atom_site_label
  _atom_site_symmetry_multiplicity
  _atom_site_fract_x
  _atom_site_fract_y
  _atom_site_fract_z
  _atom_site_occupancy
  C   C1        1.0  0.37069  0.65680  0.84650  1.0000
  C   C2        1.0  0.33981  0.70535  0.82005  1.0000
  C   C3        1.0  0.76852  0.61227  0.82921  1.0000
  C   C4        1.0  0.54516  0.92489  0.84907  1.0000
  H   H1        1.0  0.62251  0.89693  0.79826  1.0000
  C   C5        1.0  0.63686  0.70030  0.67872  1.0000
  H   H2        1.0  0.55429  0.93283  0.76961  1.0000
  Fe  Fe1       1.0  0.35006  0.53971  0.73190  1.0000
  C   C6        1.0  0.60738  0.62340  0.69827  1.0000
  H   H3        1.0  0.71703  0.92700  0.66757  1.0000
  H   H4        1.0  0.68623  0.79667  0.76740  1.0000
  H   H5        1.0  0.60091  0.73695  0.69004  1.0000
  H   H6        1.0  0.79536  0.84413  0.68385  1.0000
  H   H7        1.0  0.56064  0.58517  0.67011  1.0000
  H   H8        1.0  0.52963  0.83432  0.78130  1.0000
  H   H9        1.0  0.73956  0.64455  0.85188  1.0000
  H   H10       1.0  0.58904  0.63421  0.73579  1.0000
  C   C7        1.0  0.74811  0.64701  0.62974  1.0000
  H   H11       1.0  0.71216  0.71108  0.77311  1.0000
  H   H12       1.0  0.64729  0.58917  0.70138  1.0000
  H   H13       1.0  0.48569  0.89718  0.84625  1.0000
  C   C8        1.0  0.72997  0.55440  0.78740  1.0000
  H   H14       1.0  0.76622  0.65044  0.71101  1.0000
  H   H15       1.0  0.59417  0.77258  0.82983  1.0000
  C   C9        1.0  0.73593  0.81475  0.67404  1.0000
  H   H16       1.0  0.70917  0.90295  0.72921  1.0000
  H   H17       1.0  0.63699  0.85647  0.67506  1.0000
  H   H18       1.0  0.33428  0.69774  0.77890  1.0000
  H   H19       1.0  0.62476  0.68906  0.63614  1.0000
  C   C10       1.0  0.69681  0.87782  0.68785  1.0000
  C   C11       1.0  0.80292  0.81262  0.78243  1.0000
  S   S1        1.0  0.40131  0.58296  0.81418  1.0000
  N   N1        1.0  0.71587  0.74308  0.69836  1.0000
  H   H20       1.0  0.72516  0.79850  0.63158  1.0000
  H   H21       1.0  0.79302  0.62093  0.62215  1.0000
  S   S2        1.0  0.41619  0.48974  0.68013  1.0000
  C   C12       1.0  0.56445  0.89453  0.79717  1.0000
  C   C13       1.0  0.76740  0.51340  0.75726  1.0000
  Fe  Fe2       1.0  0.37074  0.55276  0.62330  1.0000
  C   C14       1.0  0.72553  0.76455  0.75572  1.0000
  C   C15       1.0  0.76547  0.69318  0.68485  1.0000
  H   H22       1.0  0.67117  0.54104  0.77867  1.0000
  H   H23       1.0  0.69794  0.59776  0.62421  1.0000
  H   H24       1.0  0.80355  0.82335  0.82444  1.0000
  C   C16       1.0  0.31762  0.76534  0.84717  1.0000
  H   H25       1.0  0.57483  0.93512  0.05938  1.0000
  H   H26       1.0  0.68788  0.90452  0.87001  1.0000
  Fe  Fe3       1.0  0.74237  0.76934  0.02546  1.0000
  C   C17       1.0  0.59886  0.82436  0.05360  1.0000
  S   S3        1.0  0.71399  0.67660  0.95567  1.0000
  C   C18       1.0  0.47909  0.54461  0.97921  1.0000
  S   S4        1.0  0.74769  0.68882  0.08169  1.0000
  Fe  Fe4       1.0  0.72921  0.59795  0.01133  1.0000
  C   C19       1.0  0.37903  0.66819  0.89993  1.0000
  H   H27       1.0  0.60663  0.70675  0.05135  1.0000
  C   C20       1.0  0.46359  0.76961  0.08491  1.0000
  H   H28       1.0  0.40403  0.63200  0.92064  1.0000
  H   H29       1.0  0.60357  0.95674  0.97802  1.0000
  C   C21       1.0  0.57424  0.74631  0.05962  1.0000
  H   H30       1.0  0.47977  0.96589  0.98583  1.0000
  C   C22       1.0  0.50691  0.71910  0.07603  1.0000
  H   H31       1.0  0.48832  0.65920  0.08139  1.0000
  H   H32       1.0  0.65745  0.78149  0.88787  1.0000
  C   C23       1.0  0.56689  0.95609  0.94233  1.0000
  C   C24       1.0  0.55562  0.87459  0.06312  1.0000
  H   H33       1.0  0.50795  0.52432  0.01080  1.0000
  H   H34       1.0  0.57349  0.81729  0.94144  1.0000
  C   C25       1.0  0.48783  0.92708  0.95240  1.0000
  H   H35       1.0  0.42422  0.54558  0.98718  1.0000
  H   H36       1.0  0.46354  0.52890  0.89720  1.0000
  H   H37       1.0  0.36134  0.73467  0.96828  1.0000
  C   C26       1.0  0.32471  0.77531  0.90057  1.0000
  H   H38       1.0  0.53560  0.49688  0.92504  1.0000
  H   H39       1.0  0.47553  0.86774  0.96213  1.0000
  H   H40       1.0  0.44758  0.92834  0.91968  1.0000
  C   C27       1.0  0.48740  0.84665  0.07748  1.0000
  H   H41       1.0  0.51056  0.60583  0.97965  1.0000
  S   S5        1.0  0.68222  0.85984  0.03269  1.0000
  H   H42       1.0  0.69546  0.92868  0.93670  1.0000
  H   H43       1.0  0.50270  0.79988  0.88865  1.0000
  C   C28       1.0  0.47772  0.49547  0.92682  1.0000
  C   C29       1.0  0.66784  0.93839  0.90003  1.0000
  N   N2        1.0  0.58608  0.91028  0.89677  1.0000
  C   C30       1.0  0.56275  0.82476  0.90085  1.0000
  C   C31       1.0  0.35490  0.72639  0.92689  1.0000
  H   H44       1.0  0.57169  0.70879  0.87421  1.0000
  C   C32       1.0  0.59923  0.76994  0.87099  1.0000
  H   H45       1.0  0.45314  0.88477  0.08338  1.0000
  H   H46       1.0  0.31712  0.50820  0.92705  1.0000
  H   H47       1.0  0.77419  0.47856  0.06373  1.0000
  S   S6        1.0  0.64640  0.48116  0.99624  1.0000
  H   H48       1.0  0.31494  0.83370  0.04946  1.0000
  S   S7        1.0  0.38082  0.73976  0.10735  1.0000
  H   H49       1.0  0.71860  0.94746  0.33229  1.0000
  H   H50       1.0  0.48569  0.97597  0.18723  1.0000
  H   H51       1.0  0.51456  0.72258  0.25229  1.0000
  H   H52       1.0  0.40175  0.95584  0.14326  1.0000
  C   C33       1.0  0.60878  0.65623  0.28644  1.0000
  S   S8        1.0  0.44068  0.57478  0.17539  1.0000
  C   C34       1.0  0.56805  0.82209  0.22155  1.0000
  H   H53       1.0  0.78891  0.74758  0.24666  1.0000
  C   C35       1.0  0.61305  0.95638  0.34655  1.0000
  S   S9        1.0  0.40765  0.58900  0.31530  1.0000
  H   H54       1.0  0.64692  0.61951  0.28482  1.0000
  H   H55       1.0  0.65649  0.60524  0.14808  1.0000
  H   H56       1.0  0.78673  0.51237  0.21115  1.0000
  C   C36       1.0  0.42319  0.51218  0.34436  1.0000
  Fe  Fe5       1.0  0.36377  0.55395  0.23154  1.0000
  H   H57       1.0  0.53253  0.85916  0.23300  1.0000
  H   H58       1.0  0.71324  0.82981  0.26003  1.0000
  H   H59       1.0  0.75794  0.69138  0.29523  1.0000
  H   H60       1.0  0.69861  0.80978  0.32019  1.0000
  C   C37       1.0  0.65462  0.61789  0.18964  1.0000
  N   N3        1.0  0.62847  0.72262  0.25714  1.0000
  C   C38       1.0  0.67316  0.96953  0.32084  1.0000
  H   H61       1.0  0.55445  0.61562  0.26865  1.0000
  H   H62       1.0  0.57530  0.79907  0.29830  1.0000
  C   C39       1.0  0.57001  0.76484  0.25939  1.0000
  H   H63       1.0  0.70934  0.62313  0.21043  1.0000
  C   C40       1.0  0.62983  0.69245  0.20156  1.0000
  Fe  Fe6       1.0  0.36073  0.62616  0.13532  1.0000
  H   H64       1.0  0.66418  0.73857  0.18405  1.0000
  H   H65       1.0  0.61448  0.56646  0.19777  1.0000
  H   H66       1.0  0.57477  0.67805  0.17834  1.0000
  H   H67       1.0  0.62236  0.86132  0.22044  1.0000
  H   H68       1.0  0.54367  0.79059  0.18231  1.0000
  C   C41       1.0  0.76810  0.74923  0.28369  1.0000
  C   C42       1.0  0.70054  0.78034  0.28120  1.0000
  C   C43       1.0  0.60598  0.67975  0.34379  1.0000
  H   H69       1.0  0.56361  0.71023  0.34993  1.0000
  H   H70       1.0  0.81165  0.78815  0.31417  1.0000
  H   H71       1.0  0.59084  0.62597  0.36070  1.0000
  C   C44       1.0  0.60308  0.63903  0.50469  1.0000
  C   C45       1.0  0.37127  0.81051  0.43423  1.0000
  C   C46       1.0  0.54537  0.65933  0.52515  1.0000
  H   H72       1.0  0.31678  0.77547  0.41287  1.0000
  H   H73       1.0  0.46741  0.58656  0.41758  1.0000
  C   C47       1.0  0.48701  0.94358  0.49487  1.0000
  C   C48       1.0  0.42334  0.75972  0.42330  1.0000
  H   H74       1.0  0.32447  0.50978  0.49011  1.0000
  H   H75       1.0  0.38476  0.86159  0.41450  1.0000
  C   C49       1.0  0.50524  0.61172  0.55487  1.0000
  H   H76       1.0  0.53141  0.71145  0.51747  1.0000
  H   H77       1.0  0.49248  0.50772  0.58776  1.0000
  C   C50       1.0  0.45231  0.52759  0.39632  1.0000
  H   H78       1.0  0.31776  0.59378  0.46208  1.0000
  H   H79       1.0  0.63207  0.67432  0.48013  1.0000
  H   H80       1.0  0.43457  0.91019  0.55802  1.0000
  H   H81       1.0  0.39392  0.69662  0.41736  1.0000
  N   N4        1.0  0.36693  0.83495  0.48972  1.0000
  C   C51       1.0  0.58197  0.52485  0.54502  1.0000
  H   H82       1.0  0.37148  0.81216  0.59433  1.0000
  H   H83       1.0  0.47464  0.84116  0.52972  1.0000
  H   H84       1.0  0.37976  0.72821  0.51232  1.0000
  C   C52       1.0  0.52341  0.54444  0.56480  1.0000
  H   H85       1.0  0.33572  0.93812  0.47467  1.0000
  H   H86       1.0  0.44639  0.77244  0.38818  1.0000
  H   H87       1.0  0.47091  0.77171  0.45382  1.0000
  S   S10       1.0  0.69389  0.54625  0.48966  1.0000
  S   S11       1.0  0.77674  0.77457  0.51786  1.0000
  Fe  Fe7       1.0  0.78181  0.65411  0.48732  1.0000
  C   C53       1.0  0.44068  0.88040  0.52011  1.0000
  S   S12       1.0  0.43382  0.63854  0.58025  1.0000
  C   C54       1.0  0.62141  0.57173  0.51460  1.0000
  H   H88       1.0  0.61230  0.92376  0.37764  1.0000
  H   H89       1.0  0.65978  0.71563  0.36546  1.0000
  H   H90       1.0  0.50704  0.91711  0.46150  1.0000
  C   C55       1.0  0.33921  0.76252  0.51180  1.0000
  H   H91       1.0  0.31631  0.91137  0.53356  1.0000
  C   C56       1.0  0.32264  0.77621  0.56689  1.0000
  S   S13       1.0  0.81128  0.89540  0.40746  1.0000
  H   H92       1.0  0.48186  0.47820  0.46146  1.0000
  C   C57       1.0  0.31634  0.88646  0.49305  1.0000
  H   H93       1.0  0.74268  0.68429  0.60081  1.0000
  S   S14       1.0  0.47769  0.96327  0.36276  1.0000
  S   S15       1.0  0.72456  0.24128  0.63348  1.0000
  C   C58       1.0  0.50662  0.10937  0.79055  1.0000
  Fe  Fe8       1.0  0.77710  0.35164  0.68956  1.0000
  C   C59       1.0  0.54488  0.15762  0.83639  1.0000
  H   H94       1.0  0.57680  0.17701  0.62538  1.0000
  C   C60       1.0  0.62113  0.18423  0.84330  1.0000
  H   H95       1.0  0.71791  0.17985  0.81101  1.0000
  H   H96       1.0  0.44770  0.09151  0.78378  1.0000
  C   C61       1.0  0.62061  0.11063  0.75984  1.0000
  H   H97       1.0  0.55790  0.32144  0.72246  1.0000
  H   H98       1.0  0.45626  0.10159  0.64261  1.0000
  H   H99       1.0  0.50659  0.45974  0.83281  1.0000
  C   C62       1.0  0.47487  0.25843  0.65559  1.0000
  S   S16       1.0  0.37432  0.97751  0.83450  1.0000
  Fe  Fe9       1.0  0.75253  0.18163  0.69761  1.0000
  C   C63       1.0  0.46975  0.39951  0.82580  1.0000
  H   H100      1.0  0.61511  0.31600  0.64417  1.0000
  H   H101      1.0  0.35373  0.44131  0.85932  1.0000
  S   S17       1.0  0.79798  0.29164  0.75501  1.0000
  H   H102      1.0  0.42301  0.21232  0.65327  1.0000
  S   S18       1.0  0.66709  0.07944  0.71209  1.0000
  H   H103      1.0  0.51443  0.04655  0.71775  1.0000
  C   C64       1.0  0.65899  0.16100  0.80494  1.0000
  C   C65       1.0  0.54443  0.08478  0.75276  1.0000
  H   H104      1.0  0.49141  0.23645  0.73375  1.0000
  H   H105      1.0  0.56330  0.22444  0.70108  1.0000
  H   H106      1.0  0.49524  0.36246  0.80147  1.0000
  C   C66       1.0  0.52526  0.26063  0.70574  1.0000
  H   H107      1.0  0.41682  0.39751  0.80318  1.0000
  H   H108      1.0  0.45914  0.31373  0.66158  1.0000
  H   H109      1.0  0.77594  0.32518  0.85847  1.0000
  S   S19       1.0  0.72015  0.44500  0.70314  1.0000
  H   H110      1.0  0.56103  0.37456  0.62370  1.0000
  H   H111      1.0  0.54895  0.98804  0.85086  1.0000
  H   H112      1.0  0.67420  0.03930  0.86063  1.0000
  C   C67       1.0  0.57354  0.31811  0.61237  1.0000
  N   N5        1.0  0.42915  0.41240  0.91498  1.0000
  H   H113      1.0  0.54535  0.09027  0.04402  1.0000
  C   C68       1.0  0.33769  0.13633  0.06989  1.0000
  H   H114      1.0  0.77104  0.32709  0.92424  1.0000
  H   H115      1.0  0.57533  0.01845  0.93852  1.0000
  C   C69       1.0  0.37959  0.29202  0.95637  1.0000
  C   C70       1.0  0.50970  0.12913  0.03890  1.0000
  S   S20       1.0  0.77493  0.20449  0.04039  1.0000
  C   C71       1.0  0.79557  0.36298  0.89676  1.0000
  H   H116      1.0  0.59657  0.31728  0.95760  1.0000
  C   C72       1.0  0.67570  0.26725  0.99319  1.0000
  C   C73       1.0  0.37772  0.08192  0.09265  1.0000
  H   H117      1.0  0.39298  0.24948  0.92788  1.0000
  H   H118      1.0  0.56543  0.34585  0.08209  1.0000
  S   S21       1.0  0.49777  0.18140  0.88587  1.0000
  H   H119      1.0  0.75844  0.03783  0.89619  1.0000
  H   H120      1.0  0.36348  0.16070  0.03861  1.0000
  H   H121      1.0  0.41725  0.40977  0.99494  1.0000
  C   C74       1.0  0.45980  0.36668  0.87572  1.0000
  H   H122      1.0  0.37866  0.03522  0.06096  1.0000
  C   C75       1.0  0.35268  0.40947  0.89211  1.0000
  H   H123      1.0  0.53770  0.17377  0.01767  1.0000
  C   C76       1.0  0.74660  0.41971  0.04418  1.0000
  H   H124      1.0  0.51415  0.36177  0.89248  1.0000
  C   C77       1.0  0.64635  0.32870  0.98449  1.0000
  H   H125      1.0  0.69190  0.06480  0.93002  1.0000
  S   S22       1.0  0.42858  0.37585  0.09970  1.0000
  H   H126      1.0  0.47779  0.22027  0.08303  1.0000
  H   H127      1.0  0.32150  0.29063  0.94685  1.0000
  H   H128      1.0  0.48779  0.37304  0.97553  1.0000
  H   H129      1.0  0.45724  0.09655  0.01423  1.0000
  C   C78       1.0  0.43117  0.37505  0.96208  1.0000
  H   H130      1.0  0.38614  0.27187  0.99355  1.0000
  H   H131      1.0  0.77647  0.47250  0.93303  1.0000
  C   C79       1.0  0.73961  0.28169  0.02827  1.0000
  H   H132      1.0  0.81204  0.22010  0.91293  1.0000
  H   H133      1.0  0.64823  0.20851  0.97322  1.0000
  C   C80       1.0  0.68204  0.40492  0.00968  1.0000
  C   C81       1.0  0.77484  0.35788  0.05392  1.0000
  C   C82       1.0  0.49985  0.17103  0.09080  1.0000
  H   H134      1.0  0.49159  0.02122  0.09956  1.0000
  C   C83       1.0  0.69877  0.02516  0.89644  1.0000
  H   H135      1.0  0.33567  0.18473  0.09954  1.0000
  C   C84       1.0  0.75853  0.42940  0.89708  1.0000
  H   H136      1.0  0.31742  0.43581  0.96751  1.0000
  H   H137      1.0  0.69856  0.40419  0.89378  1.0000
  Fe  Fe10      1.0  0.38463  0.10036  0.87024  1.0000
  H   H138      1.0  0.32023  0.34893  0.87420  1.0000
  H   H139      1.0  0.65085  0.22156  0.87864  1.0000
  S   S23       1.0  0.31696  0.06684  0.93075  1.0000
  H   H140      1.0  0.76714  0.45886  0.86368  1.0000
  H   H141      1.0  0.42440  0.30578  0.86350  1.0000
  C   C85       1.0  0.57967  0.41722  0.22746  1.0000
  S   S24       1.0  0.74939  0.02300  0.24766  1.0000
  H   H142      1.0  0.58376  0.43835  0.26783  1.0000
  H   H143      1.0  0.42455  0.03288  0.19797  1.0000
  C   C86       1.0  0.48797  0.05913  0.13507  1.0000
  H   H144      1.0  0.62154  0.19622  0.32950  1.0000
  C   C87       1.0  0.44706  0.00300  0.16748  1.0000
  Fe  Fe11      1.0  0.40060  0.03596  0.35188  1.0000
  C   C88       1.0  0.58632  0.33748  0.34895  1.0000
  Fe  Fe12      1.0  0.76876  0.30064  0.22217  1.0000
  C   C89       1.0  0.55581  0.02734  0.29192  1.0000
  C   C90       1.0  0.41128  0.37416  0.34251  1.0000
  C   C91       1.0  0.67482  0.01120  0.28053  1.0000
  H   H145      1.0  0.38228  0.42325  0.27700  1.0000
  H   H146      1.0  0.52493  0.15373  0.23037  1.0000
  C   C92       1.0  0.63099  0.36577  0.15664  1.0000
  C   C93       1.0  0.61615  0.04032  0.26599  1.0000
  C   C94       1.0  0.51039  0.38662  0.14140  1.0000
  H   H147      1.0  0.54607  0.08381  0.15345  1.0000
  C   C95       1.0  0.51657  0.41398  0.19380  1.0000
  H   H148      1.0  0.50772  0.24690  0.24119  1.0000
  Fe  Fe13      1.0  0.77765  0.13458  0.21690  1.0000
  C   C96       1.0  0.63609  0.39094  0.20923  1.0000
  C   C97       1.0  0.51569  0.20186  0.21131  1.0000
  H   H149      1.0  0.68750  0.24051  0.29398  1.0000
  H   H150      1.0  0.56259  0.38585  0.34222  1.0000
  S   S25       1.0  0.70530  0.18851  0.17070  1.0000
  H   H151      1.0  0.61722  0.07210  0.23458  1.0000
  C   C98       1.0  0.40372  0.43555  0.31723  1.0000
  C   C99       1.0  0.68078  0.21840  0.33028  1.0000
  C   C100      1.0  0.44724  0.17387  0.16963  1.0000
  S   S26       1.0  0.71054  0.38647  0.25299  1.0000
  H   H152      1.0  0.70434  0.16825  0.32914  1.0000
  C   C101      1.0  0.56869  0.36466  0.12277  1.0000
  H   H153      1.0  0.56541  0.22888  0.19618  1.0000
  H   H154      1.0  0.61202  0.32431  0.31537  1.0000
  H   H155      1.0  0.47206  0.43113  0.20869  1.0000
  H   H156      1.0  0.40056  0.14577  0.18797  1.0000
  H   H157      1.0  0.39545  0.31495  0.32162  1.0000
  H   H158      1.0  0.67490  0.34694  0.14194  1.0000
  H   H159      1.0  0.54016  0.28726  0.35092  1.0000
  Fe  Fe14      1.0  0.36983  0.46021  0.13134  1.0000
  S   S27       1.0  0.41576  0.13850  0.31132  1.0000
  H   H160      1.0  0.50994  0.04835  0.28024  1.0000
  H   H161      1.0  0.43476  0.22766  0.15986  1.0000
  Fe  Fe15      1.0  0.79716  0.21562  0.12557  1.0000
  H   H162      1.0  0.34192  0.05135  0.11773  1.0000
  N   N6        1.0  0.45326  0.12136  0.12207  1.0000
  C   C102      1.0  0.55401  0.98469  0.33185  1.0000
  H   H163      1.0  0.75249  0.33351  0.36073  1.0000
  H   H164      1.0  0.55583  0.19876  0.11241  1.0000
  C   C103      1.0  0.73202  0.34825  0.46460  1.0000
  H   H165      1.0  0.68507  0.15105  0.41750  1.0000
  Fe  Fe16      1.0  0.38764  0.19841  0.38211  1.0000
  N   N7        1.0  0.68001  0.30737  0.41577  1.0000
  H   H166      1.0  0.68210  0.41839  0.39211  1.0000
  C   C104      1.0  0.62420  0.24004  0.42896  1.0000
  H   H167      1.0  0.57795  0.21304  0.39747  1.0000
  H   H168      1.0  0.41122  0.34857  0.59373  1.0000
  H   H169      1.0  0.31366  0.44190  0.40934  1.0000
  H   H170      1.0  0.76705  0.26005  0.39491  1.0000
  H   H171      1.0  0.59712  0.26143  0.46011  1.0000
  H   H172      1.0  0.78701  0.45956  0.44066  1.0000
  H   H173      1.0  0.39961  0.20399  0.56131  1.0000
  H   H174      1.0  0.48973  0.04941  0.59434  1.0000
  C   C105      1.0  0.46105  0.46653  0.42121  1.0000
  C   C106      1.0  0.72316  0.28222  0.37643  1.0000
  C   C107      1.0  0.46851  0.10061  0.60305  1.0000
  H   H175      1.0  0.70310  0.37509  0.49256  1.0000
  H   H176      1.0  0.59678  0.47357  0.55317  1.0000
  C   C108      1.0  0.45120  0.24946  0.56207  1.0000
  S   S28       1.0  0.38272  0.10000  0.42474  1.0000
  H   H177      1.0  0.54270  0.16387  0.55975  1.0000
  H   H178      1.0  0.61314  0.38601  0.42908  1.0000
  C   C109      1.0  0.65299  0.17281  0.44499  1.0000
  H   H179      1.0  0.38657  0.31641  0.52641  1.0000
  H   H180      1.0  0.75404  0.30648  0.48379  1.0000
  C   C110      1.0  0.64218  0.36532  0.39860  1.0000
  H   H181      1.0  0.53623  0.97813  0.52264  1.0000
  C   C111      1.0  0.44025  0.38996  0.39462  1.0000
  H   H182      1.0  0.66149  0.37383  0.57484  1.0000
  C   C112      1.0  0.52757  0.17471  0.59845  1.0000
  N   N8        1.0  0.50684  0.25021  0.60708  1.0000
  H   H183      1.0  0.41751  0.09084  0.57575  1.0000
  C   C113      1.0  0.61127  0.32386  0.56488  1.0000
  H   H184      1.0  0.62834  0.27106  0.55245  1.0000
  H   H185      1.0  0.57643  0.33529  0.53246  1.0000
  H   H186      1.0  0.47718  0.37254  0.55163  1.0000
  C   C114      1.0  0.43117  0.32656  0.55919  1.0000
  S   S29       1.0  0.44975  0.31489  0.42749  1.0000
  H   H187      1.0  0.46953  0.23264  0.52524  1.0000
  H   H188      1.0  0.68597  0.18930  0.48383  1.0000
  C   C115      1.0  0.80026  0.41271  0.45927  1.0000
  H   H189      1.0  0.60574  0.12263  0.44632  1.0000
  H   H190      1.0  0.45695  0.98467  0.48289  1.0000
  H   H191      1.0  0.16945  0.75847  0.76613  1.0000
  H   H192      1.0  0.10806  0.78750  0.82652  1.0000
  H   H193      1.0  0.02003  0.57914  0.76163  1.0000
  S   S30       1.0  0.92001  0.84233  0.64217  1.0000
  H   H194      1.0  0.16073  0.71987  0.65079  1.0000
  C   C116      1.0  0.13654  0.61788  0.78957  1.0000
  H   H195      1.0  0.18357  0.60796  0.77184  1.0000
  H   H196      1.0  0.96364  0.68610  0.76076  1.0000
  H   H197      1.0  0.01265  0.77627  0.74734  1.0000
  C   C117      1.0  0.13423  0.87870  0.63316  1.0000
  H   H198      1.0  0.90343  0.62659  0.68589  1.0000
  H   H199      1.0  0.00423  0.50618  0.84835  1.0000
  C   C118      1.0  0.04786  0.91965  0.70355  1.0000
  H   H200      1.0  0.04910  0.69827  0.83896  1.0000
  C   C119      1.0  0.94342  0.60167  0.66806  1.0000
  C   C120      1.0  0.18033  0.71265  0.69010  1.0000
  H   H201      1.0  0.07653  0.56732  0.71524  1.0000
  S   S31       1.0  0.19981  0.94292  0.83672  1.0000
  C   C121      1.0  0.05162  0.74910  0.81955  1.0000
  S   S32       1.0  0.26067  0.94789  0.70035  1.0000
  S   S33       1.0  0.10018  0.49035  0.62471  1.0000
  H   H202      1.0  0.84410  0.78061  0.77574  1.0000
  H   H203      1.0  0.87188  0.49590  0.74733  1.0000
  H   H204      1.0  0.92187  0.58493  0.62643  1.0000
  H   H205      1.0  0.23784  0.74941  0.70066  1.0000
  N   N9        1.0  0.06208  0.68269  0.72950  1.0000
  C   C122      1.0  0.12368  0.94840  0.71475  1.0000
  C   C123      1.0  0.01969  0.72345  0.76231  1.0000
  H   H206      1.0  0.01796  0.78302  0.83808  1.0000
  H   H207      1.0  0.04969  0.63410  0.64889  1.0000
  Fe  Fe17      1.0  0.21836  0.50106  0.64774  1.0000
  H   H208      1.0  0.94561  0.54698  0.68179  1.0000
  H   H209      1.0  0.12223  0.57031  0.81209  1.0000
  C   C124      1.0  0.01959  0.66097  0.67571  1.0000
  H   H210      1.0  0.15390  0.67323  0.81729  1.0000
  C   C125      1.0  0.84448  0.62959  0.84051  1.0000
  H   H211      1.0  0.93958  0.59834  0.82119  1.0000
  C   C126      1.0  0.13425  0.74008  0.72821  1.0000
  C   C127      1.0  0.88138  0.58709  0.81120  1.0000
  C   C128      1.0  0.07040  0.60932  0.74784  1.0000
  H   H212      1.0  0.01471  0.93412  0.73132  1.0000
  H   H213      1.0  0.12534  0.79501  0.71842  1.0000
  C   C129      1.0  0.16696  0.92601  0.68039  1.0000
  H   H214      1.0  0.17934  0.65099  0.68991  1.0000
  H   H215      1.0  0.01252  0.71382  0.66101  1.0000
  C   C130      1.0  0.01493  0.87297  0.65643  1.0000
  C   C131      1.0  0.84296  0.52856  0.76988  1.0000
  H   H216      1.0  0.29456  0.80339  0.82673  1.0000
  H   H217      1.0  0.81969  0.87038  0.77064  1.0000
  C   C132      1.0  0.05793  0.85240  0.62106  1.0000
  H   H218      1.0  0.82319  0.72944  0.69038  1.0000
  S   S34       1.0  0.31098  0.60892  0.67706  1.0000
  H   H219      1.0  0.06035  0.72591  0.05302  1.0000
  H   H220      1.0  0.00757  0.49751  0.00391  1.0000
  H   H221      1.0  0.09961  0.66563  0.97819  1.0000
  H   H222      1.0  0.27690  0.91202  0.04085  1.0000
  H   H223      1.0  0.01215  0.77575  0.01663  1.0000
  S   S35       1.0  0.84794  0.61566  0.00755  1.0000
  H   H224      1.0  0.88918  0.49731  0.88392  1.0000
  H   H225      1.0  0.89010  0.48136  0.97115  1.0000
  H   H226      1.0  0.20230  0.76739  0.00045  1.0000
  H   H227      1.0  0.18015  0.92650  0.09572  1.0000
  Fe  Fe18      1.0  0.29852  0.94498  0.88979  1.0000
  H   H228      1.0  0.06971  0.72906  0.93865  1.0000
  C   C133      1.0  0.06648  0.91083  0.09044  1.0000
  H   H229      1.0  0.15831  0.85270  0.96027  1.0000
  C   C134      1.0  0.13530  0.87896  0.99233  1.0000
  H   H230      1.0  0.01278  0.86679  0.07993  1.0000
  H   H231      1.0  0.89941  0.57353  0.10172  1.0000
  C   C135      1.0  0.19632  0.79801  0.03815  1.0000
  H   H232      1.0  0.17409  0.93768  0.00730  1.0000
  H   H233      1.0  0.01950  0.88631  0.99058  1.0000
  H   H234      1.0  0.27822  0.87570  0.10099  1.0000
  H   H235      1.0  0.19045  0.75344  0.06365  1.0000
  C   C136      1.0  0.06321  0.89101  0.96695  1.0000
  H   H236      1.0  0.01480  0.51823  0.91613  1.0000
  S   S36       1.0  0.86225  0.80347  0.02273  1.0000
  C   C137      1.0  0.06369  0.75898  0.02085  1.0000
  C   C138      1.0  0.06016  0.70020  0.97215  1.0000
  S   S37       1.0  0.89413  0.70419  0.89091  1.0000
  C   C139      1.0  0.27036  0.85937  0.05871  1.0000
  N   N10       1.0  0.13013  0.82884  0.03335  1.0000
  S   S38       1.0  0.29864  0.85047  0.93510  1.0000
  Fe  Fe19      1.0  0.86538  0.71423  0.07275  1.0000
  H   H237      1.0  0.04186  0.85020  0.92995  1.0000
  Fe  Fe20      1.0  0.83470  0.70252  0.95799  1.0000
  C   C140      1.0  0.13060  0.87573  0.08484  1.0000
  H   H238      1.0  0.06917  0.95940  0.06878  1.0000
  S   S39       1.0  0.29646  0.51352  0.08502  1.0000
  H   H239      1.0  0.00491  0.65802  0.96276  1.0000
  H   H240      1.0  0.07495  0.95029  0.95683  1.0000
  H   H241      1.0  0.23223  0.53803  0.29115  1.0000
  C   C141      1.0  0.01639  0.71704  0.30572  1.0000
  C   C142      1.0  0.97700  0.63847  0.31987  1.0000
  H   H242      1.0  0.85323  0.63386  0.26567  1.0000
  H   H243      1.0  0.93840  0.65062  0.34581  1.0000
  H   H244      1.0  0.05527  0.75379  0.33966  1.0000
  C   C143      1.0  0.88718  0.60665  0.24214  1.0000
  H   H245      1.0  0.01847  0.62053  0.34403  1.0000
  H   H246      1.0  0.97685  0.74970  0.29498  1.0000
  H   H247      1.0  0.91892  0.65390  0.22428  1.0000
  C   C144      1.0  0.99916  0.66363  0.13273  1.0000
  C   C145      1.0  0.06631  0.54216  0.12788  1.0000
  H   H248      1.0  0.86133  0.50816  0.17668  1.0000
  H   H249      1.0  0.84777  0.52669  0.31395  1.0000
  H   H250      1.0  0.90163  0.94011  0.33535  1.0000
  H   H251      1.0  0.89841  0.92242  0.22763  1.0000
  S   S40       1.0  0.95814  0.73984  0.13754  1.0000
  H   H252      1.0  0.04752  0.70946  0.27393  1.0000
  C   C146      1.0  0.07344  0.93242  0.26821  1.0000
  H   H253      1.0  0.00152  0.58476  0.21432  1.0000
  N   N11       1.0  0.93755  0.57463  0.27536  1.0000
  C   C147      1.0  0.98894  0.54750  0.24338  1.0000
  C   C148      1.0  0.07406  0.67985  0.14915  1.0000
  H   H254      1.0  0.10031  0.60835  0.28430  1.0000
  H   H255      1.0  0.81312  0.57966  0.16947  1.0000
  C   C149      1.0  0.21989  0.48789  0.31173  1.0000
  H   H256      1.0  0.16553  0.63354  0.15627  1.0000
  C   C150      1.0  0.89051  0.50765  0.29497  1.0000
  C   C151      1.0  0.83457  0.54759  0.19748  1.0000
  S   S41       1.0  0.29109  0.61740  0.19654  1.0000
  H   H257      1.0  0.07067  0.93596  0.13140  1.0000
  H   H258      1.0  0.96302  0.48748  0.22138  1.0000
  H   H259      1.0  0.07319  0.88754  0.29266  1.0000
  H   H260      1.0  0.94684  0.88868  0.29588  1.0000
  C   C152      1.0  0.95704  0.93715  0.32866  1.0000
  C   C153      1.0  0.06425  0.54815  0.27098  1.0000
  H   H261      1.0  0.02888  0.90868  0.23527  1.0000
  Fe  Fe21      1.0  0.22978  0.50207  0.14836  1.0000
  H   H262      1.0  0.10640  0.73905  0.16461  1.0000
  H   H263      1.0  0.12544  0.94221  0.25251  1.0000
  C   C154      1.0  0.10771  0.61959  0.14514  1.0000
  H   H264      1.0  0.09156  0.51862  0.24323  1.0000
  H   H265      1.0  0.06077  0.51663  0.30338  1.0000
  H   H266      1.0  0.13293  0.83941  0.11513  1.0000
  C   C155      1.0  0.95766  0.58668  0.11334  1.0000
  C   C156      1.0  0.99087  0.52577  0.11225  1.0000
  H   H267      1.0  0.28940  0.72243  0.48706  1.0000
  C   C157      1.0  0.23608  0.84769  0.46783  1.0000
  H   H268      1.0  0.16759  0.86039  0.60675  1.0000
  H   H269      1.0  0.28646  0.58059  0.52099  1.0000
  H   H270      1.0  0.03279  0.81395  0.58524  1.0000
  H   H271      1.0  0.96330  0.84887  0.37582  1.0000
  H   H272      1.0  0.96472  0.50973  0.36599  1.0000
  H   H273      1.0  0.21090  0.79381  0.48182  1.0000
  Fe  Fe22      1.0  0.83538  0.80809  0.45346  1.0000
  C   C158      1.0  0.08493  0.53573  0.57257  1.0000
  H   H274      1.0  0.81916  0.94856  0.51665  1.0000
  Fe  Fe23      1.0  0.93804  0.70862  0.46955  1.0000
  H   H275      1.0  0.98533  0.94498  0.41181  1.0000
  H   H276      1.0  0.94602  0.54497  0.48426  1.0000
  C   C159      1.0  0.21195  0.50358  0.45627  1.0000
  Fe  Fe24      1.0  0.88839  0.78937  0.55968  1.0000
  C   C160      1.0  0.99190  0.91082  0.37565  1.0000
  H   H277      1.0  0.17850  0.54545  0.45539  1.0000
  C   C161      1.0  0.14176  0.59261  0.56028  1.0000
  S   S42       1.0  0.88862  0.66644  0.53560  1.0000
  H   H278      1.0  0.30588  0.71905  0.57963  1.0000
  H   H279      1.0  0.20306  0.88813  0.47768  1.0000
  H   H280      1.0  0.19605  0.60662  0.58200  1.0000
  C   C162      1.0  0.05670  0.61756  0.49445  1.0000
  C   C163      1.0  0.28991  0.54917  0.48302  1.0000
  S   S43       1.0  0.94734  0.83405  0.49795  1.0000
  H   H281      1.0  0.17055  0.68012  0.51349  1.0000
  S   S44       1.0  0.03708  0.67443  0.44966  1.0000
  C   C164      1.0  0.12741  0.63407  0.52151  1.0000
  C   C165      1.0  0.01450  0.51812  0.54491  1.0000
  H   H282      1.0  0.28702  0.55237  0.38094  1.0000
  H   H283      1.0  0.23017  0.83599  0.42550  1.0000
  H   H284      1.0  0.19720  0.56351  0.37344  1.0000
  C   C166      1.0  0.00057  0.55852  0.50549  1.0000
  C   C167      1.0  0.22847  0.51936  0.36943  1.0000
  H   H285      1.0  0.05060  0.91590  0.37566  1.0000
  S   S45       1.0  0.83071  0.68555  0.41822  1.0000
  H   H286      1.0  0.27692  0.80286  0.56944  1.0000
  S   S46       1.0  0.29213  0.11559  0.81683  1.0000
  S   S47       1.0  0.01212  0.33600  0.78018  1.0000
  Fe  Fe25      1.0  0.90393  0.29316  0.72791  1.0000
  H   H287      1.0  0.93463  0.19199  0.80943  1.0000
  C   C168      1.0  0.04214  0.26844  0.81195  1.0000
  C   C169      1.0  0.14263  0.22738  0.85249  1.0000
  S   S48       1.0  0.25087  0.43760  0.70855  1.0000
  C   C170      1.0  0.11710  0.28148  0.82801  1.0000
  H   H288      1.0  0.14858  0.98769  0.75017  1.0000
  H   H289      1.0  0.12176  0.06668  0.65611  1.0000
  S   S49       1.0  0.88735  0.36376  0.66709  1.0000
  C   C171      1.0  0.01789  0.15034  0.84855  1.0000
  H   H290      1.0  0.19439  0.22155  0.71888  1.0000
  H   H291      1.0  0.02657  0.06346  0.72543  1.0000
  C   C172      1.0  0.03696  0.21352  0.64758  1.0000
  H   H292      1.0  0.97943  0.09991  0.85690  1.0000
  H   H293      1.0  0.15557  0.33237  0.82014  1.0000
  S   S50       1.0  0.30380  0.26583  0.64782  1.0000
  H   H294      1.0  0.03287  0.22805  0.68844  1.0000
  H   H295      1.0  0.15157  0.28151  0.64967  1.0000
  C   C173      1.0  0.12096  0.12861  0.65912  1.0000
  H   H296      1.0  0.88405  0.28898  0.85450  1.0000
  H   H297      1.0  0.97441  0.13221  0.72170  1.0000
  H   H298      1.0  0.93011  0.03012  0.70675  1.0000
  C   C174      1.0  0.14761  0.16889  0.71570  1.0000
  H   H299      1.0  0.88602  0.41848  0.83456  1.0000
  C   C175      1.0  0.99251  0.20261  0.82203  1.0000
  S   S51       1.0  0.86004  0.17690  0.67566  1.0000
  H   H300      1.0  0.10591  0.18564  0.73588  1.0000
  C   C176      1.0  0.97982  0.07586  0.70335  1.0000
  H   H301      1.0  0.16872  0.12888  0.73735  1.0000
  H   H302      1.0  0.28226  0.10182  0.62398  1.0000
  C   C177      1.0  0.09534  0.28229  0.63560  1.0000
  Fe  Fe26      1.0  0.83634  0.24725  0.61639  1.0000
  C   C178      1.0  0.98691  0.07251  0.64638  1.0000
  N   N12       1.0  0.04858  0.13403  0.63370  1.0000
  H   H303      1.0  0.93391  0.07334  0.62505  1.0000
  H   H304      1.0  0.16400  0.15544  0.63834  1.0000
  H   H305      1.0  0.99240  0.01328  0.63380  1.0000
  Fe  Fe27      1.0  0.27769  0.98988  0.78490  1.0000
  H   H306      1.0  0.08785  0.33766  0.65500  1.0000
  Fe  Fe28      1.0  0.31280  0.39298  0.65141  1.0000
  H   H307      1.0  0.98380  0.21508  0.62666  1.0000
  C   C179      1.0  0.21278  0.23970  0.10622  1.0000
  C   C180      1.0  0.16873  0.31234  0.99567  1.0000
  H   H308      1.0  0.01510  0.41240  0.96481  1.0000
  H   H309      1.0  0.94420  0.30392  0.08017  1.0000
  H   H310      1.0  0.28061  0.10260  0.05330  1.0000
  H   H311      1.0  0.96179  0.13157  0.99355  1.0000
  N   N13       1.0  0.87816  0.38660  0.90905  1.0000
  C   C181      1.0  0.87150  0.24736  0.92554  1.0000
  H   H312      1.0  0.09797  0.11430  0.05740  1.0000
  H   H313      1.0  0.16423  0.33356  0.09985  1.0000
  H   H314      1.0  0.13330  0.35142  0.99076  1.0000
  C   C182      1.0  0.09298  0.16210  0.86310  1.0000
  H   H315      1.0  0.16256  0.19292  0.00331  1.0000
  H   H316      1.0  0.82548  0.36989  0.07970  1.0000
  C   C183      1.0  0.05590  0.14649  0.05526  1.0000
  H   H317      1.0  0.94277  0.20452  0.07881  1.0000
  H   H318      1.0  0.24855  0.41548  0.91384  1.0000
  H   H319      1.0  0.00019  0.25872  0.00741  1.0000
  H   H320      1.0  0.03410  0.14172  0.09174  1.0000
  H   H321      1.0  0.08345  0.20629  0.96910  1.0000
  H   H322      1.0  0.05991  0.33741  0.05073  1.0000
  C   C184      1.0  0.12543  0.23125  0.00391  1.0000
  H   H323      1.0  0.96128  0.32418  0.90152  1.0000
  H   H324      1.0  0.95765  0.05085  0.02453  1.0000
  C   C185      1.0  0.90144  0.31337  0.89605  1.0000
  S   S52       1.0  0.12366  0.09776  0.89773  1.0000
  C   C186      1.0  0.97960  0.26470  0.08524  1.0000
  C   C187      1.0  0.03305  0.27408  0.04635  1.0000
  H   H325      1.0  0.20059  0.23686  0.86394  1.0000
  H   H326      1.0  0.02051  0.07093  0.97946  1.0000
  C   C188      1.0  0.98023  0.43451  0.98946  1.0000
  N   N14       1.0  0.08974  0.23020  0.05103  1.0000
  H   H327      1.0  0.19205  0.30486  0.95991  1.0000
  C   C189      1.0  0.90037  0.42327  0.96473  1.0000
  H   H328      1.0  0.95777  0.46598  0.10043  1.0000
  C   C190      1.0  0.14462  0.26949  0.09856  1.0000
  H   H329      1.0  0.98044  0.40512  0.02311  1.0000
  H   H330      1.0  0.21522  0.34112  0.02691  1.0000
  H   H331      1.0  0.24720  0.25258  0.07635  1.0000
  H   H332      1.0  0.01947  0.42870  0.87785  1.0000
  C   C191      1.0  0.99606  0.09772  0.01037  1.0000
  C   C192      1.0  0.90766  0.44404  0.87555  1.0000
  H   H333      1.0  0.89861  0.20051  0.91747  1.0000
  H   H334      1.0  0.86514  0.38892  0.98821  1.0000
  H   H335      1.0  0.88226  0.26781  0.96749  1.0000
  Fe  Fe29      1.0  0.22244  0.06801  0.87329  1.0000
  C   C193      1.0  0.99130  0.47496  0.88053  1.0000
  C   C194      1.0  0.30745  0.44489  0.92758  1.0000
  H   H336      1.0  0.19914  0.17676  0.10817  1.0000
  H   H337      1.0  0.88487  0.00377  0.20181  1.0000
  C   C195      1.0  0.06146  0.17441  0.20189  1.0000
  Fe  Fe30      1.0  0.29418  0.09384  0.28665  1.0000
  S   S53       1.0  0.83425  0.24467  0.27264  1.0000
  C   C196      1.0  0.07104  0.01025  0.29959  1.0000
  H   H338      1.0  0.12502  0.36447  0.35098  1.0000
  C   C197      1.0  0.05142  0.15933  0.35919  1.0000
  H   H339      1.0  0.86072  0.45992  0.26276  1.0000
  H   H340      1.0  0.09911  0.16442  0.33895  1.0000
  H   H341      1.0  0.08922  0.05654  0.27672  1.0000
  H   H342      1.0  0.01157  0.18506  0.33953  1.0000
  H   H343      1.0  0.08407  0.06977  0.16681  1.0000
  N   N15       1.0  0.99953  0.01365  0.31667  1.0000
  S   S54       1.0  0.26752  0.16473  0.35400  1.0000
  S   S55       1.0  0.29588  0.43602  0.18964  1.0000
  H   H344      1.0  0.00491  0.15529  0.18503  1.0000
  H   H345      1.0  0.18671  0.32656  0.27972  1.0000
  S   S56       1.0  0.28111  0.98554  0.32144  1.0000
  H   H346      1.0  0.24693  0.27042  0.14344  1.0000
  S   S57       1.0  0.03471  0.30782  0.25072  1.0000
  C   C198      1.0  0.20883  0.22226  0.24560  1.0000
  H   H347      1.0  0.90204  0.04639  0.29194  1.0000
  H   H348      1.0  0.11566  0.02364  0.33299  1.0000
  C   C199      1.0  0.16390  0.27068  0.25548  1.0000
  H   H349      1.0  0.25979  0.45495  0.30372  1.0000
  H   H350      1.0  0.26595  0.24147  0.26249  1.0000
  S   S58       1.0  0.10693  0.46520  0.12817  1.0000
  H   H351      1.0  0.97143  0.98593  0.20244  1.0000
  H   H352      1.0  0.88736  0.42673  0.34790  1.0000
  C   C200      1.0  0.95177  0.03820  0.27688  1.0000
  C   C201      1.0  0.08981  0.24662  0.23459  1.0000
  H   H353      1.0  0.98005  0.09564  0.26801  1.0000
  Fe  Fe31      1.0  0.91492  0.26293  0.21865  1.0000
  S   S59       1.0  0.85624  0.33155  0.17433  1.0000
  C   C202      1.0  0.18002  0.14936  0.21413  1.0000
  S   S60       1.0  0.23417  0.08508  0.20749  1.0000
  S   S61       1.0  0.86257  0.14913  0.16581  1.0000
  C   C203      1.0  0.10666  0.12616  0.19117  1.0000
  C   C204      1.0  0.92949  0.46820  0.33252  1.0000
  H   H354      1.0  0.96026  0.43235  0.31249  1.0000
  H   H355      1.0  0.16395  0.45158  0.29501  1.0000
  H   H356      1.0  0.11898  0.26369  0.13335  1.0000
  H   H357      1.0  0.00822  0.28160  0.12537  1.0000
  C   C205      1.0  0.92600  0.98331  0.22467  1.0000
  C   C206      1.0  0.82276  0.98790  0.44421  1.0000
  H   H358      1.0  0.82800  0.04505  0.37858  1.0000
  H   H359      1.0  0.09334  0.16036  0.56522  1.0000
  C   C207      1.0  0.22130  0.17052  0.49912  1.0000
  C   C208      1.0  0.04575  0.03695  0.55157  1.0000
  C   C209      1.0  0.82493  0.99818  0.49739  1.0000
  H   H360      1.0  0.08903  0.01629  0.57165  1.0000
  H   H361      1.0  0.84675  0.17662  0.42858  1.0000
  H   H362      1.0  0.20464  0.18930  0.46414  1.0000
  H   H363      1.0  0.99640  0.13131  0.55640  1.0000
  H   H364      1.0  0.23204  0.36457  0.47288  1.0000
  H   H365      1.0  0.83262  0.08034  0.56632  1.0000
  H   H366      1.0  0.83844  0.38823  0.43872  1.0000
  H   H367      1.0  0.20098  0.29148  0.41514  1.0000
  C   C210      1.0  0.21520  0.09137  0.49889  1.0000
  H   H368      1.0  0.25016  0.37535  0.36152  1.0000
  H   H369      1.0  0.05546  0.03729  0.51145  1.0000
  H   H370      1.0  0.07119  0.19535  0.39796  1.0000
  C   C211      1.0  0.84026  0.12698  0.44791  1.0000
  C   C212      1.0  0.82991  0.05244  0.41962  1.0000
  H   H371      1.0  0.23195  0.00567  0.54418  1.0000
  N   N16       1.0  0.20563  0.45933  0.40301  1.0000
  C   C213      1.0  0.26548  0.12130  0.58911  1.0000
  H   H372      1.0  0.02769  0.33741  0.39916  1.0000
  C   C214      1.0  0.25557  0.40738  0.40098  1.0000
  C   C215      1.0  0.24782  0.22498  0.54475  1.0000
  C   C216      1.0  0.23683  0.06675  0.54400  1.0000
  C   C217      1.0  0.04585  0.11955  0.57630  1.0000
  H   H373      1.0  0.96447  0.07372  0.38095  1.0000
  H   H374      1.0  0.18943  0.46517  0.48287  1.0000
  C   C218      1.0  0.27048  0.20041  0.58971  1.0000
  S   S62       1.0  0.27419  0.45029  0.58875  1.0000
  C   C219      1.0  0.84136  0.13736  0.50085  1.0000
  Fe  Fe32      1.0  0.26490  0.06050  0.39057  1.0000
  H   H375      1.0  0.25123  0.28575  0.54506  1.0000
  S   S63       1.0  0.85484  0.23221  0.53454  1.0000
  H   H376      1.0  0.06714  0.42196  0.44730  1.0000
  C   C220      1.0  0.24445  0.34443  0.43492  1.0000
  H   H377      1.0  0.99162  0.99486  0.54964  1.0000
  S   S64       1.0  0.18401  0.02386  0.44173  1.0000
  H   H378      1.0  0.10640  0.34057  0.44305  1.0000
  C   C221      1.0  0.83291  0.07278  0.52560  1.0000
  C   C222      1.0  0.12731  0.41277  0.38252  1.0000
  H   H379      1.0  0.05285  0.06112  0.39514  1.0000
  C   C223      1.0  0.08052  0.37633  0.42074  1.0000
  H   H380      1.0  0.29631  0.32862  0.44328  1.0000
  H   H381      1.0  0.83035  0.44094  0.49823  1.0000
  H   H382      1.0  0.97053  0.47390  0.55443  1.0000
  C   C224      1.0  0.01539  0.07433  0.36474  1.0000
  H   H383      1.0  0.08918  0.28404  0.59403  1.0000
  H   H384      1.0  0.09626  0.44977  0.36536  1.0000
