data_image0
_chemical_formula_structural       FeHSHSHFeS2FeS2Fe2S3HSH3C2H3C6H4CH3NC8H9SCHC2H12CH4NC2HCFeCHC3H9CH3CH4NC8H4CH5FeS2Fe2SHC6H3C2HCHCHFeS5C5H3C2H2C2SH4NC8H9CH4CHCH3NC8H26CH2SC2FeSFeS2FeS2FeSFeS3H4SCHCH2C6H4CH4CH2C2H3CNH6CH4CH2CHCH2CFeHCHSHCH3CFeS2FeS2FeSHFeSFeS3C3H4SH2SC6H4SH2CHC2HCHC2H2CH2C2HCH2NC7H17CNCHCHCHFeC2H3FeCH2CH3FeS3FeSFeS2C6H3CHC2H2FeS2C2HCH6C2HCH2CH3NC2HCHC3H6NHCHCHCH2NC2H7C2H12CHC2H4C2HCHC2HCH2CH2NCH2CHC2H2C2H8CHCHCH7CH3CH2CH3CHSC2FeSCH2FeS2FeS2FeSFeS3C3H2NH3C7H10NC8H2CH15CHNHCH2CH3CH4SCH3CH2CH8CHCH2CSH3C2HNHCH3CH2FeHSHC2SHFeS2FeS2FeSFeS2HCHCHC3H2C6H6CHCH2CHSNC8H24CHC2FeSHCFeHCHSHCHNCH2NH3CH2CH2C3HC2HCHCHCH5SNH4CH2NH3CS2HC6H2CH2FeSFeS2FeSFeS2C4H3C3H2CH5CH2NH2C3H3CH5C2HC2H9C4H3C2H5SH2NCH2C2H6C3H5S2FeSHFeS2FeSFeS3CH3C4H2C6H6CHC2H4C2HCHNCFeH6C2H3C2H2C2H4NH2SH10C4H3CH2C2HC2H2CH3CHCHCH2C2HCH3SCSFeSFeSHFeS2FeS2FeHFeS3C3H2C2H3C6H4CH2CH2CH2CHFeH3NC8H13SH6CH2CH2C2NH2CH3CHCH4C2HC2H4CH3SFeS2C6H6FeS3FeSFeS2C3H2CHCH2CH4NH4CHCH5NC8H16CHC2HCHC2H2CH6CSHFeSCFeS2FeSFeS3C3H2C3H2C6H5N2C8H20NHC2H2SH5CHCH2C2H2C2H3C2HC2SH2CH2CH4C2HCH2CH2CFeH4SH2
_chemical_formula_sum              "Fe64 H768 S128 C448 N32"
_cell_length_a       38.4881
_cell_length_b       38.3966
_cell_length_c       43.4058
_cell_angle_alpha    88.2661
_cell_angle_beta     83.9042
_cell_angle_gamma    90.293

_space_group_name_H-M_alt    "P 1"
_space_group_IT_number       1

loop_
  _space_group_symop_operation_xyz
  'x, y, z'

loop_
  _atom_site_type_symbol
  _atom_site_label
  _atom_site_symmetry_multiplicity
  _atom_site_fract_x
  _atom_site_fract_y
  _atom_site_fract_z
  _atom_site_occupancy
  Fe  Fe1       1.0  0.29370  0.28131  0.03143  1.0000
  H   H1        1.0  0.19666  0.32469  0.17015  1.0000
  S   S1        1.0  0.29161  0.24601  0.07514  1.0000
  H   H2        1.0  0.19289  0.16264  0.06712  1.0000
  S   S2        1.0  0.33657  0.32148  0.02763  1.0000
  H   H3        1.0  0.04135  0.17640  0.23888  1.0000
  Fe  Fe2       1.0  0.16303  0.12484  0.25529  1.0000
  S   S3        1.0  0.14402  0.13776  0.30446  1.0000
  S   S4        1.0  0.16765  0.07319  0.22983  1.0000
  Fe  Fe3       1.0  0.16563  0.20204  0.23335  1.0000
  S   S5        1.0  0.14593  0.22081  0.28101  1.0000
  S   S6        1.0  0.17262  0.23812  0.18973  1.0000
  Fe  Fe4       1.0  0.18338  0.18231  0.29935  1.0000
  Fe  Fe5       1.0  0.10774  0.17557  0.28340  1.0000
  S   S7        1.0  0.05089  0.17747  0.30490  1.0000
  S   S8        1.0  0.20541  0.16627  0.25120  1.0000
  S   S9        1.0  0.12433  0.16008  0.23490  1.0000
  H   H4        1.0  0.27706  0.32185  0.09557  1.0000
  S   S10       1.0  0.25494  0.31851  0.01370  1.0000
  H   H5        1.0  0.32886  0.36937  0.12541  1.0000
  H   H6        1.0  0.17210  0.04521  0.29294  1.0000
  H   H7        1.0  0.33935  0.34020  0.09477  1.0000
  C   C1        1.0  0.01586  0.17619  0.25204  1.0000
  C   C2        1.0  0.16954  0.03017  0.24591  1.0000
  H   H8        1.0  0.49086  0.49206  0.02287  1.0000
  H   H9        1.0  0.23464  0.14296  0.06126  1.0000
  H   H10       1.0  0.22964  0.40279  0.08242  1.0000
  C   C3        1.0  0.25784  0.24338  0.10639  1.0000
  C   C4        1.0  0.26397  0.22512  0.13388  1.0000
  C   C5        1.0  0.23815  0.22296  0.15952  1.0000
  C   C6        1.0  0.20585  0.23910  0.15796  1.0000
  C   C7        1.0  0.19966  0.25713  0.13037  1.0000
  C   C8        1.0  0.22539  0.25913  0.10466  1.0000
  H   H11       1.0  0.28896  0.21280  0.13548  1.0000
  H   H12       1.0  0.24339  0.20922  0.18066  1.0000
  H   H13       1.0  0.17468  0.26956  0.12888  1.0000
  H   H14       1.0  0.22017  0.27298  0.08357  1.0000
  C   C9        1.0  0.30244  0.48166  0.03430  1.0000
  H   H15       1.0  0.24012  0.39932  0.16081  1.0000
  H   H16       1.0  0.20038  0.37185  0.13289  1.0000
  H   H17       1.0  0.32277  0.32252  0.13187  1.0000
  N   N1        1.0  0.18060  0.13632  0.13177  1.0000
  C   C10       1.0  0.15562  0.16510  0.12485  1.0000
  C   C11       1.0  0.21329  0.14185  0.10966  1.0000
  C   C12       1.0  0.18888  0.13928  0.16488  1.0000
  C   C13       1.0  0.16278  0.10198  0.12753  1.0000
  C   C14       1.0  0.17189  0.02364  0.27748  1.0000
  C   C15       1.0  0.20855  0.14050  0.07488  1.0000
  C   C16       1.0  0.22383  0.12385  0.17312  1.0000
  C   C17       1.0  0.18440  0.06865  0.13087  1.0000
  H   H18       1.0  0.16923  0.19087  0.12320  1.0000
  H   H19       1.0  0.14569  0.16170  0.10196  1.0000
  H   H20       1.0  0.23382  0.12270  0.11384  1.0000
  H   H21       1.0  0.22528  0.16764  0.11349  1.0000
  H   H22       1.0  0.18981  0.16703  0.17134  1.0000
  H   H23       1.0  0.16769  0.12724  0.18129  1.0000
  H   H24       1.0  0.13966  0.09835  0.14503  1.0000
  H   H25       1.0  0.15125  0.10143  0.10509  1.0000
  H   H26       1.0  0.40935  0.28701  0.07855  1.0000
  S   S11       1.0  0.30285  0.41048  0.02998  1.0000
  C   C18       1.0  0.12296  0.16890  0.14838  1.0000
  H   H27       1.0  0.19697  0.11542  0.06891  1.0000
  C   C19       1.0  0.48697  0.21673  0.04027  1.0000
  C   C20       1.0  0.27097  0.42379  0.12239  1.0000
  H   H28       1.0  0.22432  0.12383  0.19861  1.0000
  H   H29       1.0  0.24633  0.14010  0.16288  1.0000
  H   H30       1.0  0.22763  0.09655  0.16637  1.0000
  H   H31       1.0  0.18332  0.05979  0.15560  1.0000
  H   H32       1.0  0.21189  0.07131  0.12081  1.0000
  H   H33       1.0  0.17343  0.04764  0.11765  1.0000
  H   H34       1.0  0.21955  0.35515  0.19227  1.0000
  H   H35       1.0  0.28449  0.41780  0.09948  1.0000
  H   H36       1.0  0.21009  0.33162  0.11485  1.0000
  H   H37       1.0  0.28928  0.44138  0.13272  1.0000
  H   H38       1.0  0.23307  0.36016  0.06618  1.0000
  H   H39       1.0  0.24684  0.43859  0.11914  1.0000
  C   C21       1.0  0.32054  0.34486  0.11541  1.0000
  H   H40       1.0  0.27692  0.33027  0.16804  1.0000
  H   H41       1.0  0.28432  0.38913  0.15939  1.0000
  H   H42       1.0  0.28548  0.36562  0.08473  1.0000
  H   H43       1.0  0.31932  0.47719  0.05240  1.0000
  N   N2        1.0  0.41965  0.22222  0.04150  1.0000
  C   C22       1.0  0.45396  0.23903  0.04709  1.0000
  C   C23       1.0  0.39213  0.25004  0.04541  1.0000
  H   H44       1.0  0.10583  0.18923  0.13948  1.0000
  C   C24       1.0  0.41234  0.19168  0.06407  1.0000
  Fe  Fe6       1.0  0.29916  0.35789  0.00684  1.0000
  C   C25       1.0  0.38830  0.26740  0.07720  1.0000
  H   H45       1.0  0.13003  0.17813  0.17080  1.0000
  C   C26       1.0  0.37364  0.18010  0.07157  1.0000
  C   C27       1.0  0.21913  0.37594  0.08445  1.0000
  C   C28       1.0  0.49985  0.46821  0.03470  1.0000
  H   H46       1.0  0.36586  0.24036  0.04158  1.0000
  H   H47       1.0  0.39769  0.27112  0.02737  1.0000
  H   H48       1.0  0.25360  0.30317  0.14517  1.0000
  H   H49       1.0  0.45843  0.26365  0.03293  1.0000
  H   H50       1.0  0.42755  0.16851  0.05587  1.0000
  H   H51       1.0  0.42154  0.19783  0.08681  1.0000
  H   H52       1.0  0.45367  0.24674  0.07163  1.0000
  H   H53       1.0  0.22426  0.30919  0.19771  1.0000
  H   H54       1.0  0.19153  0.37731  0.07921  1.0000
  C   C29       1.0  0.47442  0.33834  0.01412  1.0000
  H   H55       1.0  0.36311  0.28145  0.08017  1.0000
  H   H56       1.0  0.38808  0.24825  0.09681  1.0000
  H   H57       1.0  0.47279  0.35643  0.03284  1.0000
  C   C30       1.0  0.29026  0.45309  0.01880  1.0000
  H   H58       1.0  0.10722  0.14464  0.15216  1.0000
  H   H59       1.0  0.37255  0.15138  0.07559  1.0000
  H   H60       1.0  0.35642  0.18605  0.05335  1.0000
  H   H61       1.0  0.36214  0.19119  0.09369  1.0000
  N   N3        1.0  0.25514  0.35760  0.12988  1.0000
  C   C31       1.0  0.25340  0.32946  0.15519  1.0000
  C   C32       1.0  0.28349  0.34746  0.10513  1.0000
  C   C33       1.0  0.22026  0.35858  0.11687  1.0000
  C   C34       1.0  0.26272  0.39171  0.14433  1.0000
  C   C35       1.0  0.22150  0.33025  0.17999  1.0000
  C   C36       1.0  0.01328  0.17665  0.28441  1.0000
  C   C37       1.0  0.39047  0.19540  0.99623  1.0000
  C   C38       1.0  0.44372  0.32851  0.00145  1.0000
  H   H62       1.0  0.48419  0.19056  0.05178  1.0000
  H   H63       1.0  0.47665  0.45185  0.04308  1.0000
  H   H64       1.0  0.38267  0.16995  0.00766  1.0000
  H   H65       1.0  0.49404  0.21437  0.01494  1.0000
  C   C39       1.0  0.42333  0.21034  0.00848  1.0000
  H   H66       1.0  0.41876  0.33905  0.01036  1.0000
  H   H67       1.0  0.36839  0.21380  0.99783  1.0000
  H   H68       1.0  0.44324  0.18953  0.00515  1.0000
  H   H69       1.0  0.06887  0.00708  0.26558  1.0000
  H   H70       1.0  0.16766  0.00648  0.20169  1.0000
  Fe  Fe7       1.0  0.30193  0.36948  0.52008  1.0000
  S   S12       1.0  0.31821  0.35816  0.47014  1.0000
  S   S13       1.0  0.30515  0.42277  0.54195  1.0000
  Fe  Fe8       1.0  0.35399  0.31869  0.48935  1.0000
  Fe  Fe9       1.0  0.27725  0.31522  0.47524  1.0000
  S   S14       1.0  0.23649  0.30360  0.44160  1.0000
  H   H71       1.0  0.18236  0.28284  0.64303  1.0000
  C   C40       1.0  0.22534  0.22323  0.36511  1.0000
  C   C41       1.0  0.25397  0.22170  0.38292  1.0000
  C   C42       1.0  0.25800  0.24602  0.40621  1.0000
  C   C43       1.0  0.23332  0.27232  0.41216  1.0000
  C   C44       1.0  0.20453  0.27363  0.39461  1.0000
  C   C45       1.0  0.20057  0.24939  0.37126  1.0000
  H   H72       1.0  0.27331  0.20164  0.37846  1.0000
  H   H73       1.0  0.28027  0.24450  0.41940  1.0000
  H   H74       1.0  0.18517  0.29371  0.39894  1.0000
  C   C46       1.0  0.38249  0.23865  0.42645  1.0000
  C   C47       1.0  0.44496  0.29809  0.51639  1.0000
  H   H75       1.0  0.41960  0.29548  0.52966  1.0000
  C   C48       1.0  0.29395  0.46406  0.52670  1.0000
  H   H76       1.0  0.25151  0.50326  0.47017  1.0000
  C   C49       1.0  0.27580  0.46758  0.50057  1.0000
  H   H77       1.0  0.31700  0.49168  0.56206  1.0000
  Fe  Fe10      1.0  0.29631  0.29132  0.53915  1.0000
  S   S15       1.0  0.31437  0.27509  0.49049  1.0000
  S   S16       1.0  0.28619  0.24610  0.57476  1.0000
  S   S17       1.0  0.41001  0.31835  0.46615  1.0000
  S   S18       1.0  0.33943  0.33131  0.53897  1.0000
  S   S19       1.0  0.25756  0.33023  0.52418  1.0000
  C   C50       1.0  0.25292  0.24183  0.60655  1.0000
  C   C51       1.0  0.25146  0.21137  0.62557  1.0000
  C   C52       1.0  0.20019  0.23231  0.65729  1.0000
  C   C53       1.0  0.20166  0.26278  0.63825  1.0000
  C   C54       1.0  0.22786  0.26758  0.61309  1.0000
  H   H78       1.0  0.27069  0.19126  0.62078  1.0000
  H   H79       1.0  0.48485  0.36193  0.52414  1.0000
  H   H80       1.0  0.22869  0.29123  0.59885  1.0000
  C   C55       1.0  0.44747  0.31005  0.48545  1.0000
  C   C56       1.0  0.48063  0.31327  0.46854  1.0000
  H   H81       1.0  0.16965  0.30247  0.51972  1.0000
  H   H82       1.0  0.26853  0.44458  0.48884  1.0000
  C   C57       1.0  0.26622  0.50089  0.49004  1.0000
  C   C58       1.0  0.22536  0.20664  0.65083  1.0000
  S   S20       1.0  0.22196  0.19175  0.33583  1.0000
  H   H83       1.0  0.37349  0.26149  0.44010  1.0000
  H   H84       1.0  0.47316  0.27794  0.55346  1.0000
  H   H85       1.0  0.15190  0.27052  0.54871  1.0000
  H   H86       1.0  0.48277  0.32237  0.44457  1.0000
  N   N4        1.0  0.41807  0.20615  0.46661  1.0000
  C   C59       1.0  0.45317  0.21204  0.47832  1.0000
  C   C60       1.0  0.39048  0.22072  0.48995  1.0000
  C   C61       1.0  0.41803  0.22560  0.43570  1.0000
  C   C62       1.0  0.41357  0.16747  0.46320  1.0000
  C   C63       1.0  0.48566  0.20320  0.45596  1.0000
  C   C64       1.0  0.38908  0.20574  0.52343  1.0000
  C   C65       1.0  0.48549  0.39083  0.52532  1.0000
  C   C66       1.0  0.37803  0.15498  0.45432  1.0000
  H   H87       1.0  0.45615  0.23968  0.48425  1.0000
  H   H88       1.0  0.45558  0.19660  0.50009  1.0000
  H   H89       1.0  0.36393  0.21716  0.48282  1.0000
  H   H90       1.0  0.39406  0.24941  0.49120  1.0000
  H   H91       1.0  0.43445  0.24973  0.43511  1.0000
  H   H92       1.0  0.43011  0.20963  0.41647  1.0000
  H   H93       1.0  0.43342  0.15760  0.44513  1.0000
  H   H94       1.0  0.41826  0.15317  0.48504  1.0000
  H   H95       1.0  0.47907  0.46533  0.53307  1.0000
  C   C67       1.0  0.46037  0.40310  0.50176  1.0000
  H   H96       1.0  0.17838  0.25102  0.35795  1.0000
  H   H97       1.0  0.36609  0.21689  0.53739  1.0000
  H   H98       1.0  0.38565  0.17706  0.52473  1.0000
  H   H99       1.0  0.41234  0.21351  0.53474  1.0000
  C   C68       1.0  0.47533  0.28806  0.52978  1.0000
  H   H100      1.0  0.48734  0.17496  0.45152  1.0000
  C   C69       1.0  0.37044  0.49936  0.47212  1.0000
  H   H101      1.0  0.35593  0.16251  0.47122  1.0000
  H   H102      1.0  0.37787  0.12604  0.45416  1.0000
  H   H103      1.0  0.37373  0.16410  0.43060  1.0000
  N   N5        1.0  0.19299  0.22180  0.51591  1.0000
  C   C70       1.0  0.21979  0.20732  0.49167  1.0000
  C   C71       1.0  0.15846  0.22169  0.50237  1.0000
  C   C72       1.0  0.19093  0.19762  0.54414  1.0000
  C   C73       1.0  0.20464  0.25781  0.52362  1.0000
  C   C74       1.0  0.25602  0.19928  0.50219  1.0000
  C   C75       1.0  0.15771  0.24305  0.47170  1.0000
  C   C76       1.0  0.16431  0.20672  0.57168  1.0000
  C   C77       1.0  0.17614  0.28290  0.53758  1.0000
  H   H104      1.0  0.21004  0.18280  0.48230  1.0000
  H   H105      1.0  0.22464  0.22578  0.47132  1.0000
  H   H106      1.0  0.13682  0.23127  0.51865  1.0000
  H   H107      1.0  0.15056  0.19448  0.49786  1.0000
  H   H108      1.0  0.18516  0.17048  0.53765  1.0000
  H   H109      1.0  0.21646  0.19667  0.55405  1.0000
  H   H110      1.0  0.22517  0.25615  0.53982  1.0000
  H   H111      1.0  0.21727  0.27151  0.50235  1.0000
  H   H112      1.0  0.25545  0.17468  0.51636  1.0000
  H   H113      1.0  0.27507  0.19574  0.48145  1.0000
  H   H114      1.0  0.26585  0.22069  0.51546  1.0000
  H   H115      1.0  0.13027  0.24559  0.46624  1.0000
  H   H116      1.0  0.16848  0.26974  0.47295  1.0000
  H   H117      1.0  0.17214  0.22979  0.45192  1.0000
  H   H118      1.0  0.16460  0.18585  0.58998  1.0000
  H   H119      1.0  0.13716  0.20816  0.56552  1.0000
  H   H120      1.0  0.17184  0.23101  0.58254  1.0000
  H   H121      1.0  0.18693  0.29815  0.55578  1.0000
  H   H122      1.0  0.38578  0.24778  0.40176  1.0000
  H   H123      1.0  0.36567  0.47278  0.48269  1.0000
  H   H124      1.0  0.36149  0.21878  0.42904  1.0000
  H   H125      1.0  0.38655  0.49613  0.44971  1.0000
  H   H126      1.0  0.45930  0.43173  0.49874  1.0000
  H   H127      1.0  0.46743  0.39137  0.47887  1.0000
  H   H128      1.0  0.47288  0.39646  0.54893  1.0000
  H   H129      1.0  0.43349  0.39365  0.50992  1.0000
  C   C78       1.0  0.30305  0.49424  0.54175  1.0000
  H   H130      1.0  0.48701  0.21839  0.43373  1.0000
  H   H131      1.0  0.25711  0.23488  0.80275  1.0000
  S   S21       1.0  0.31675  0.34233  0.95794  1.0000
  C   C79       1.0  0.16496  0.01295  0.74616  1.0000
  C   C80       1.0  0.44544  0.30520  0.97720  1.0000
  Fe  Fe11      1.0  0.27489  0.30011  0.96565  1.0000
  S   S22       1.0  0.23501  0.29037  0.93056  1.0000
  Fe  Fe12      1.0  0.15420  0.10766  0.74820  1.0000
  S   S23       1.0  0.13471  0.12016  0.79716  1.0000
  S   S24       1.0  0.15680  0.05340  0.72762  1.0000
  Fe  Fe13      1.0  0.15611  0.18511  0.72683  1.0000
  S   S25       1.0  0.13488  0.20256  0.77457  1.0000
  S   S26       1.0  0.16631  0.22773  0.68852  1.0000
  Fe  Fe14      1.0  0.17337  0.16515  0.79245  1.0000
  S   S27       1.0  0.21312  0.17753  0.82710  1.0000
  Fe  Fe15      1.0  0.09765  0.15672  0.77554  1.0000
  S   S28       1.0  0.04062  0.15080  0.79629  1.0000
  S   S29       1.0  0.19614  0.14940  0.74449  1.0000
  S   S30       1.0  0.11564  0.14244  0.72679  1.0000
  H   H132      1.0  0.08394  0.03685  0.76509  1.0000
  H   H133      1.0  0.25856  0.29193  0.69477  1.0000
  H   H134      1.0  0.47974  0.27373  0.94715  1.0000
  H   H135      1.0  0.18402  0.03424  0.78652  1.0000
  S   S31       1.0  0.40743  0.29108  0.96111  1.0000
  C   C81       1.0  0.17428  0.28683  0.76502  1.0000
  H   H136      1.0  0.39643  0.44970  0.95667  1.0000
  C   C82       1.0  0.26960  0.28759  0.81310  1.0000
  H   H137      1.0  0.02889  0.19450  0.74178  1.0000
  H   H138      1.0  0.04282  0.02011  0.75724  1.0000
  C   C83       1.0  0.21786  0.20860  0.85650  1.0000
  C   C84       1.0  0.24835  0.20795  0.87189  1.0000
  C   C85       1.0  0.25398  0.23240  0.89468  1.0000
  C   C86       1.0  0.22921  0.25817  0.90239  1.0000
  C   C87       1.0  0.19880  0.25893  0.88687  1.0000
  C   C88       1.0  0.19305  0.23433  0.86425  1.0000
  H   H139      1.0  0.26782  0.18830  0.86618  1.0000
  H   H140      1.0  0.27753  0.23135  0.90621  1.0000
  H   H141      1.0  0.17934  0.27860  0.89260  1.0000
  H   H142      1.0  0.16930  0.23518  0.85299  1.0000
  C   C89       1.0  0.47816  0.29178  0.96591  1.0000
  H   H143      1.0  0.33349  0.49420  0.96771  1.0000
  H   H144      1.0  0.29093  0.25457  0.77722  1.0000
  H   H145      1.0  0.23567  0.32962  0.70722  1.0000
  H   H146      1.0  0.20683  0.29797  0.79973  1.0000
  C   C90       1.0  0.26451  0.25942  0.78929  1.0000
  H   H147      1.0  0.29290  0.28105  0.82516  1.0000
  H   H148      1.0  0.19467  0.25325  0.79941  1.0000
  C   C91       1.0  0.23890  0.30155  0.71310  1.0000
  C   C92       1.0  0.20416  0.27595  0.78412  1.0000
  H   H149      1.0  0.22366  0.21342  0.76499  1.0000
  H   H150      1.0  0.28488  0.20787  0.74673  1.0000
  H   H151      1.0  0.14997  0.28950  0.78102  1.0000
  C   C93       1.0  0.23437  0.23472  0.74868  1.0000
  N   N6        1.0  0.23868  0.26752  0.76617  1.0000
  H   H152      1.0  0.28291  0.24127  0.71653  1.0000
  H   H153      1.0  0.24725  0.28794  0.83151  1.0000
  H   H154      1.0  0.16852  0.26730  0.74801  1.0000
  H   H155      1.0  0.24703  0.32289  0.75749  1.0000
  H   H156      1.0  0.17957  0.31264  0.75326  1.0000
  H   H157      1.0  0.24086  0.49806  0.97060  1.0000
  C   C94       1.0  0.25244  0.29796  0.74547  1.0000
  H   H158      1.0  0.26060  0.20055  0.71472  1.0000
  H   H159      1.0  0.21479  0.23752  0.73199  1.0000
  H   H160      1.0  0.28143  0.29648  0.74087  1.0000
  H   H161      1.0  0.21348  0.28894  0.71088  1.0000
  C   C95       1.0  0.26791  0.22075  0.73074  1.0000
  H   H162      1.0  0.27395  0.31389  0.80213  1.0000
  H   H163      1.0  0.35529  0.47925  0.93269  1.0000
  C   C96       1.0  0.38263  0.46868  0.97235  1.0000
  H   H164      1.0  0.39662  0.19048  0.97114  1.0000
  C   C97       1.0  0.25830  0.49360  0.98829  1.0000
  H   H165      1.0  0.36534  0.45258  0.98942  1.0000
  H   H166      1.0  0.25849  0.43755  0.98361  1.0000
  C   C98       1.0  0.35962  0.49313  0.95416  1.0000
  Fe  Fe16      1.0  0.35128  0.30351  0.97971  1.0000
  H   H167      1.0  0.22457  0.18304  0.66516  1.0000
  C   C99       1.0  0.17844  0.01066  0.77484  1.0000
  H   H168      1.0  0.40154  0.48170  0.98566  1.0000
  S   S32       1.0  0.31080  0.26041  0.98425  1.0000
  H   H169      1.0  0.41447  0.48328  0.90945  1.0000
  C   C100      1.0  0.07017  0.01265  0.75952  1.0000
  H   H170      1.0  0.01999  0.09238  0.73685  1.0000
  H   H171      1.0  0.01011  0.08439  0.69838  1.0000
  H   H172      1.0  0.43303  0.23217  0.99235  1.0000
  C   C101      1.0  0.26828  0.45925  0.99559  1.0000
  Fe  Fe17      1.0  0.29688  0.67842  0.03987  1.0000
  S   S33       1.0  0.28610  0.69322  0.09073  1.0000
  S   S34       1.0  0.32317  0.62606  0.03462  1.0000
  Fe  Fe18      1.0  0.11267  0.81035  0.26837  1.0000
  S   S35       1.0  0.13380  0.84978  0.23188  1.0000
  S   S36       1.0  0.05613  0.80344  0.28983  1.0000
  Fe  Fe19      1.0  0.18643  0.78792  0.28282  1.0000
  S   S37       1.0  0.21308  0.82599  0.24709  1.0000
  H   H173      1.0  0.40905  0.54641  0.99977  1.0000
  Fe  Fe20      1.0  0.17211  0.86461  0.26501  1.0000
  S   S38       1.0  0.18031  0.91806  0.28499  1.0000
  Fe  Fe21      1.0  0.17304  0.80817  0.21630  1.0000
  S   S39       1.0  0.18168  0.79875  0.16415  1.0000
  S   S40       1.0  0.14868  0.82740  0.30268  1.0000
  S   S41       1.0  0.14881  0.76776  0.25081  1.0000
  C   C102      1.0  0.17527  0.96076  0.26918  1.0000
  C   C103      1.0  0.17490  0.98915  0.28897  1.0000
  C   C104      1.0  0.17211  0.96719  0.23770  1.0000
  H   H174      1.0  0.17740  0.98449  0.31334  1.0000
  H   H175      1.0  0.17263  0.94567  0.22216  1.0000
  H   H176      1.0  0.09918  0.97260  0.26149  1.0000
  H   H177      1.0  0.10760  0.68342  0.32420  1.0000
  S   S42       1.0  0.25725  0.66654  0.00677  1.0000
  H   H178      1.0  0.08944  0.87946  0.28873  1.0000
  H   H179      1.0  0.04484  0.81251  0.22424  1.0000
  S   S43       1.0  0.21496  0.74752  0.31067  1.0000
  C   C105      1.0  0.25837  0.72434  0.11025  1.0000
  C   C106      1.0  0.23757  0.74718  0.09458  1.0000
  C   C107      1.0  0.21447  0.76992  0.11144  1.0000
  C   C108      1.0  0.21199  0.77027  0.14406  1.0000
  C   C109      1.0  0.23293  0.74754  0.15966  1.0000
  C   C110      1.0  0.25593  0.72476  0.14284  1.0000
  H   H180      1.0  0.23913  0.74722  0.06955  1.0000
  H   H181      1.0  0.19844  0.78743  0.09914  1.0000
  H   H182      1.0  0.23137  0.74751  0.18470  1.0000
  H   H183      1.0  0.27189  0.70724  0.15521  1.0000
  S   S44       1.0  0.33509  0.70499  0.00336  1.0000
  H   H184      1.0  0.03275  0.96309  0.30646  1.0000
  H   H185      1.0  0.22746  0.58683  0.08327  1.0000
  C   C111      1.0  0.29304  0.51603  0.02656  1.0000
  H   H186      1.0  0.42655  0.69568  0.02269  1.0000
  C   C112      1.0  0.15883  0.58805  0.08533  1.0000
  C   C113      1.0  0.01968  0.81131  0.23799  1.0000
  H   H187      1.0  0.48021  0.72037  0.04111  1.0000
  C   C114      1.0  0.45130  0.68262  0.01794  1.0000
  H   H188      1.0  0.17157  0.56578  0.09643  1.0000
  C   C115      1.0  0.08039  0.92535  0.22312  1.0000
  C   C116      1.0  0.04479  0.95757  0.28262  1.0000
  H   H189      1.0  0.25435  0.62544  0.07565  1.0000
  H   H190      1.0  0.17308  0.68743  0.03436  1.0000
  C   C117      1.0  0.05235  0.90803  0.24671  1.0000
  H   H191      1.0  0.02805  0.87086  0.30007  1.0000
  H   H192      1.0  0.10811  0.92067  0.27958  1.0000
  C   C118      1.0  0.48182  0.69656  0.02835  1.0000
  C   C119      1.0  0.01798  0.80684  0.27021  1.0000
  H   H193      1.0  0.10367  0.76052  0.31982  1.0000
  C   C120      1.0  0.08499  0.90779  0.29232  1.0000
  H   H194      1.0  0.05570  0.87924  0.24542  1.0000
  H   H195      1.0  0.07477  0.95333  0.21910  1.0000
  N   N7        1.0  0.18440  0.64509  0.10544  1.0000
  C   C121      1.0  0.17283  0.67477  0.12617  1.0000
  C   C122      1.0  0.19345  0.66048  0.07318  1.0000
  C   C123      1.0  0.21643  0.62891  0.11718  1.0000
  C   C124      1.0  0.15470  0.61912  0.10713  1.0000
  C   C125      1.0  0.16888  0.66654  0.16143  1.0000
  C   C126      1.0  0.16356  0.67919  0.05858  1.0000
  C   C127      1.0  0.24081  0.60807  0.09404  1.0000
  H   H196      1.0  0.07987  0.91270  0.20048  1.0000
  H   H197      1.0  0.19145  0.69703  0.12218  1.0000
  H   H198      1.0  0.14721  0.68524  0.12069  1.0000
  H   H199      1.0  0.20345  0.64067  0.05656  1.0000
  H   H200      1.0  0.21538  0.67955  0.07303  1.0000
  H   H201      1.0  0.23348  0.64949  0.12541  1.0000
  H   H202      1.0  0.20896  0.61136  0.13774  1.0000
  H   H203      1.0  0.14987  0.60728  0.13091  1.0000
  H   H204      1.0  0.12946  0.63204  0.10382  1.0000
  H   H205      1.0  0.19425  0.65999  0.17006  1.0000
  H   H206      1.0  0.15946  0.69032  0.17362  1.0000
  H   H207      1.0  0.14946  0.64558  0.16825  1.0000
  H   H208      1.0  0.15561  0.70329  0.07083  1.0000
  H   H209      1.0  0.10913  0.71245  0.29150  1.0000
  H   H210      1.0  0.10726  0.92218  0.22962  1.0000
  H   H211      1.0  0.26168  0.59600  0.10652  1.0000
  H   H212      1.0  0.17317  0.59426  0.06240  1.0000
  C   C128      1.0  0.08708  0.91388  0.32704  1.0000
  N   N8        1.0  0.05152  0.91897  0.27989  1.0000
  C   C129      1.0  0.38012  0.54574  0.00267  1.0000
  H   H213      1.0  0.30255  0.53772  0.03873  1.0000
  C   C130      1.0  0.07688  0.98240  0.27675  1.0000
  H   H214      1.0  0.02723  0.91387  0.23726  1.0000
  C   C131      1.0  0.12023  0.70742  0.31380  1.0000
  H   H215      1.0  0.14069  0.66181  0.05743  1.0000
  Fe  Fe22      1.0  0.35868  0.65190  0.99604  1.0000
  C   C132      1.0  0.02207  0.89914  0.29868  1.0000
  C   C133      1.0  0.45292  0.65197  0.00125  1.0000
  H   H216      1.0  0.14844  0.70187  0.30781  1.0000
  H   H217      1.0  0.13256  0.57939  0.08007  1.0000
  H   H218      1.0  0.01896  0.90762  0.32310  1.0000
  Fe  Fe23      1.0  0.28653  0.61609  0.99913  1.0000
  C   C134      1.0  0.27082  0.52220  0.00353  1.0000
  H   H219      1.0  0.37206  0.56642  0.01924  1.0000
  H   H220      1.0  0.36994  0.52091  0.01384  1.0000
  C   C135      1.0  0.16938  0.00174  0.22616  1.0000
  H   H221      1.0  0.02540  0.96613  0.26672  1.0000
  H   H222      1.0  0.08611  0.99019  0.29897  1.0000
  H   H223      1.0  0.05082  0.70718  0.32177  1.0000
  Fe  Fe24      1.0  0.27908  0.62607  0.50342  1.0000
  S   S45       1.0  0.30288  0.65876  0.46276  1.0000
  S   S46       1.0  0.26096  0.57204  0.49176  1.0000
  S   S47       1.0  0.30950  0.72185  0.51103  1.0000
  Fe  Fe25      1.0  0.26890  0.70193  0.48176  1.0000
  S   S48       1.0  0.23964  0.74188  0.45418  1.0000
  Fe  Fe26      1.0  0.34170  0.67594  0.49470  1.0000
  S   S49       1.0  0.39783  0.67958  0.47202  1.0000
  S   S50       1.0  0.24174  0.66809  0.52060  1.0000
  C   C136      1.0  0.23303  0.74286  0.41421  1.0000
  C   C137      1.0  0.21664  0.77194  0.40169  1.0000
  C   C138      1.0  0.21117  0.77402  0.37004  1.0000
  C   C139      1.0  0.22210  0.74697  0.35050  1.0000
  C   C140      1.0  0.23856  0.71794  0.36302  1.0000
  C   C141      1.0  0.24388  0.71580  0.39469  1.0000
  H   H224      1.0  0.20824  0.79309  0.41656  1.0000
  H   H225      1.0  0.19865  0.79659  0.36074  1.0000
  H   H226      1.0  0.25602  0.69306  0.40405  1.0000
  C   C142      1.0  0.46880  0.67735  0.47512  1.0000
  H   H227      1.0  0.47096  0.68080  0.45017  1.0000
  C   C143      1.0  0.29410  0.52760  0.53083  1.0000
  C   C144      1.0  0.27525  0.53101  0.50510  1.0000
  H   H228      1.0  0.24292  0.54766  0.58397  1.0000
  H   H229      1.0  0.30116  0.55054  0.54267  1.0000
  Fe  Fe27      1.0  0.28452  0.68518  0.54854  1.0000
  S   S51       1.0  0.27900  0.69664  0.60027  1.0000
  S   S52       1.0  0.32001  0.64023  0.53410  1.0000
  C   C145      1.0  0.24695  0.72160  0.62223  1.0000
  C   C146      1.0  0.22062  0.73935  0.60854  1.0000
  H   H230      1.0  0.40806  0.59282  0.55670  1.0000
  C   C147      1.0  0.46382  0.66844  0.53940  1.0000
  H   H231      1.0  0.39621  0.54819  0.55341  1.0000
  H   H232      1.0  0.20532  0.66937  0.58813  1.0000
  H   H233      1.0  0.21955  0.73833  0.58378  1.0000
  H   H234      1.0  0.36070  0.55312  0.43313  1.0000
  H   H235      1.0  0.45646  0.58958  0.42094  1.0000
  H   H236      1.0  0.13385  0.77105  0.38330  1.0000
  C   C148      1.0  0.43557  0.67610  0.49212  1.0000
  C   C149      1.0  0.43320  0.67152  0.52436  1.0000
  H   H237      1.0  0.40784  0.67055  0.53776  1.0000
  C   C150      1.0  0.19641  0.76020  0.65922  1.0000
  H   H238      1.0  0.36829  0.58254  0.54097  1.0000
  H   H239      1.0  0.42208  0.80129  0.38432  1.0000
  C   C151      1.0  0.18507  0.61569  0.58883  1.0000
  H   H240      1.0  0.34488  0.57287  0.49553  1.0000
  H   H241      1.0  0.29704  0.61317  0.61983  1.0000
  H   H242      1.0  0.32515  0.57864  0.44821  1.0000
  N   N9        1.0  0.09638  0.73619  0.36564  1.0000
  C   C152      1.0  0.24796  0.72345  0.65448  1.0000
  C   C153      1.0  0.22394  0.56674  0.57589  1.0000
  H   H243      1.0  0.36405  0.77672  0.36204  1.0000
  C   C154      1.0  0.36216  0.78145  0.44073  1.0000
  H   H244      1.0  0.07937  0.94059  0.33366  1.0000
  C   C155      1.0  0.35413  0.57724  0.44556  1.0000
  C   C156      1.0  0.24492  0.61405  0.60523  1.0000
  C   C157      1.0  0.10674  0.70409  0.38332  1.0000
  H   H245      1.0  0.46176  0.66520  0.56438  1.0000
  H   H246      1.0  0.42284  0.60270  0.50352  1.0000
  H   H247      1.0  0.37186  0.76408  0.45903  1.0000
  H   H248      1.0  0.44801  0.54003  0.46124  1.0000
  H   H249      1.0  0.25839  0.91133  0.63960  1.0000
  H   H250      1.0  0.40722  0.73048  0.41971  1.0000
  N   N10       1.0  0.21304  0.59262  0.60052  1.0000
  H   H251      1.0  0.15867  0.60368  0.59454  1.0000
  C   C158      1.0  0.19910  0.57245  0.62959  1.0000
  H   H252      1.0  0.01329  0.70814  0.34906  1.0000
  C   C159      1.0  0.05741  0.73585  0.36397  1.0000
  H   H253      1.0  0.23886  0.63416  0.62279  1.0000
  C   C160      1.0  0.39568  0.57433  0.54183  1.0000
  H   H254      1.0  0.37998  0.80445  0.43809  1.0000
  H   H255      1.0  0.24690  0.69676  0.34816  1.0000
  N   N11       1.0  0.36276  0.76251  0.41071  1.0000
  C   C161      1.0  0.39979  0.75035  0.40233  1.0000
  C   C162      1.0  0.42852  0.77882  0.39926  1.0000
  H   H256      1.0  0.25419  0.62877  0.58338  1.0000
  H   H257      1.0  0.26998  0.57861  0.63732  1.0000
  H   H258      1.0  0.26703  0.80649  0.63543  1.0000
  H   H259      1.0  0.36317  0.81291  0.38678  1.0000
  H   H260      1.0  0.37272  0.60775  0.48083  1.0000
  H   H261      1.0  0.40226  0.73717  0.37973  1.0000
  H   H262      1.0  0.33746  0.71987  0.36629  1.0000
  C   C163      1.0  0.35237  0.78619  0.38484  1.0000
  C   C164      1.0  0.34094  0.70579  0.38838  1.0000
  H   H263      1.0  0.32976  0.80687  0.47721  1.0000
  H   H264      1.0  0.17523  0.77204  0.61610  1.0000
  H   H265      1.0  0.09886  0.67967  0.37309  1.0000
  H   H266      1.0  0.28716  0.84771  0.62116  1.0000
  H   H267      1.0  0.36554  0.69069  0.38586  1.0000
  H   H268      1.0  0.41548  0.54479  0.43609  1.0000
  H   H269      1.0  0.21805  0.55219  0.63561  1.0000
  H   H270      1.0  0.31828  0.81784  0.43950  1.0000
  H   H271      1.0  0.17403  0.56062  0.55503  1.0000
  H   H272      1.0  0.17488  0.55792  0.62593  1.0000
  H   H273      1.0  0.44220  0.56225  0.51217  1.0000
  H   H274      1.0  0.06189  0.80449  0.38302  1.0000
  C   C165      1.0  0.10505  0.76719  0.38427  1.0000
  H   H275      1.0  0.09260  0.70299  0.40712  1.0000
  C   C166      1.0  0.31275  0.78973  0.38184  1.0000
  C   C167      1.0  0.38855  0.52160  0.49474  1.0000
  H   H276      1.0  0.23760  0.58047  0.55505  1.0000
  H   H277      1.0  0.28858  0.57706  0.59701  1.0000
  H   H278      1.0  0.10381  0.82395  0.38521  1.0000
  H   H279      1.0  0.30613  0.77580  0.45818  1.0000
  C   C168      1.0  0.41659  0.57482  0.50944  1.0000
  C   C169      1.0  0.42583  0.55702  0.45602  1.0000
  H   H280      1.0  0.09344  0.80745  0.34918  1.0000
  C   C170      1.0  0.49943  0.67425  0.49017  1.0000
  H   H281      1.0  0.41179  0.50691  0.50110  1.0000
  C   C171      1.0  0.19552  0.75847  0.62696  1.0000
  C   C172      1.0  0.34002  0.73033  0.41597  1.0000
  H   H282      1.0  0.20577  0.52800  0.54572  1.0000
  C   C173      1.0  0.36728  0.57959  0.47796  1.0000
  H   H283      1.0  0.15889  0.66591  0.59274  1.0000
  H   H284      1.0  0.34777  0.71468  0.43608  1.0000
  C   C174      1.0  0.32678  0.79602  0.45418  1.0000
  H   H285      1.0  0.15105  0.67544  0.39821  1.0000
  H   H286      1.0  0.15538  0.72128  0.40152  1.0000
  N   N12       1.0  0.39895  0.55828  0.48392  1.0000
  C   C175      1.0  0.14611  0.70090  0.38670  1.0000
  H   H287      1.0  0.31227  0.73657  0.42260  1.0000
  H   H288      1.0  0.30450  0.77216  0.36403  1.0000
  C   C176      1.0  0.09006  0.80261  0.37456  1.0000
  H   H289      1.0  0.20934  0.83213  0.64322  1.0000
  C   C177      1.0  0.44170  0.59257  0.44412  1.0000
  C   C178      1.0  0.23132  0.85123  0.63953  1.0000
  H   H290      1.0  0.22338  0.87058  0.62205  1.0000
  H   H291      1.0  0.28984  0.88827  0.65908  1.0000
  C   C179      1.0  0.27657  0.59394  0.61543  1.0000
  C   C180      1.0  0.04220  0.70561  0.34696  1.0000
  H   H292      1.0  0.04915  0.75973  0.35158  1.0000
  H   H293      1.0  0.42153  0.61264  0.44167  1.0000
  H   H294      1.0  0.45326  0.76754  0.38845  1.0000
  H   H295      1.0  0.09579  0.76279  0.40932  1.0000
  H   H296      1.0  0.18872  0.61844  0.56301  1.0000
  H   H297      1.0  0.43411  0.78784  0.42230  1.0000
  H   H298      1.0  0.36304  0.60030  0.43068  1.0000
  H   H299      1.0  0.31935  0.68641  0.39285  1.0000
  C   C181      1.0  0.18309  0.65369  0.59970  1.0000
  H   H300      1.0  0.18215  0.52660  0.58331  1.0000
  C   C182      1.0  0.19435  0.54457  0.56474  1.0000
  H   H301      1.0  0.18270  0.65613  0.62503  1.0000
  C   C183      1.0  0.26287  0.83182  0.62334  1.0000
  H   H302      1.0  0.11453  0.91020  0.33221  1.0000
  H   H303      1.0  0.17241  0.89293  0.64370  1.0000
  H   H304      1.0  0.04330  0.73602  0.38777  1.0000
  H   H305      1.0  0.29536  0.78572  0.40357  1.0000
  H   H306      1.0  0.30756  0.81648  0.37306  1.0000
  H   H307      1.0  0.25723  0.82534  0.59957  1.0000
  H   H308      1.0  0.04762  0.67961  0.35699  1.0000
  C   C184      1.0  0.49711  0.66995  0.52246  1.0000
  H   H309      1.0  0.36985  0.52169  0.51607  1.0000
  H   H310      1.0  0.14287  0.75054  0.33526  1.0000
  H   H311      1.0  0.46065  0.60221  0.45955  1.0000
  C   C185      1.0  0.26265  0.89837  0.66221  1.0000
  H   H312      1.0  0.34430  0.50974  0.46848  1.0000
  H   H313      1.0  0.16777  0.61165  0.65578  1.0000
  C   C186      1.0  0.11603  0.74026  0.33374  1.0000
  H   H314      1.0  0.16213  0.70164  0.36392  1.0000
  H   H315      1.0  0.07092  0.89450  0.34178  1.0000
  H   H316      1.0  0.19910  0.92867  0.65457  1.0000
  C   C187      1.0  0.18980  0.59386  0.65867  1.0000
  H   H317      1.0  0.30280  0.52219  0.93218  1.0000
  S   S53       1.0  0.32324  0.63871  0.95977  1.0000
  C   C188      1.0  0.35616  0.54354  0.91839  1.0000
  C   C189      1.0  0.15798  0.98207  0.73122  1.0000
  Fe  Fe28      1.0  0.29674  0.68982  0.96958  1.0000
  S   S54       1.0  0.28739  0.72763  0.92918  1.0000
  C   C190      1.0  0.05880  0.93035  0.81349  1.0000
  H   H318      1.0  0.04840  0.96656  0.71955  1.0000
  H   H319      1.0  0.14015  0.83139  0.92582  1.0000
  Fe  Fe29      1.0  0.09189  0.81923  0.77761  1.0000
  S   S55       1.0  0.12707  0.84872  0.74111  1.0000
  S   S56       1.0  0.03514  0.83592  0.78949  1.0000
  Fe  Fe30      1.0  0.15442  0.77975  0.80179  1.0000
  S   S57       1.0  0.19375  0.80634  0.76647  1.0000
  S   S58       1.0  0.16406  0.74116  0.84139  1.0000
  Fe  Fe31      1.0  0.16344  0.85542  0.77741  1.0000
  S   S59       1.0  0.18880  0.90608  0.78971  1.0000
  Fe  Fe32      1.0  0.15436  0.79726  0.73246  1.0000
  S   S60       1.0  0.16460  0.78576  0.68084  1.0000
  S   S61       1.0  0.12686  0.82943  0.81481  1.0000
  S   S62       1.0  0.11647  0.76723  0.76697  1.0000
  C   C191      1.0  0.17859  0.94695  0.77302  1.0000
  C   C192      1.0  0.18564  0.97776  0.78800  1.0000
  C   C193      1.0  0.16428  0.94927  0.74479  1.0000
  H   H320      1.0  0.19681  0.97628  0.80984  1.0000
  H   H321      1.0  0.15832  0.92578  0.73331  1.0000
  N   N13       1.0  0.05304  0.95172  0.78468  1.0000
  H   H322      1.0  0.36686  0.56987  0.91080  1.0000
  H   H323      1.0  0.18104  0.57578  0.67848  1.0000
  H   H324      1.0  0.30751  0.56844  0.93800  1.0000
  C   C194      1.0  0.04808  0.93869  0.72659  1.0000
  C   C195      1.0  0.25379  0.72825  0.90383  1.0000
  C   C196      1.0  0.22156  0.71141  0.91150  1.0000
  C   C197      1.0  0.19478  0.71496  0.89175  1.0000
  C   C198      1.0  0.19982  0.73522  0.86401  1.0000
  C   C199      1.0  0.23242  0.75117  0.85586  1.0000
  C   C200      1.0  0.25906  0.74793  0.87577  1.0000
  H   H325      1.0  0.21704  0.69616  0.93294  1.0000
  H   H326      1.0  0.16980  0.70229  0.89824  1.0000
  H   H327      1.0  0.23706  0.76601  0.83427  1.0000
  H   H328      1.0  0.28399  0.76074  0.86941  1.0000
  H   H329      1.0  0.23201  0.81932  0.69514  1.0000
  H   H330      1.0  0.23687  0.86597  0.73630  1.0000
  H   H331      1.0  0.26825  0.70986  0.66532  1.0000
  H   H332      1.0  0.37190  0.58096  0.96482  1.0000
  H   H333      1.0  0.09406  0.93460  0.75055  1.0000
  H   H334      1.0  0.04477  0.90489  0.81401  1.0000
  N   N14       1.0  0.20204  0.85139  0.88923  1.0000
  C   C201      1.0  0.23821  0.84484  0.87329  1.0000
  C   C202      1.0  0.20611  0.86004  0.92234  1.0000
  C   C203      1.0  0.18669  0.88180  0.87250  1.0000
  C   C204      1.0  0.18059  0.81872  0.88730  1.0000
  C   C205      1.0  0.24149  0.84374  0.83749  1.0000
  C   C206      1.0  0.22202  0.83110  0.94187  1.0000
  C   C207      1.0  0.06546  0.93109  0.75653  1.0000
  C   C208      1.0  0.14298  0.81825  0.90344  1.0000
  H   H335      1.0  0.25703  0.86521  0.87906  1.0000
  H   H336      1.0  0.24864  0.81969  0.88160  1.0000
  C   C209      1.0  0.15753  0.90264  0.89064  1.0000
  H   H337      1.0  0.26716  0.83116  0.73651  1.0000
  H   H338      1.0  0.20735  0.90157  0.86465  1.0000
  H   H339      1.0  0.17628  0.87304  0.85102  1.0000
  H   H340      1.0  0.17805  0.81275  0.86279  1.0000
  H   H341      1.0  0.19404  0.79543  0.89594  1.0000
  H   H342      1.0  0.22157  0.82685  0.82877  1.0000
  H   H343      1.0  0.24001  0.87022  0.82678  1.0000
  H   H344      1.0  0.26748  0.83319  0.82906  1.0000
  H   H345      1.0  0.11030  0.90895  0.79664  1.0000
  H   H346      1.0  0.27562  0.83038  0.68027  1.0000
  H   H347      1.0  0.02605  0.78778  0.73968  1.0000
  H   H348      1.0  0.20273  0.89231  0.70628  1.0000
  H   H349      1.0  0.02079  0.92878  0.72862  1.0000
  H   H350      1.0  0.18086  0.86679  0.93538  1.0000
  H   H351      1.0  0.12454  0.82945  0.88786  1.0000
  C   C210      1.0  0.25943  0.85408  0.72262  1.0000
  H   H352      1.0  0.13505  0.79074  0.90930  1.0000
  N   N15       1.0  0.37332  0.52956  0.94595  1.0000
  H   H353      1.0  0.08360  0.00438  0.73711  1.0000
  C   C211      1.0  0.20157  0.88038  0.68356  1.0000
  H   H354      1.0  0.04787  0.94382  0.83474  1.0000
  H   H355      1.0  0.06183  0.90257  0.76143  1.0000
  C   C212      1.0  0.22289  0.74267  0.67291  1.0000
  H   H356      1.0  0.22349  0.84045  0.96568  1.0000
  H   H357      1.0  0.48697  0.61168  0.98239  1.0000
  H   H358      1.0  0.10226  0.97983  0.78434  1.0000
  C   C213      1.0  0.41228  0.53107  0.93701  1.0000
  H   H359      1.0  0.20560  0.80714  0.94425  1.0000
  H   H360      1.0  0.28216  0.87217  0.72013  1.0000
  H   H361      1.0  0.42104  0.55866  0.93214  1.0000
  H   H362      1.0  0.36180  0.52661  0.89814  1.0000
  S   S63       1.0  0.41549  0.63373  0.98682  1.0000
  C   C214      1.0  0.31597  0.54663  0.92293  1.0000
  H   H363      1.0  0.06690  0.99816  0.80794  1.0000
  H   H364      1.0  0.16787  0.91769  0.90917  1.0000
  H   H365      1.0  0.22399  0.74377  0.69766  1.0000
  C   C215      1.0  0.25079  0.84162  0.69088  1.0000
  H   H366      1.0  0.24907  0.82451  0.93259  1.0000
  H   H367      1.0  0.09748  0.90189  0.83707  1.0000
  C   C216      1.0  0.09708  0.92115  0.81750  1.0000
  H   H368      1.0  0.11232  0.94415  0.82345  1.0000
  H   H369      1.0  0.06255  0.92457  0.70733  1.0000
  H   H370      1.0  0.42715  0.52221  0.95618  1.0000
  H   H371      1.0  0.13521  0.88629  0.90057  1.0000
  H   H372      1.0  0.14721  0.92201  0.87445  1.0000
  H   H373      1.0  0.30632  0.55275  0.90016  1.0000
  H   H374      1.0  0.33549  0.55435  0.97873  1.0000
  H   H375      1.0  0.14750  0.98362  0.70907  1.0000
  C   C217      1.0  0.07379  0.98514  0.78551  1.0000
  H   H376      1.0  0.22275  0.88383  0.92290  1.0000
  C   C218      1.0  0.36414  0.55377  0.97223  1.0000
  H   H377      1.0  0.42031  0.52359  0.88666  1.0000
  H   H378      1.0  0.18387  0.85747  0.68892  1.0000
  C   C219      1.0  0.26172  0.92803  0.68579  1.0000
  S   S64       1.0  0.25750  0.56495  0.99348  1.0000
  H   H379      1.0  0.21253  0.60856  0.66543  1.0000
  H   H380      1.0  0.28891  0.93674  0.68796  1.0000
  H   H381      1.0  0.24993  0.92128  0.70954  1.0000
  C   C220      1.0  0.01467  0.96018  0.78648  1.0000
  C   C221      1.0  0.42574  0.50995  0.90854  1.0000
  H   H382      1.0  0.45459  0.50751  0.90757  1.0000
  N   N16       1.0  0.23692  0.86864  0.66945  1.0000
  H   H383      1.0  0.15926  0.91656  0.67752  1.0000
  C   C222      1.0  0.18245  0.90617  0.66338  1.0000
  H   H384      1.0  0.24838  0.95133  0.67702  1.0000
  H   H385      1.0  0.00735  0.97801  0.80589  1.0000
  H   H386      1.0  0.00818  0.97465  0.76538  1.0000
  C   C223      1.0  0.48539  0.63535  0.99532  1.0000
  H   H387      1.0  0.97761  0.17690  0.32619  1.0000
  H   H388      1.0  0.75861  0.08907  0.28829  1.0000
  Fe  Fe33      1.0  0.66202  0.28694  0.04241  1.0000
  H   H389      1.0  0.92838  0.02489  0.18770  1.0000
  S   S65       1.0  0.67064  0.24403  0.07830  1.0000
  H   H390      1.0  0.90954  0.11718  0.19157  1.0000
  C   C224      1.0  0.97985  0.17653  0.30115  1.0000
  C   C225      1.0  0.68827  0.09524  0.28567  1.0000
  S   S66       1.0  0.62774  0.33226  0.05492  1.0000
  H   H391      1.0  0.66416  0.08141  0.28089  1.0000
  Fe  Fe34      1.0  0.79047  0.20177  0.21806  1.0000
  S   S67       1.0  0.75413  0.16621  0.24890  1.0000
  S   S68       1.0  0.77956  0.24141  0.17963  1.0000
  Fe  Fe35      1.0  0.85587  0.17466  0.24679  1.0000
  S   S69       1.0  0.82426  0.13717  0.27961  1.0000
  S   S70       1.0  0.91478  0.17517  0.23240  1.0000
  Fe  Fe36      1.0  0.79476  0.12465  0.23951  1.0000
  S   S71       1.0  0.78108  0.07075  0.22354  1.0000
  Fe  Fe37      1.0  0.78571  0.18134  0.28754  1.0000
  S   S72       1.0  0.82848  0.15908  0.20598  1.0000
  S   S73       1.0  0.81975  0.21990  0.25739  1.0000
  H   H392      1.0  0.80750  0.18066  0.03629  1.0000
  C   C226      1.0  0.67670  0.45749  0.03180  1.0000
  H   H393      1.0  0.58756  0.42316  0.07882  1.0000
  C   C227      1.0  0.67321  0.46241  0.00026  1.0000
  H   H394      1.0  0.80852  0.05014  0.28165  1.0000
  C   C228      1.0  0.95199  0.17625  0.25337  1.0000
  C   C229      1.0  0.98539  0.17602  0.23666  1.0000
  C   C230      1.0  0.94932  0.17623  0.28576  1.0000
  H   H395      1.0  0.98774  0.17602  0.21161  1.0000
  H   H396      1.0  0.92385  0.17628  0.29892  1.0000
  C   C231      1.0  0.70208  0.24268  0.10553  1.0000
  C   C232      1.0  0.73142  0.26467  0.10253  1.0000
  C   C233      1.0  0.75555  0.26285  0.12480  1.0000
  C   C234      1.0  0.75068  0.23922  0.15037  1.0000
  C   C235      1.0  0.72194  0.21651  0.15282  1.0000
  C   C236      1.0  0.69788  0.21817  0.13044  1.0000
  H   H397      1.0  0.73538  0.28324  0.08323  1.0000
  H   H398      1.0  0.77804  0.28011  0.12251  1.0000
  H   H399      1.0  0.71784  0.19818  0.17232  1.0000
  H   H400      1.0  0.67554  0.20071  0.13277  1.0000
  H   H401      1.0  0.69723  0.14959  0.30014  1.0000
  H   H402      1.0  0.66676  0.14500  0.27257  1.0000
  C   C237      1.0  0.80271  0.02691  0.26971  1.0000
  H   H403      1.0  0.90199  0.03764  0.27620  1.0000
  C   C238      1.0  0.71300  0.03899  0.29813  1.0000
  H   H404      1.0  0.85089  0.08345  0.19088  1.0000
  H   H405      1.0  0.87480  0.05478  0.16364  1.0000
  C   C239      1.0  0.78572  0.19152  0.05175  1.0000
  H   H406      1.0  0.70739  0.24215  0.01229  1.0000
  S   S74       1.0  0.68076  0.41529  0.04868  1.0000
  N   N17       1.0  0.70442  0.36884  0.13931  1.0000
  C   C240      1.0  0.74140  0.36434  0.12448  1.0000
  C   C241      1.0  0.70378  0.35727  0.17292  1.0000
  C   C242      1.0  0.69565  0.40709  0.13673  1.0000
  C   C243      1.0  0.68062  0.34723  0.12191  1.0000
  C   C244      1.0  0.74906  0.37780  0.09051  1.0000
  C   C245      1.0  0.71285  0.31874  0.17900  1.0000
  C   C246      1.0  0.66608  0.42072  0.15995  1.0000
  C   C247      1.0  0.64200  0.34368  0.13533  1.0000
  H   H407      1.0  0.76035  0.37753  0.13811  1.0000
  H   H408      1.0  0.74878  0.33644  0.12441  1.0000
  H   H409      1.0  0.67804  0.36154  0.18617  1.0000
  H   H410      1.0  0.72234  0.37346  0.18459  1.0000
  H   H411      1.0  0.71894  0.42358  0.13975  1.0000
  H   H412      1.0  0.68856  0.41406  0.11315  1.0000
  H   H413      1.0  0.68003  0.35810  0.09793  1.0000
  H   H414      1.0  0.69093  0.32057  0.11808  1.0000
  H   H415      1.0  0.77715  0.37375  0.08274  1.0000
  H   H416      1.0  0.73407  0.36319  0.07459  1.0000
  H   H417      1.0  0.86078  0.06816  0.23793  1.0000
  H   H418      1.0  0.70785  0.31241  0.20423  1.0000
  H   H419      1.0  0.69667  0.30052  0.16711  1.0000
  H   H420      1.0  0.74099  0.31366  0.17255  1.0000
  H   H421      1.0  0.64160  0.40552  0.16044  1.0000
  H   H422      1.0  0.66008  0.44795  0.15301  1.0000
  H   H423      1.0  0.67432  0.42157  0.18368  1.0000
  H   H424      1.0  0.62618  0.36488  0.12600  1.0000
  H   H425      1.0  0.63777  0.34270  0.16087  1.0000
  H   H426      1.0  0.63160  0.31833  0.12838  1.0000
  H   H427      1.0  0.88405  0.10662  0.24319  1.0000
  H   H428      1.0  0.00557  0.08244  0.21351  1.0000
  H   H429      1.0  0.77933  0.17243  0.07133  1.0000
  H   H430      1.0  0.67863  0.48317  0.07512  1.0000
  C   C248      1.0  0.90864  0.08859  0.18780  1.0000
  H   H431      1.0  0.52078  0.41877  0.01878  1.0000
  C   C249      1.0  0.79034  0.02978  0.24061  1.0000
  C   C250      1.0  0.98136  0.07834  0.20215  1.0000
  Fe  Fe38      1.0  0.60249  0.32388  0.01134  1.0000
  S   S75       1.0  0.70366  0.32038  0.01608  1.0000
  H   H432      1.0  0.74418  0.40610  0.08772  1.0000
  C   C251      1.0  0.75272  0.19781  0.03509  1.0000
  Fe  Fe39      1.0  0.66712  0.36537  0.02547  1.0000
  H   H433      1.0  0.70520  0.09693  0.26310  1.0000
  C   C252      1.0  0.67578  0.48668  0.05070  1.0000
  H   H434      1.0  0.65379  0.13212  0.31180  1.0000
  S   S76       1.0  0.54468  0.33843  0.01990  1.0000
  H   H435      1.0  0.95640  0.06566  0.24741  1.0000
  C   C253      1.0  0.68040  0.01577  0.29643  1.0000
  H   H436      1.0  0.93474  0.01678  0.22696  1.0000
  N   N18       1.0  0.91489  0.06851  0.21713  1.0000
  C   C254      1.0  0.57750  0.42014  0.05598  1.0000
  H   H437      1.0  0.79432  0.21571  0.06226  1.0000
  H   H438      1.0  0.74114  0.17158  0.03246  1.0000
  N   N19       1.0  0.56267  0.45726  0.00841  1.0000
  H   H439      1.0  0.73369  0.21132  0.05166  1.0000
  H   H440      1.0  0.55065  0.40923  0.06038  1.0000
  H   H441      1.0  0.59495  0.40125  0.04336  1.0000
  C   C255      1.0  0.89307  0.06502  0.27548  1.0000
  H   H442      1.0  0.80229  0.24672  0.01738  1.0000
  H   H443      1.0  0.94778  0.10834  0.23381  1.0000
  C   C256      1.0  0.88689  0.07782  0.24246  1.0000
  H   H444      1.0  0.92953  0.08362  0.16879  1.0000
  H   H445      1.0  0.86105  0.01974  0.20475  1.0000
  C   C257      1.0  0.74234  0.09179  0.31085  1.0000
  C   C258      1.0  0.67620  0.13248  0.29352  1.0000
  C   C259      1.0  0.57855  0.45589  0.03874  1.0000
  H   H446      1.0  0.86835  0.06677  0.29104  1.0000
  C   C260      1.0  0.91679  0.02979  0.21178  1.0000
  C   C261      1.0  0.94946  0.08077  0.22668  1.0000
  H   H447      1.0  0.87135  0.10008  0.15489  1.0000
  C   C262      1.0  0.87429  0.08081  0.17403  1.0000
  H   H448      1.0  0.98106  0.09940  0.18407  1.0000
  C   C263      1.0  0.88221  0.00873  0.21726  1.0000
  H   H449      1.0  0.72746  0.03989  0.27449  1.0000
  C   C264      1.0  0.77618  0.25154  0.00941  1.0000
  H   H450      1.0  0.60637  0.46428  0.03485  1.0000
  H   H451      1.0  0.76101  0.26602  0.02819  1.0000
  H   H452      1.0  0.56642  0.47467  0.05541  1.0000
  H   H453      1.0  0.72974  0.02396  0.31299  1.0000
  H   H454      1.0  0.98318  0.05254  0.19133  1.0000
  S   S77       1.0  0.63369  0.27500  0.00079  1.0000
  N   N20       1.0  0.70678  0.07548  0.30962  1.0000
  H   H455      1.0  0.91243  0.08202  0.28515  1.0000
  H   H456      1.0  0.68888  0.18142  0.01455  1.0000
  H   H457      1.0  0.66370  0.02537  0.27876  1.0000
  H   H458      1.0  0.74097  0.12024  0.31332  1.0000
  C   C265      1.0  0.52456  0.44697  0.01230  1.0000
  H   H459      1.0  0.50942  0.23007  0.04917  1.0000
  H   H460      1.0  0.51115  0.47531  0.05600  1.0000
  N   N21       1.0  0.75788  0.21768  0.00429  1.0000
  H   H461      1.0  0.74974  0.25757  0.32269  1.0000
  H   H462      1.0  0.57649  0.40417  0.99652  1.0000
  H   H463      1.0  0.66475  0.01198  0.31924  1.0000
  C   C266      1.0  0.50713  0.32491  0.00285  1.0000
  S   S78       1.0  0.61647  0.33908  0.48132  1.0000
  S   S79       1.0  0.68575  0.30649  0.41556  1.0000
  H   H464      1.0  0.80110  0.30258  0.49457  1.0000
  C   C267      1.0  0.70473  0.27150  0.39379  1.0000
  C   C268      1.0  0.70543  0.23749  0.40620  1.0000
  C   C269      1.0  0.72235  0.21090  0.38867  1.0000
  C   C270      1.0  0.73847  0.21784  0.35840  1.0000
  C   C271      1.0  0.73744  0.25176  0.34587  1.0000
  C   C272      1.0  0.72072  0.27840  0.36350  1.0000
  H   H465      1.0  0.69291  0.23176  0.42929  1.0000
  H   H466      1.0  0.72287  0.18475  0.39859  1.0000
  C   C273      1.0  0.80423  0.25424  0.51977  1.0000
  H   H467      1.0  0.72041  0.30461  0.35367  1.0000
  H   H468      1.0  0.80147  0.26791  0.54211  1.0000
  Fe  Fe40      1.0  0.60159  0.29507  0.51536  1.0000
  S   S80       1.0  0.54567  0.27642  0.53001  1.0000
  Fe  Fe41      1.0  0.67659  0.28768  0.53393  1.0000
  S   S81       1.0  0.69632  0.33224  0.50139  1.0000
  S   S82       1.0  0.71667  0.25551  0.55803  1.0000
  Fe  Fe42      1.0  0.64689  0.36035  0.51821  1.0000
  S   S83       1.0  0.63785  0.41471  0.53795  1.0000
  Fe  Fe43      1.0  0.66457  0.30740  0.46690  1.0000
  S   S84       1.0  0.62965  0.31747  0.55328  1.0000
  S   S85       1.0  0.64729  0.26153  0.49832  1.0000
  C   C274      1.0  0.72110  0.24700  0.59810  1.0000
  C   C275      1.0  0.69859  0.26119  0.62184  1.0000
  C   C276      1.0  0.83295  0.25335  0.41475  1.0000
  C   C277      1.0  0.70333  0.25376  0.65320  1.0000
  H   H469      1.0  0.67756  0.27792  0.61604  1.0000
  H   H470      1.0  0.77295  0.21641  0.44051  1.0000
  H   H471      1.0  0.69414  0.05136  0.35508  1.0000
  C   C278      1.0  0.64325  0.45614  0.51879  1.0000
  C   C279      1.0  0.78759  0.27684  0.49534  1.0000
  C   C280      1.0  0.66298  0.46082  0.49001  1.0000
  H   H472      1.0  0.69260  0.09928  0.38399  1.0000
  H   H473      1.0  0.67470  0.43855  0.47838  1.0000
  C   C281      1.0  0.50776  0.46911  0.52963  1.0000
  H   H474      1.0  0.82236  0.27350  0.39952  1.0000
  H   H475      1.0  0.57429  0.45304  0.48874  1.0000
  H   H476      1.0  0.53636  0.30615  0.46876  1.0000
  H   H477      1.0  0.57699  0.43043  0.45335  1.0000
  H   H478      1.0  0.77408  0.20112  0.64342  1.0000
  C   C282      1.0  0.73897  0.21916  0.48304  1.0000
  H   H479      1.0  0.84209  0.24316  0.46195  1.0000
  H   H480      1.0  0.79073  0.22880  0.52444  1.0000
  N   N22       1.0  0.78911  0.26227  0.46334  1.0000
  H   H481      1.0  0.77521  0.33721  0.46095  1.0000
  H   H482      1.0  0.65719  0.11612  0.36498  1.0000
  C   C283      1.0  0.75305  0.21784  0.63761  1.0000
  C   C284      1.0  0.54599  0.37638  0.53234  1.0000
  C   C285      1.0  0.77839  0.32302  0.43897  1.0000
  H   H483      1.0  0.78824  0.09297  0.33591  1.0000
  H   H484      1.0  0.76592  0.21413  0.58815  1.0000
  H   H485      1.0  0.59227  0.40975  0.48632  1.0000
  C   C286      1.0  0.74834  0.22531  0.60623  1.0000
  H   H486      1.0  0.72259  0.20258  0.46972  1.0000
  H   H487      1.0  0.80546  0.32611  0.42770  1.0000
  H   H488      1.0  0.57349  0.38533  0.53107  1.0000
  H   H489      1.0  0.74165  0.20428  0.50499  1.0000
  H   H490      1.0  0.83251  0.25022  0.51332  1.0000
  C   C287      1.0  0.68428  0.10617  0.36085  1.0000
  C   C288      1.0  0.77517  0.22540  0.46438  1.0000
  H   H491      1.0  0.54105  0.38310  0.58304  1.0000
  C   C289      1.0  0.52689  0.43627  0.53963  1.0000
  C   C290      1.0  0.82671  0.26230  0.44936  1.0000
  H   H492      1.0  0.69154  0.48522  0.57103  1.0000
  H   H493      1.0  0.83951  0.28794  0.45206  1.0000
  H   H494      1.0  0.76602  0.27337  0.42074  1.0000
  H   H495      1.0  0.55508  0.44319  0.53959  1.0000
  H   H496      1.0  0.61280  0.48203  0.55580  1.0000
  H   H497      1.0  0.76025  0.28233  0.50475  1.0000
  H   H498      1.0  0.73949  0.28472  0.45440  1.0000
  H   H499      1.0  0.72397  0.24304  0.48849  1.0000
  H   H500      1.0  0.79386  0.20725  0.47429  1.0000
  C   C291      1.0  0.76369  0.07748  0.33659  1.0000
  C   C292      1.0  0.71963  0.49121  0.56424  1.0000
  C   C293      1.0  0.76710  0.28449  0.44396  1.0000
  C   C294      1.0  0.53651  0.36294  0.56613  1.0000
  H   H501      1.0  0.86154  0.25239  0.40773  1.0000
  H   H502      1.0  0.82207  0.22749  0.41009  1.0000
  H   H503      1.0  0.76098  0.33592  0.42329  1.0000
  C   C295      1.0  0.62821  0.48541  0.53356  1.0000
  C   C296      1.0  0.57160  0.42696  0.47892  1.0000
  H   H504      1.0  0.51624  0.47756  0.50535  1.0000
  H   H505      1.0  0.50942  0.35265  0.57049  1.0000
  H   H506      1.0  0.72947  0.47000  0.54883  1.0000
  H   H507      1.0  0.70104  0.12814  0.35120  1.0000
  H   H508      1.0  0.51407  0.49088  0.54446  1.0000
  S   S86       1.0  0.75983  0.18327  0.33767  1.0000
  H   H509      1.0  0.55396  0.34088  0.57084  1.0000
  H   H510      1.0  0.73424  0.49013  0.58492  1.0000
  N   N23       1.0  0.52281  0.40445  0.52080  1.0000
  C   C297      1.0  0.66864  0.49461  0.47673  1.0000
  H   H511      1.0  0.74988  0.08014  0.36008  1.0000
  H   H512      1.0  0.54631  0.35340  0.51732  1.0000
  C   C298      1.0  0.68513  0.07341  0.34069  1.0000
  C   C299      1.0  0.53454  0.41134  0.48682  1.0000
  H   H513      1.0  0.68486  0.49810  0.45490  1.0000
  H   H514      1.0  0.77151  0.05003  0.33325  1.0000
  H   H515      1.0  0.53321  0.38677  0.47388  1.0000
  H   H516      1.0  0.51722  0.43100  0.56440  1.0000
  H   H517      1.0  0.95162  0.03640  0.65129  1.0000
  H   H518      1.0  0.51699  0.42981  0.47607  1.0000
  C   C300      1.0  0.73055  0.23205  0.66135  1.0000
  C   C301      1.0  0.50846  0.29086  0.51272  1.0000
  C   C302      1.0  0.51103  0.30405  0.48217  1.0000
  H   H519      1.0  0.92121  0.15441  0.65393  1.0000
  H   H520      1.0  0.91192  0.10883  0.65279  1.0000
  H   H521      1.0  0.50943  0.21030  0.46697  1.0000
  H   H522      1.0  0.65750  0.06691  0.33759  1.0000
  H   H523      1.0  0.97376  0.07532  0.65701  1.0000
  S   S87       1.0  0.64079  0.35920  0.98230  1.0000
  S   S88       1.0  0.70655  0.30349  0.92811  1.0000
  Fe  Fe44      1.0  0.77319  0.19071  0.72711  1.0000
  S   S89       1.0  0.75064  0.14585  0.75762  1.0000
  H   H524      1.0  0.80291  0.20095  0.93319  1.0000
  Fe  Fe45      1.0  0.84538  0.18204  0.75213  1.0000
  S   S90       1.0  0.82685  0.13775  0.78494  1.0000
  S   S91       1.0  0.90153  0.20177  0.74078  1.0000
  Fe  Fe46      1.0  0.80094  0.11750  0.74476  1.0000
  S   S92       1.0  0.81059  0.06398  0.72352  1.0000
  Fe  Fe47      1.0  0.77797  0.16998  0.79549  1.0000
  S   S93       1.0  0.74558  0.17306  0.84302  1.0000
  S   S94       1.0  0.82144  0.16082  0.71137  1.0000
  S   S95       1.0  0.79860  0.21583  0.76558  1.0000
  C   C303      1.0  0.66002  0.21912  0.81588  1.0000
  H   H525      1.0  0.62252  0.22636  0.75279  1.0000
  H   H526      1.0  0.53383  0.29100  0.96978  1.0000
  H   H527      1.0  0.96801  0.14086  0.81744  1.0000
  C   C304      1.0  0.91343  0.13082  0.66856  1.0000
  C   C305      1.0  0.93976  0.18829  0.75738  1.0000
  C   C306      1.0  0.97267  0.19808  0.74223  1.0000
  C   C307      1.0  0.93827  0.16748  0.78451  1.0000
  H   H528      1.0  0.97412  0.21430  0.72131  1.0000
  H   H529      1.0  0.91317  0.15992  0.79652  1.0000
  C   C308      1.0  0.71772  0.26640  0.90558  1.0000
  C   C309      1.0  0.69981  0.23461  0.91063  1.0000
  C   C310      1.0  0.70911  0.20624  0.89159  1.0000
  C   C311      1.0  0.73606  0.20936  0.86699  1.0000
  C   C312      1.0  0.75411  0.24109  0.86207  1.0000
  C   C313      1.0  0.74501  0.26936  0.88130  1.0000
  H   H530      1.0  0.67847  0.23204  0.92888  1.0000
  H   H531      1.0  0.69499  0.18180  0.89562  1.0000
  H   H532      1.0  0.77505  0.24388  0.84343  1.0000
  H   H533      1.0  0.75909  0.29381  0.87716  1.0000
  H   H534      1.0  0.62084  0.26752  0.79067  1.0000
  H   H535      1.0  0.91188  0.06690  0.77534  1.0000
  C   C314      1.0  0.94065  0.12465  0.69173  1.0000
  H   H536      1.0  0.69497  0.17858  0.79635  1.0000
  C   C315      1.0  0.96941  0.15671  0.79630  1.0000
  C   C316      1.0  0.66688  0.18524  0.79815  1.0000
  H   H537      1.0  0.65332  0.29421  0.77102  1.0000
  H   H538      1.0  0.75980  0.18425  0.93684  1.0000
  H   H539      1.0  0.92990  0.03650  0.71052  1.0000
  H   H540      1.0  0.90684  0.05905  0.68390  1.0000
  C   C317      1.0  0.00233  0.16612  0.78091  1.0000
  C   C318      1.0  0.00155  0.09875  0.71946  1.0000
  H   H541      1.0  0.68209  0.30589  0.81365  1.0000
  C   C319      1.0  0.64385  0.24608  0.74868  1.0000
  H   H542      1.0  0.68576  0.26495  0.67129  1.0000
  N   N24       1.0  0.67307  0.25286  0.79974  1.0000
  C   C320      1.0  0.93192  0.05983  0.69460  1.0000
  Fe  Fe48      1.0  0.67401  0.31096  0.97477  1.0000
  H   H543      1.0  0.62007  0.29146  0.83683  1.0000
  H   H544      1.0  0.63752  0.26447  0.72985  1.0000
  H   H545      1.0  0.75956  0.28423  0.97055  1.0000
  H   H546      1.0  0.69808  0.27319  0.83796  1.0000
  H   H547      1.0  0.63799  0.25999  0.86289  1.0000
  H   H548      1.0  0.73053  0.30208  0.78109  1.0000
  C   C321      1.0  0.96406  0.08920  0.73351  1.0000
  C   C322      1.0  0.64356  0.28381  0.84802  1.0000
  H   H549      1.0  0.88811  0.04261  0.74874  1.0000
  H   H550      1.0  0.80332  0.26632  0.96360  1.0000
  H   H551      1.0  0.76781  0.23020  0.94054  1.0000
  C   C323      1.0  0.80355  0.02169  0.74085  1.0000
  C   C324      1.0  0.64759  0.26650  0.77825  1.0000
  H   H552      1.0  0.54968  0.49734  0.97518  1.0000
  H   H553      1.0  0.88724  0.13626  0.68042  1.0000
  C   C325      1.0  0.70928  0.24823  0.78341  1.0000
  C   C326      1.0  0.78705  0.01634  0.77091  1.0000
  H   H554      1.0  0.96492  0.06228  0.74366  1.0000
  H   H555      1.0  0.77845  0.03849  0.78447  1.0000
  H   H556      1.0  0.98277  0.03665  0.67954  1.0000
  H   H557      1.0  0.75121  0.27374  0.75328  1.0000
  N   N25       1.0  0.93515  0.09247  0.71257  1.0000
  H   H558      1.0  0.54583  0.42402  0.95169  1.0000
  H   H559      1.0  0.87861  0.09779  0.71896  1.0000
  S   S96       1.0  0.73503  0.22379  0.70143  1.0000
  H   H560      1.0  0.71035  0.22707  0.76659  1.0000
  H   H561      1.0  0.90097  0.12248  0.74461  1.0000
  H   H562      1.0  0.79457  0.30141  0.98897  1.0000
  H   H563      1.0  0.61061  0.43514  0.98689  1.0000
  H   H564      1.0  0.57941  0.45712  0.94135  1.0000
  H   H565      1.0  0.64897  0.30491  0.86390  1.0000
  H   H566      1.0  0.65785  0.18601  0.77486  1.0000
  H   H567      1.0  0.00441  0.12722  0.71448  1.0000
  H   H568      1.0  0.63137  0.22021  0.82284  1.0000
  H   H569      1.0  0.95891  0.10636  0.75367  1.0000
  C   C327      1.0  0.67600  0.27953  0.82428  1.0000
  C   C328      1.0  0.78343  0.27682  0.98121  1.0000
  C   C329      1.0  0.72548  0.28074  0.76549  1.0000
  C   C330      1.0  0.57332  0.43167  0.95354  1.0000
  H   H570      1.0  0.67235  0.21492  0.83777  1.0000
  H   H571      1.0  0.72756  0.23955  0.80034  1.0000
  H   H572      1.0  0.86699  0.07494  0.77185  1.0000
  C   C331      1.0  0.90119  0.09702  0.73292  1.0000
  H   H573      1.0  0.66800  0.23323  0.73904  1.0000
  H   H574      1.0  0.65287  0.16336  0.81155  1.0000
  C   C332      1.0  0.89220  0.06848  0.75849  1.0000
  C   C333      1.0  0.66804  0.49609  0.98789  1.0000
  H   H575      1.0  0.70936  0.29007  0.74725  1.0000
  C   C334      1.0  0.77677  0.20382  0.94639  1.0000
  C   C335      1.0  0.56808  0.49307  0.99305  1.0000
  H   H576      1.0  0.67459  0.44028  0.98535  1.0000
  H   H577      1.0  0.72291  0.24073  0.97291  1.0000
  C   C336      1.0  0.50886  0.30149  0.97870  1.0000
  H   H578      1.0  0.58988  0.41200  0.94084  1.0000
  H   H579      1.0  0.94110  0.14823  0.70588  1.0000
  H   H580      1.0  0.67514  0.20157  0.98052  1.0000
  C   C337      1.0  0.58187  0.43129  0.98752  1.0000
  H   H581      1.0  0.96643  0.12499  0.67774  1.0000
  C   C338      1.0  0.69861  0.19323  0.99156  1.0000
  H   H582      1.0  0.51352  0.44927  0.98969  1.0000
  C   C339      1.0  0.00379  0.18689  0.75377  1.0000
  H   H583      1.0  0.66528  0.49962  0.96345  1.0000
  H   H584      1.0  0.59481  0.49550  0.98037  1.0000
  C   C340      1.0  0.77964  0.19585  0.98125  1.0000
  C   C341      1.0  0.96204  0.05193  0.66950  1.0000
  H   H585      1.0  0.77240  0.16780  0.98518  1.0000
  C   C342      1.0  0.72197  0.22536  0.99494  1.0000
  H   H586      1.0  0.80779  0.19769  0.98494  1.0000
  H   H587      1.0  0.71208  0.17330  0.97682  1.0000
  H   H588      1.0  0.64949  0.71009  0.17181  1.0000
  S   S97       1.0  0.63057  0.63676  0.05590  1.0000
  C   C343      1.0  0.98557  0.90229  0.28717  1.0000
  S   S98       1.0  0.65124  0.71702  0.03381  1.0000
  Fe  Fe49      1.0  0.67628  0.67368  0.05892  1.0000
  S   S99       1.0  0.69793  0.67844  0.10620  1.0000
  Fe  Fe50      1.0  0.60787  0.67909  0.02742  1.0000
  S   S100      1.0  0.55197  0.69921  0.03545  1.0000
  H   H589      1.0  0.54153  0.77140  0.18787  1.0000
  Fe  Fe51      1.0  0.78695  0.81181  0.22204  1.0000
  S   S101      1.0  0.76093  0.82820  0.26871  1.0000
  S   S102      1.0  0.76167  0.80497  0.17667  1.0000
  Fe  Fe52      1.0  0.86097  0.81650  0.24332  1.0000
  S   S103      1.0  0.84056  0.83188  0.29119  1.0000
  S   S104      1.0  0.91749  0.81372  0.22116  1.0000
  Fe  Fe53      1.0  0.79847  0.79124  0.28904  1.0000
  H   H590      1.0  0.98337  0.80193  0.31262  1.0000
  Fe  Fe54      1.0  0.80467  0.86807  0.26788  1.0000
  S   S105      1.0  0.80259  0.92246  0.28819  1.0000
  S   S106      1.0  0.82196  0.77265  0.24237  1.0000
  S   S107      1.0  0.82754  0.85495  0.22005  1.0000
  C   C344      1.0  0.95566  0.81175  0.24085  1.0000
  C   C345      1.0  0.95401  0.80787  0.27312  1.0000
  C   C346      1.0  0.98866  0.81358  0.22342  1.0000
  H   H591      1.0  0.92882  0.80638  0.28682  1.0000
  H   H592      1.0  0.88415  0.70937  0.08598  1.0000
  C   C347      1.0  0.78799  0.96610  0.23899  1.0000
  C   C348      1.0  0.79925  0.96324  0.26853  1.0000
  H   H593      1.0  0.86335  0.82363  0.10891  1.0000
  H   H594      1.0  0.78200  0.94278  0.22711  1.0000
  H   H595      1.0  0.88819  0.71451  0.17278  1.0000
  C   C349      1.0  0.71665  0.71382  0.12488  1.0000
  C   C350      1.0  0.72054  0.74734  0.11129  1.0000
  C   C351      1.0  0.73409  0.77477  0.12760  1.0000
  C   C352      1.0  0.74407  0.76924  0.15767  1.0000
  C   C353      1.0  0.74035  0.73569  0.17121  1.0000
  C   C354      1.0  0.72676  0.70825  0.15491  1.0000
  H   H596      1.0  0.71298  0.75218  0.08825  1.0000
  H   H597      1.0  0.73692  0.80053  0.11677  1.0000
  H   H598      1.0  0.74781  0.73088  0.19430  1.0000
  H   H599      1.0  0.72380  0.68253  0.16580  1.0000
  C   C355      1.0  0.89888  0.72008  0.10429  1.0000
  H   H600      1.0  0.56342  0.66395  0.10365  1.0000
  H   H601      1.0  0.82045  0.74460  0.17660  1.0000
  C   C356      1.0  0.51426  0.68000  0.02237  1.0000
  H   H602      1.0  0.54065  0.63617  0.00109  1.0000
  H   H603      1.0  0.66272  0.75459  0.16954  1.0000
  C   C357      1.0  0.80671  0.99383  0.28374  1.0000
  H   H604      1.0  0.88083  0.75182  0.19442  1.0000
  H   H605      1.0  0.90555  0.77539  0.10927  1.0000
  C   C358      1.0  0.86308  0.79667  0.15465  1.0000
  H   H606      1.0  0.98360  0.88659  0.26633  1.0000
  Fe  Fe55      1.0  0.65920  0.62067  0.01067  1.0000
  H   H607      1.0  0.84627  0.68590  0.15641  1.0000
  H   H608      1.0  0.89856  0.70024  0.12329  1.0000
  H   H609      1.0  0.68931  0.98948  0.28909  1.0000
  N   N26       1.0  0.59196  0.72314  0.13327  1.0000
  C   C359      1.0  0.60019  0.68471  0.13489  1.0000
  C   C360      1.0  0.62521  0.74271  0.13725  1.0000
  C   C361      1.0  0.58040  0.73136  0.10166  1.0000
  C   C362      1.0  0.56306  0.73019  0.15849  1.0000
  C   C363      1.0  0.57089  0.65958  0.12747  1.0000
  C   C364      1.0  0.88394  0.75590  0.11424  1.0000
  C   C365      1.0  0.58501  0.76920  0.08883  1.0000
  C   C366      1.0  0.55288  0.76856  0.16345  1.0000
  H   H610      1.0  0.62360  0.67887  0.11855  1.0000
  H   H611      1.0  0.60698  0.67653  0.15830  1.0000
  H   H612      1.0  0.62242  0.77124  0.13410  1.0000
  H   H613      1.0  0.64605  0.73573  0.11871  1.0000
  H   H614      1.0  0.59518  0.71532  0.08386  1.0000
  H   H615      1.0  0.55241  0.72412  0.10101  1.0000
  H   H616      1.0  0.53853  0.71687  0.15377  1.0000
  H   H617      1.0  0.56848  0.71827  0.18118  1.0000
  H   H618      1.0  0.58070  0.63245  0.12865  1.0000
  H   H619      1.0  0.86442  0.76320  0.09798  1.0000
  H   H620      1.0  0.54014  0.52525  0.02946  1.0000
  H   H621      1.0  0.66963  0.54267  0.05309  1.0000
  H   H622      1.0  0.57201  0.77174  0.06720  1.0000
  S   S108      1.0  0.70671  0.65436  0.01531  1.0000
  H   H623      1.0  0.57315  0.78855  0.10498  1.0000
  H   H624      1.0  0.82018  0.80992  0.12570  1.0000
  H   H625      1.0  0.61306  0.77566  0.08232  1.0000
  H   H626      1.0  0.53310  0.77684  0.14791  1.0000
  H   H627      1.0  0.57527  0.78689  0.16052  1.0000
  H   H628      1.0  0.81548  0.99182  0.30660  1.0000
  C   C367      1.0  0.63982  0.73700  0.16875  1.0000
  H   H629      1.0  0.54744  0.66085  0.14455  1.0000
  H   H630      1.0  0.93529  0.78007  0.16004  1.0000
  C   C368      1.0  0.66658  0.52526  0.00681  1.0000
  H   H631      1.0  0.84126  0.84601  0.14060  1.0000
  H   H632      1.0  0.84724  0.79930  0.17745  1.0000
  C   C369      1.0  0.82884  0.70319  0.14438  1.0000
  C   C370      1.0  0.89028  0.74323  0.17068  1.0000
  N   N27       1.0  0.86782  0.75858  0.14726  1.0000
  H   H633      1.0  0.97840  0.92970  0.28246  1.0000
  H   H634      1.0  0.94303  0.73688  0.14596  1.0000
  C   C371      1.0  0.98502  0.80529  0.28767  1.0000
  H   H635      1.0  0.83244  0.69952  0.11904  1.0000
  H   H636      1.0  0.88833  0.80964  0.15751  1.0000
  H   H637      1.0  0.99024  0.81656  0.19844  1.0000
  C   C372      1.0  0.83194  0.74194  0.15209  1.0000
  H   H638      1.0  0.80180  0.69410  0.15219  1.0000
  C   C373      1.0  0.92975  0.75204  0.16500  1.0000
  H   H639      1.0  0.81371  0.75553  0.13776  1.0000
  H   H640      1.0  0.94216  0.74487  0.18627  1.0000
  H   H641      1.0  0.62064  0.74355  0.18855  1.0000
  H   H642      1.0  0.92646  0.72322  0.09402  1.0000
  C   C374      1.0  0.51589  0.64919  0.00590  1.0000
  C   C375      1.0  0.84594  0.81982  0.13082  1.0000
  H   H643      1.0  0.88677  0.98184  0.20903  1.0000
  C   C376      1.0  0.56501  0.52473  0.01425  1.0000
  C   C377      1.0  0.67065  0.52044  0.03830  1.0000
  H   H644      1.0  0.58734  0.52599  0.02846  1.0000
  H   H645      1.0  0.56652  0.54904  0.99956  1.0000
  H   H646      1.0  0.77354  0.00118  0.20276  1.0000
  H   H647      1.0  0.96568  0.89126  0.30534  1.0000
  C   C378      1.0  0.78324  0.99924  0.22525  1.0000
  H   H648      1.0  0.59499  0.75164  0.99766  1.0000
  H   H649      1.0  0.60543  0.79676  0.00051  1.0000
  H   H650      1.0  0.87277  0.00605  0.24224  1.0000
  S   S109      1.0  0.78775  0.75030  0.32846  1.0000
  Fe  Fe56      1.0  0.65067  0.69646  0.47512  1.0000
  S   S110      1.0  0.66312  0.73995  0.43843  1.0000
  S   S111      1.0  0.61096  0.65334  0.47289  1.0000
  C   C379      1.0  0.69746  0.74169  0.40755  1.0000
  C   C380      1.0  0.72347  0.71635  0.40441  1.0000
  C   C381      1.0  0.75085  0.71946  0.38009  1.0000
  C   C382      1.0  0.75257  0.74781  0.35860  1.0000
  C   C383      1.0  0.72664  0.77325  0.36187  1.0000
  C   C384      1.0  0.69932  0.77019  0.38623  1.0000
  H   H651      1.0  0.72244  0.69430  0.42059  1.0000
  H   H652      1.0  0.77072  0.69961  0.37774  1.0000
  H   H653      1.0  0.77710  0.58590  0.52799  1.0000
  H   H654      1.0  0.67944  0.79003  0.38852  1.0000
  H   H655      1.0  0.72763  0.79522  0.34560  1.0000
  H   H656      1.0  0.52485  0.67546  0.47685  1.0000
  Fe  Fe57      1.0  0.64927  0.61897  0.49508  1.0000
  S   S112      1.0  0.62837  0.63018  0.54396  1.0000
  S   S113      1.0  0.66584  0.56610  0.47597  1.0000
  S   S114      1.0  0.62853  0.71293  0.52280  1.0000
  Fe  Fe58      1.0  0.66662  0.67542  0.54104  1.0000
  S   S115      1.0  0.70557  0.68322  0.57729  1.0000
  Fe  Fe59      1.0  0.59184  0.66692  0.52177  1.0000
  S   S116      1.0  0.53476  0.66636  0.54275  1.0000
  S   S117      1.0  0.69037  0.66120  0.49332  1.0000
  C   C385      1.0  0.71412  0.71705  0.60307  1.0000
  C   C386      1.0  0.69668  0.74898  0.60349  1.0000
  C   C387      1.0  0.70561  0.77538  0.62338  1.0000
  H   H657      1.0  0.77267  0.54810  0.57586  1.0000
  H   H658      1.0  0.69210  0.79999  0.62323  1.0000
  C   C388      1.0  0.74016  0.71186  0.62323  1.0000
  H   H659      1.0  0.67631  0.75340  0.58850  1.0000
  C   C389      1.0  0.72029  0.58961  0.54267  1.0000
  H   H660      1.0  0.75114  0.52584  0.53339  1.0000
  H   H661      1.0  0.75388  0.68736  0.62325  1.0000
  C   C390      1.0  0.68411  0.55640  0.58342  1.0000
  H   H662      1.0  0.72127  0.80483  0.55905  1.0000
  H   H663      1.0  0.74910  0.57449  0.49880  1.0000
  H   H664      1.0  0.62166  0.54143  0.53158  1.0000
  H   H665      1.0  0.69487  0.81306  0.49084  1.0000
  N   N28       1.0  0.71970  0.55880  0.56512  1.0000
  H   H666      1.0  0.75632  0.82297  0.45325  1.0000
  H   H667      1.0  0.76244  0.79038  0.42498  1.0000
  H   H668      1.0  0.71854  0.61462  0.55474  1.0000
  H   H669      1.0  0.75470  0.61905  0.50796  1.0000
  C   C391      1.0  0.63330  0.51912  0.51998  1.0000
  H   H670      1.0  0.67638  0.61256  0.59276  1.0000
  C   C392      1.0  0.74828  0.56043  0.58641  1.0000
  H   H671      1.0  0.67378  0.80008  0.52880  1.0000
  H   H672      1.0  0.72163  0.79188  0.44786  1.0000
  H   H673      1.0  0.66350  0.55375  0.56745  1.0000
  H   H674      1.0  0.66332  0.77932  0.49530  1.0000
  H   H675      1.0  0.76672  0.80092  0.56550  1.0000
  N   N29       1.0  0.75081  0.77211  0.50546  1.0000
  C   C393      1.0  0.77149  0.74714  0.52388  1.0000
  C   C394      1.0  0.75802  0.80821  0.51620  1.0000
  C   C395      1.0  0.76443  0.76942  0.47168  1.0000
  C   C396      1.0  0.71261  0.76182  0.51070  1.0000
  C   C397      1.0  0.77208  0.70895  0.51397  1.0000
  C   C398      1.0  0.74814  0.81396  0.55108  1.0000
  C   C399      1.0  0.75004  0.79555  0.44872  1.0000
  C   C400      1.0  0.68549  0.79072  0.50609  1.0000
  H   H676      1.0  0.79924  0.75593  0.52310  1.0000
  H   H677      1.0  0.76105  0.74629  0.54884  1.0000
  H   H678      1.0  0.74460  0.82863  0.50353  1.0000
  H   H679      1.0  0.78632  0.81481  0.51092  1.0000
  H   H680      1.0  0.79345  0.77219  0.46858  1.0000
  H   H681      1.0  0.75843  0.74327  0.46301  1.0000
  H   H682      1.0  0.70702  0.74000  0.49556  1.0000
  H   H683      1.0  0.70605  0.75134  0.53483  1.0000
  H   H684      1.0  0.78793  0.70565  0.49137  1.0000
  H   H685      1.0  0.78419  0.69267  0.53147  1.0000
  H   H686      1.0  0.74540  0.69869  0.51311  1.0000
  H   H687      1.0  0.74945  0.84223  0.55557  1.0000
  H   H688      1.0  0.68175  0.53280  0.59898  1.0000
  H   H689      1.0  0.77776  0.59405  0.61396  1.0000
  H   H690      1.0  0.70630  0.52645  0.52794  1.0000
  H   H691      1.0  0.69678  0.58917  0.52978  1.0000
  C   C401      1.0  0.74868  0.73805  0.64349  1.0000
  H   H692      1.0  0.68829  0.58606  0.62541  1.0000
  C   C402      1.0  0.67360  0.58673  0.60476  1.0000
  C   C403      1.0  0.65424  0.52397  0.49180  1.0000
  H   H693      1.0  0.77377  0.61189  0.57616  1.0000
  C   C404      1.0  0.75950  0.59701  0.59590  1.0000
  H   H694      1.0  0.64553  0.58373  0.61357  1.0000
  C   C405      1.0  0.75240  0.59214  0.51814  1.0000
  C   C406      1.0  0.72450  0.52644  0.54616  1.0000
  H   H695      1.0  0.74074  0.54482  0.60818  1.0000
  H   H696      1.0  0.73750  0.61301  0.60575  1.0000
  C   C407      1.0  0.73160  0.77016  0.64362  1.0000
  H   H697      1.0  0.70386  0.87815  0.64454  1.0000
  H   H698      1.0  0.78619  0.91748  0.64753  1.0000
  H   H699      1.0  0.76878  0.73352  0.65875  1.0000
  H   H700      1.0  0.72529  0.93413  0.64891  1.0000
  H   H701      1.0  0.76068  0.88072  0.66237  1.0000
  H   H702      1.0  0.66020  0.89208  0.65883  1.0000
  C   C408      1.0  0.72315  0.92551  0.72790  1.0000
  S   S118      1.0  0.70275  0.73900  0.95640  1.0000
  H   H703      1.0  0.51972  0.68746  0.94939  1.0000
  Fe  Fe60      1.0  0.77387  0.80652  0.70995  1.0000
  S   S119      1.0  0.74502  0.82262  0.75531  1.0000
  C   C409      1.0  0.57006  0.76919  0.90588  1.0000
  Fe  Fe61      1.0  0.84370  0.80212  0.73925  1.0000
  S   S120      1.0  0.81951  0.81693  0.78631  1.0000
  S   S121      1.0  0.90024  0.78463  0.72888  1.0000
  Fe  Fe62      1.0  0.77524  0.78106  0.77821  1.0000
  S   S122      1.0  0.75159  0.73747  0.81105  1.0000
  Fe  Fe63      1.0  0.79128  0.85773  0.76007  1.0000
  S   S123      1.0  0.78239  0.91063  0.78227  1.0000
  S   S124      1.0  0.80143  0.76289  0.73258  1.0000
  S   S125      1.0  0.81817  0.84505  0.71316  1.0000
  C   C410      1.0  0.93748  0.80053  0.74515  1.0000
  C   C411      1.0  0.93476  0.82439  0.76901  1.0000
  C   C412      1.0  0.97064  0.78750  0.73474  1.0000
  H   H704      1.0  0.90943  0.83448  0.77740  1.0000
  H   H705      1.0  0.97301  0.76890  0.71641  1.0000
  C   C413      1.0  0.80911  0.95841  0.73613  1.0000
  C   C414      1.0  0.79215  0.95304  0.76605  1.0000
  C   C415      1.0  0.76799  0.90770  0.66753  1.0000
  H   H706      1.0  0.81801  0.93629  0.72273  1.0000
  H   H707      1.0  0.60490  0.68271  0.91647  1.0000
  C   C416      1.0  0.71691  0.73773  0.91612  1.0000
  C   C417      1.0  0.71680  0.70693  0.89975  1.0000
  C   C418      1.0  0.72744  0.70741  0.86762  1.0000
  C   C419      1.0  0.73854  0.73855  0.85152  1.0000
  C   C420      1.0  0.73909  0.76928  0.86796  1.0000
  C   C421      1.0  0.72826  0.76883  0.90007  1.0000
  H   H708      1.0  0.70840  0.68277  0.91181  1.0000
  H   H709      1.0  0.72704  0.68347  0.85514  1.0000
  H   H710      1.0  0.74764  0.79341  0.85593  1.0000
  H   H711      1.0  0.72861  0.79278  0.91254  1.0000
  H   H712      1.0  0.60627  0.71205  0.88239  1.0000
  N   N30       1.0  0.70821  0.92229  0.69746  1.0000
  N   N31       1.0  0.86801  0.71969  0.82085  1.0000
  C   C422      1.0  0.89451  0.74841  0.82342  1.0000
  C   C423      1.0  0.83385  0.73108  0.83774  1.0000
  C   C424      1.0  0.86371  0.71678  0.78686  1.0000
  C   C425      1.0  0.88134  0.68615  0.83416  1.0000
  C   C426      1.0  0.93215  0.74153  0.80873  1.0000
  C   C427      1.0  0.83435  0.73845  0.87245  1.0000
  C   C428      1.0  0.83783  0.68901  0.77813  1.0000
  C   C429      1.0  0.85383  0.65768  0.84549  1.0000
  H   H713      1.0  0.88576  0.77337  0.81297  1.0000
  H   H714      1.0  0.89726  0.75373  0.84807  1.0000
  H   H715      1.0  0.81270  0.71182  0.83631  1.0000
  H   H716      1.0  0.82438  0.75514  0.82648  1.0000
  H   H717      1.0  0.85547  0.74227  0.77715  1.0000
  H   H718      1.0  0.88886  0.71061  0.77323  1.0000
  H   H719      1.0  0.90103  0.67424  0.81699  1.0000
  H   H720      1.0  0.89534  0.69181  0.85468  1.0000
  H   H721      1.0  0.93397  0.73984  0.78321  1.0000
  H   H722      1.0  0.63597  0.76961  0.97926  1.0000
  H   H723      1.0  0.94356  0.71791  0.81883  1.0000
  H   H724      1.0  0.84570  0.76458  0.87560  1.0000
  H   H725      1.0  0.80704  0.73882  0.88376  1.0000
  H   H726      1.0  0.84858  0.71840  0.88487  1.0000
  H   H727      1.0  0.83594  0.69147  0.75278  1.0000
  H   H728      1.0  0.81101  0.69251  0.78954  1.0000
  H   H729      1.0  0.84730  0.66231  0.78259  1.0000
  H   H730      1.0  0.86540  0.63166  0.84083  1.0000
  H   H731      1.0  0.82936  0.65846  0.83433  1.0000
  H   H732      1.0  0.84753  0.65815  0.87105  1.0000
  N   N32       1.0  0.58356  0.75398  0.93473  1.0000
  H   H733      1.0  0.74705  0.95850  0.67512  1.0000
  C   C430      1.0  0.68319  0.98416  0.70517  1.0000
  C   C431      1.0  0.61821  0.73686  0.92571  1.0000
  H   H734      1.0  0.56296  0.74859  0.89026  1.0000
  H   H735      1.0  0.73566  0.95145  0.72984  1.0000
  S   S126      1.0  0.74261  0.80511  0.66735  1.0000
  H   H736      1.0  0.54015  0.74220  0.97016  1.0000
  H   H737      1.0  0.74499  0.90693  0.72940  1.0000
  H   H738      1.0  0.94912  0.76384  0.81343  1.0000
  H   H739      1.0  0.63759  0.75630  0.91448  1.0000
  H   H740      1.0  0.62973  0.72656  0.94647  1.0000
  C   C432      1.0  0.69596  0.88524  0.69517  1.0000
  H   H741      1.0  0.78292  0.90741  0.68794  1.0000
  C   C433      1.0  0.81457  0.99255  0.72357  1.0000
  H   H742      1.0  0.66035  0.00009  0.70008  1.0000
  H   H743      1.0  0.51406  0.72365  0.92415  1.0000
  C   C434      1.0  0.61783  0.70579  0.90415  1.0000
  C   C435      1.0  0.60763  0.77444  0.98474  1.0000
  H   H744      1.0  0.64520  0.69797  0.89722  1.0000
  H   H745      1.0  0.96324  0.93613  0.78524  1.0000
  C   C436      1.0  0.55811  0.72864  0.95264  1.0000
  C   C437      1.0  0.96489  0.83484  0.78235  1.0000
  H   H746      1.0  0.57228  0.70964  0.96655  1.0000
  H   H747      1.0  0.98645  0.91915  0.81582  1.0000
  H   H748      1.0  0.96238  0.85291  0.80106  1.0000
  C   C438      1.0  0.53807  0.79319  0.91148  1.0000
  C   C439      1.0  0.73624  0.93214  0.67162  1.0000
  H   H749      1.0  0.71688  0.86652  0.69992  1.0000
  C   C440      1.0  0.99806  0.82181  0.77188  1.0000
  C   C441      1.0  0.00077  0.79810  0.74794  1.0000
  S   S127      1.0  0.63353  0.66130  0.98198  1.0000
  H   H750      1.0  0.54624  0.81965  0.91764  1.0000
  H   H751      1.0  0.65356  0.93603  0.70872  1.0000
  C   C442      1.0  0.53417  0.70723  0.93374  1.0000
  H   H752      1.0  0.51839  0.78276  0.93002  1.0000
  H   H753      1.0  0.67019  0.92386  0.75463  1.0000
  C   C443      1.0  0.68281  0.87603  0.66404  1.0000
  H   H754      1.0  0.54859  0.69302  0.91474  1.0000
  H   H755      1.0  0.69933  0.89003  0.76502  1.0000
  H   H756      1.0  0.67420  0.87888  0.71352  1.0000
  H   H757      1.0  0.99854  0.90648  0.77651  1.0000
  C   C444      1.0  0.67772  0.94645  0.69513  1.0000
  C   C445      1.0  0.59028  0.78391  0.95520  1.0000
  H   H758      1.0  0.70502  0.93433  0.77634  1.0000
  C   C446      1.0  0.69773  0.91782  0.75739  1.0000
  H   H759      1.0  0.67087  0.94840  0.67085  1.0000
  H   H760      1.0  0.70673  0.99668  0.69247  1.0000
  C   C447      1.0  0.78129  0.98218  0.78336  1.0000
  H   H761      1.0  0.67392  0.84837  0.66553  1.0000
  H   H762      1.0  0.76815  0.97831  0.80652  1.0000
  C   C448      1.0  0.98957  0.92848  0.79120  1.0000
  Fe  Fe64      1.0  0.67875  0.69598  0.98982  1.0000
  H   H763      1.0  0.52523  0.79616  0.88980  1.0000
  H   H764      1.0  0.59100  0.78472  0.89183  1.0000
  H   H765      1.0  0.60706  0.80425  0.94196  1.0000
  H   H766      1.0  0.56541  0.79697  0.96346  1.0000
  S   S128      1.0  0.65792  0.56662  0.99007  1.0000
  H   H767      1.0  0.82747  0.99643  0.70034  1.0000
  H   H768      1.0  0.68490  0.98535  0.73048  1.0000
