data_image0
_chemical_formula_structural       FeSFeSNH2FeSHSH3CHSC4HFeS2FeS2FeSFeS3FeS3FeSFeHSC4H2C4H3CFeCHCHCHSHC6H4SC2SH6C4H2CH2C5HCH4S2CHC2HCH5CHFeCH4C3H4SH3CH8CHCHCH4CH4C3SH5NC6HCH2C2H2CH4CHC3SCNHSCH9CH2CNHFeCH4CNC8H20NC3H2C2H7C2NCHCHCH5SH4CH5C2HC2H3CFeSCFeS3NS4HCH3CHFeCHSH2NCH3FeCFeH3CHCHCHC2H6C2HSHC6H4C6SH3CHFeH2CH2C2HNC7H24C3HSH2C2H4CSH2C2H3SCHNH5CHCHC2HC3HCH2CHCHCH5CH5FeH3CHSH2CH2CH2CNC3S2H3CHFeHSC2HCH2CHCH5CH3C2FeSH6S2H2C2H2CH3CH4C9H8FeHCH3CHC2HNFeH4CH5S2HFeH3C3H2FeNHCH2CH2C2HCHSHNC7H6C3H6CH2CH4S2NC2H3C3H2SH3SH3CH5FeS2HSCH2SH3CHFeSH2CSCNCHC2FeCH2CHCHC2FeC3H2CH2NHC6HC3H10CH2C2HCH2CHCH5CHSCH2SH2CHNH2C2HCH3SH5CHC2HSHCH2SFeH2NCH8SCFeHNFeCH3FeC5HSCHCH2SHCHC2HSHSCH2CSC2HC2HSH2CHCH2FeSCH4C3H5SHC2HCHCHCHSCFeC3HCH6FeC2NHCHC2H3C2HS2HFeH6CH2FeSFeNFe2SH2SCH2CHC2H5S2HSH3FeH2CHFeH2CH4CH2C2H4FeSHCH4CHC4HCHC4HCHCH2FeSCSFeSFeS2C5H3SH2C6SH4CH2SH3CHN2HCHSH2C6H5C2H4CSH3CH2C2HCH4SHCHNH4C3H9CHCH2CH5C3H4SFeCHCH5NC3HCHCH4CH7CH8C2H2NC2H3S2FeH3CH5SC2H6FeS2FeSHFeSHSHFeS2FeS2FeSFeS2FeS2FeS2FeSFeS3FeS2FeS2Fe2S3C6H4C6H4C6H4C6H5C6H4C6H4C4H6CSC2HSH7SC2H2CH2CH3SHCH2C2H3NC5SCHCHNC8H22CH3C2H2CH3C3HCHNH5CH5C2H3C2H3C3NHCHCHC3FeH3CH3SH7NCH2C2NHCH3CHCHSC2H2NH3CH8CH2C2H3C2H2FeC2HCHC2H3CHFeH6SHCH2NH3CHCFeH2C3H6SH3SHSH5SHC2HCH3CH4C2H2CHC2HFeH2CH3CHC2HNH3CHFeCSFeS2H2FeHS2CSHC2H7C2SHCH2CHNH2C3HC2H3CH2C2HC2H3CH2C2HC2H4CH2CHSHC2H2CHCHCHSHCHCHCHCH3SH4FeSCFeS2FeSFeS3HSFeS2FeSFeS3FeS2FeSHFeSFeS3H4C3H2CHSC3FeC2H2CHC6H4C2H4C6H4C6H7CSCHCH3CHCHCNC2H5CH2CH2C2SCNC4H9C2H4CH5CH5C2H2C4H3CH3C2H2NCH2CH3CHSH4CH5C2NC8H6CHCNH7NHFeH2CHC2HCHCH2CHCH2CH6CH2C2SH5SC2HCH5CH2CH5C2H4CHCH4CH2CH3CSCSCHCHCHCH2CHNCHCH2CH7CHCHC2NH3CHSHCH5CFeH5CHCH5C2FeH3SFeH3CHFeS2H4CHFeS2FeS2FeSFeS3HC2H2CH6C2H8CH3C6H4C4H4C2H2CHCH2CH3CH2FeCNSH3FeH2CSNC5H14CHSC3SH3C3H2CHC2H8CH2C2H2SH3CHNHCFeCSCHC2HC2HNC6HCH6C2H2SH2CH6FeH2CFeH2C2SHSH6CH2SNSHNCHCHSHCH3CHCH2FeS2FeS2FeHFeS3FeS2FeS2FeSFeS3FeS2FeSFeSFeS3C6H3C2HFeCHNHC6H3CH2FeH4SHC6H4C6H5CHC2HCHSC3H3C2HCH9NC4HC5H18NC8H9SH10NC3H2C2H6CFeHCH9CHFeC3H5C2H4C2HCHCH2CHCNHCHCHC2H2C3H7NH4SHSC2SHFeH2SC4SHCHCFeH2FeH3CH4SH4FeCH2CSH2C2HC2H2CH3C2H2SH3C4H2C2SH4NHNHCHCSCHC2H3C2H2CHSH2CSH4C3SHC2FeCHFeH3SH3CH2CH5SCH4CHFeHSCH4FeS2HFeNCHC4HCH2SFeH4SHCH2CH3C2H2C2HCHSC2H7NHSHCH4SHFeH2C2SHSCSCSHFeHCHCHC4NCH3CHCH10CH2CHC4HCH2CHSNH2C2H3C2H4CH2CHFeH3CHCH2
_chemical_formula_sum              "Fe128 S256 N64 H1536 C896"
_cell_length_a       69.0862
_cell_length_b       69.1274
_cell_length_c       32.5094
_cell_angle_alpha    78.8868
_cell_angle_beta     77.5202
_cell_angle_gamma    76.4933

_space_group_name_H-M_alt    "P 1"
_space_group_IT_number       1

loop_
  _space_group_symop_operation_xyz
  'x, y, z'

loop_
  _atom_site_type_symbol
  _atom_site_label
  _atom_site_symmetry_multiplicity
  _atom_site_fract_x
  _atom_site_fract_y
  _atom_site_fract_z
  _atom_site_occupancy
  Fe  Fe1       1.0  0.29770  0.18209  0.09175  1.0000
  S   S1        1.0  0.30713  0.18046  0.15439  1.0000
  Fe  Fe2       1.0  0.25293  0.18668  0.13081  1.0000
  S   S2        1.0  0.25922  0.18551  0.19591  1.0000
  N   N1        1.0  0.20854  0.03150  0.43820  1.0000
  H   H1        1.0  0.20630  0.00464  0.48426  1.0000
  H   H2        1.0  0.09106  0.06241  0.40390  1.0000
  Fe  Fe3       1.0  0.28483  0.16040  0.17879  1.0000
  S   S3        1.0  0.29003  0.13279  0.22665  1.0000
  H   H3        1.0  0.21212  0.20900  0.37085  1.0000
  S   S4        1.0  0.27725  0.15997  0.11557  1.0000
  H   H4        1.0  0.29220  0.09147  0.26361  1.0000
  H   H5        1.0  0.24552  0.00485  0.41825  1.0000
  H   H6        1.0  0.32063  0.17131  0.56000  1.0000
  C   C1        1.0  0.23510  0.13225  0.09720  1.0000
  H   H7        1.0  0.27073  0.09277  0.17666  1.0000
  S   S5        1.0  0.31198  0.20647  0.36830  1.0000
  C   C2        1.0  0.20218  0.12395  0.18723  1.0000
  C   C3        1.0  0.00981  0.01381  0.32750  1.0000
  C   C4        1.0  0.26251  0.04996  0.29156  1.0000
  C   C5        1.0  0.11531  0.07085  0.42376  1.0000
  H   H8        1.0  0.10611  0.07528  0.45318  1.0000
  Fe  Fe4       1.0  0.17468  0.13690  0.32947  1.0000
  S   S6        1.0  0.16446  0.13631  0.39997  1.0000
  S   S7        1.0  0.15879  0.15833  0.27994  1.0000
  Fe  Fe5       1.0  0.20678  0.09867  0.34001  1.0000
  S   S8        1.0  0.19989  0.09483  0.41137  1.0000
  S   S9        1.0  0.22677  0.07674  0.29876  1.0000
  Fe  Fe6       1.0  0.16754  0.10305  0.40299  1.0000
  S   S10       1.0  0.14487  0.08562  0.44385  1.0000
  Fe  Fe7       1.0  0.19765  0.12827  0.40235  1.0000
  S   S11       1.0  0.21064  0.14409  0.44079  1.0000
  S   S12       1.0  0.17456  0.10446  0.33224  1.0000
  S   S13       1.0  0.20776  0.13129  0.33151  1.0000
  Fe  Fe8       1.0  0.03649  0.06262  0.40619  1.0000
  S   S14       1.0  0.05494  0.08565  0.37217  1.0000
  S   S15       1.0  0.03002  0.05782  0.47758  1.0000
  S   S16       1.0  0.05538  0.06844  0.28458  1.0000
  Fe  Fe9       1.0  0.07336  0.06064  0.33684  1.0000
  S   S17       1.0  0.10708  0.05339  0.31841  1.0000
  Fe  Fe10      1.0  0.03510  0.09129  0.32313  1.0000
  H   H9        1.0  0.21624  0.22790  0.27862  1.0000
  S   S18       1.0  0.01475  0.07056  0.36047  1.0000
  C   C6        1.0  0.11837  0.05895  0.35676  1.0000
  C   C7        1.0  0.13541  0.07330  0.41263  1.0000
  C   C8        1.0  0.14737  0.06713  0.37507  1.0000
  C   C9        1.0  0.13886  0.05994  0.34713  1.0000
  H   H10       1.0  0.16313  0.06811  0.36721  1.0000
  H   H11       1.0  0.14796  0.05593  0.31729  1.0000
  C   C10       1.0  0.28597  0.04307  0.34078  1.0000
  C   C11       1.0  0.27332  0.05785  0.36379  1.0000
  C   C12       1.0  0.25539  0.06892  0.35020  1.0000
  C   C13       1.0  0.24991  0.06477  0.31432  1.0000
  H   H12       1.0  0.18740  0.11951  0.19068  1.0000
  H   H13       1.0  0.27754  0.06094  0.39167  1.0000
  H   H14       1.0  0.24576  0.08049  0.36762  1.0000
  C   C14       1.0  0.25560  0.07101  0.16553  1.0000
  Fe  Fe11      1.0  0.03662  0.04728  0.32528  1.0000
  C   C15       1.0  0.21310  0.00894  0.45040  1.0000
  H   H15       1.0  0.22437  0.03346  0.32752  1.0000
  C   C16       1.0  0.28051  0.03921  0.30466  1.0000
  H   H16       1.0  0.09188  0.00273  0.35629  1.0000
  C   C17       1.0  0.31235  0.09354  0.14201  1.0000
  H   H17       1.0  0.20291  0.13646  0.16048  1.0000
  S   S19       1.0  0.30418  0.10891  0.42791  1.0000
  H   H18       1.0  0.25826  0.04659  0.26401  1.0000
  C   C18       1.0  0.27845  0.11951  0.43005  1.0000
  C   C19       1.0  0.26955  0.13663  0.44946  1.0000
  C   C20       1.0  0.24856  0.14389  0.45380  1.0000
  C   C21       1.0  0.23665  0.13440  0.43752  1.0000
  C   C22       1.0  0.24570  0.11768  0.41698  1.0000
  C   C23       1.0  0.26652  0.11005  0.41385  1.0000
  H   H19       1.0  0.27873  0.14384  0.46235  1.0000
  H   H20       1.0  0.24158  0.15686  0.46961  1.0000
  H   H21       1.0  0.23668  0.11054  0.40365  1.0000
  H   H22       1.0  0.27344  0.09695  0.39845  1.0000
  S   S20       1.0  0.30855  0.02934  0.35698  1.0000
  C   C24       1.0  0.29358  0.20465  0.25928  1.0000
  C   C25       1.0  0.30085  0.19885  0.29777  1.0000
  S   S21       1.0  0.27262  0.20916  0.09946  1.0000
  H   H23       1.0  0.21956  0.13058  0.09697  1.0000
  H   H24       1.0  0.17497  0.04393  0.50586  1.0000
  H   H25       1.0  0.29273  0.19331  0.24137  1.0000
  H   H26       1.0  0.23559  0.03519  0.39046  1.0000
  H   H27       1.0  0.17380  0.01903  0.49728  1.0000
  H   H28       1.0  0.30518  0.18311  0.30954  1.0000
  C   C26       1.0  0.12312  0.99507  0.32600  1.0000
  C   C27       1.0  0.31304  0.07498  0.16853  1.0000
  C   C28       1.0  0.30490  0.11143  0.15961  1.0000
  C   C29       1.0  0.29808  0.11071  0.20362  1.0000
  H   H29       1.0  0.19852  0.19880  0.31067  1.0000
  H   H30       1.0  0.03422  0.11768  0.51590  1.0000
  C   C30       1.0  0.99329  0.00356  0.39954  1.0000
  H   H31       1.0  0.30537  0.12569  0.13939  1.0000
  H   H32       1.0  0.21446  0.18395  0.39583  1.0000
  C   C31       1.0  0.21939  0.10537  0.18080  1.0000
  C   C32       1.0  0.20364  0.18100  0.16562  1.0000
  C   C33       1.0  0.20906  0.17490  0.20585  1.0000
  C   C34       1.0  0.19513  0.16859  0.24113  1.0000
  C   C35       1.0  0.17569  0.16793  0.23645  1.0000
  H   H33       1.0  0.19722  0.17521  0.34600  1.0000
  C   C36       1.0  0.24123  0.12267  0.23646  1.0000
  H   H34       1.0  0.22403  0.17470  0.20999  1.0000
  H   H35       1.0  0.19943  0.16436  0.27197  1.0000
  H   H36       1.0  0.01206  0.08764  0.18359  1.0000
  H   H37       1.0  0.06212  0.99327  0.28320  1.0000
  S   S22       1.0  0.02172  0.12221  0.29293  1.0000
  S   S23       1.0  0.05651  0.03720  0.37450  1.0000
  C   C37       1.0  0.00305  0.04556  0.54653  1.0000
  H   H38       1.0  0.32428  0.23515  0.40659  1.0000
  C   C38       1.0  0.17000  0.17434  0.19643  1.0000
  C   C39       1.0  0.30497  0.07433  0.21196  1.0000
  H   H39       1.0  0.15628  0.04067  0.47927  1.0000
  C   C40       1.0  0.02028  0.12082  0.45935  1.0000
  H   H40       1.0  0.30962  0.21785  0.90583  1.0000
  H   H41       1.0  0.17957  0.18562  0.13013  1.0000
  H   H42       1.0  0.30709  0.21327  0.46126  1.0000
  H   H43       1.0  0.28994  0.02762  0.28721  1.0000
  H   H44       1.0  0.26345  0.07175  0.13184  1.0000
  C   C41       1.0  0.10104  0.99213  0.33416  1.0000
  H   H45       1.0  0.21751  0.09480  0.21131  1.0000
  Fe  Fe12      1.0  0.28052  0.20582  0.16423  1.0000
  C   C42       1.0  0.01681  0.10373  0.22979  1.0000
  H   H46       1.0  0.28206  0.21470  0.52379  1.0000
  H   H47       1.0  0.02987  0.10594  0.45273  1.0000
  H   H48       1.0  0.21595  0.09774  0.15684  1.0000
  H   H49       1.0  0.26463  0.05797  0.18356  1.0000
  C   C43       1.0  0.99807  0.10594  0.51972  1.0000
  C   C44       1.0  0.23611  0.04464  0.46256  1.0000
  C   C45       1.0  0.18396  0.18086  0.16108  1.0000
  H   H50       1.0  0.24752  0.03086  0.45665  1.0000
  H   H51       1.0  0.23358  0.14027  0.17820  1.0000
  H   H52       1.0  0.26333  0.11423  0.11201  1.0000
  H   H53       1.0  0.00267  0.09342  0.44394  1.0000
  S   S24       1.0  0.02699  0.02672  0.29201  1.0000
  H   H54       1.0  0.02157  0.13102  0.42834  1.0000
  H   H55       1.0  0.21079  0.03342  0.50292  1.0000
  H   H56       1.0  0.25524  0.19904  0.28029  1.0000
  C   C46       1.0  0.21891  0.03819  0.39358  1.0000
  H   H57       1.0  0.24146  0.99839  0.47567  1.0000
  H   H58       1.0  0.25146  0.08614  0.21897  1.0000
  H   H59       1.0  0.24030  0.06780  0.16887  1.0000
  H   H60       1.0  0.09270  0.01468  0.20489  1.0000
  H   H61       1.0  0.23481  0.14607  0.10985  1.0000
  H   H62       1.0  0.99245  0.06176  0.44671  1.0000
  H   H63       1.0  0.15492  0.17400  0.19259  1.0000
  H   H64       1.0  0.04549  0.13212  0.46940  1.0000
  C   C47       1.0  0.29601  0.23379  0.30581  1.0000
  H   H65       1.0  0.30449  0.06001  0.23216  1.0000
  C   C48       1.0  0.29784  0.09214  0.22967  1.0000
  H   H66       1.0  0.24266  0.13449  0.06330  1.0000
  C   C49       1.0  0.25181  0.20883  0.37567  1.0000
  H   H67       1.0  0.32089  0.21141  0.07976  1.0000
  H   H68       1.0  0.25456  0.11234  0.24775  1.0000
  H   H69       1.0  0.23990  0.13726  0.24741  1.0000
  H   H70       1.0  0.02172  0.14328  0.49836  1.0000
  C   C50       1.0  0.28778  0.22506  0.24374  1.0000
  H   H71       1.0  0.25636  0.21974  0.34744  1.0000
  H   H72       1.0  0.06112  0.00488  0.32737  1.0000
  H   H73       1.0  0.08377  0.02686  0.29421  1.0000
  H   H74       1.0  0.12412  0.01113  0.31619  1.0000
  C   C51       1.0  0.99785  0.00427  0.31169  1.0000
  C   C52       1.0  0.00589  0.10001  0.20162  1.0000
  C   C53       1.0  0.21546  0.19343  0.36383  1.0000
  S   S25       1.0  0.22123  0.18836  0.12055  1.0000
  H   H75       1.0  0.20180  0.12966  0.21700  1.0000
  H   H76       1.0  0.22684  0.22967  0.32343  1.0000
  H   H77       1.0  0.03143  0.09446  0.23257  1.0000
  H   H78       1.0  0.31451  0.06697  0.38793  1.0000
  H   H79       1.0  0.22760  0.11655  0.25189  1.0000
  N   N2        1.0  0.23627  0.18788  0.33770  1.0000
  C   C54       1.0  0.23891  0.16638  0.33043  1.0000
  C   C55       1.0  0.23559  0.99842  0.44643  1.0000
  C   C56       1.0  0.25204  0.18849  0.36285  1.0000
  C   C57       1.0  0.00890  0.11944  0.25379  1.0000
  C   C58       1.0  0.26054  0.15574  0.31288  1.0000
  C   C59       1.0  0.23015  0.22378  0.29294  1.0000
  H   H80       1.0  0.24556  0.10065  0.10523  1.0000
  C   C60       1.0  0.00623  0.05256  0.50272  1.0000
  H   H81       1.0  0.23374  0.15677  0.36041  1.0000
  H   H82       1.0  0.22932  0.16538  0.30779  1.0000
  C   C61       1.0  0.08274  0.02208  0.23142  1.0000
  C   C62       1.0  0.19779  0.19127  0.34415  1.0000
  H   H83       1.0  0.25089  0.17738  0.39257  1.0000
  H   H84       1.0  0.26753  0.18399  0.34473  1.0000
  C   C63       1.0  0.30230  0.21339  0.32082  1.0000
  H   H85       1.0  0.31851  0.09408  0.10835  1.0000
  H   H86       1.0  0.27018  0.15151  0.33776  1.0000
  H   H87       1.0  0.25981  0.14138  0.30327  1.0000
  H   H88       1.0  0.26787  0.16489  0.28457  1.0000
  C   C64       1.0  0.06993  0.99227  0.31020  1.0000
  H   H89       1.0  0.25938  0.12896  0.17502  1.0000
  C   C65       1.0  0.03072  0.12901  0.48788  1.0000
  C   C66       1.0  0.23896  0.20094  0.29480  1.0000
  C   C67       1.0  0.10675  0.06376  0.39570  1.0000
  S   S26       1.0  0.28024  0.23250  0.19414  1.0000
  C   C68       1.0  0.18603  0.03825  0.43914  1.0000
  N   N3        1.0  0.09161  0.99462  0.29512  1.0000
  H   H90       1.0  0.23873  0.05688  0.43571  1.0000
  S   S27       1.0  0.32130  0.15682  0.44525  1.0000
  C   C69       1.0  0.17232  0.03511  0.48323  1.0000
  H   H91       1.0  0.99946  0.00468  0.27768  1.0000
  H   H92       1.0  0.08183  0.03852  0.22123  1.0000
  H   H93       1.0  0.06713  0.01956  0.23587  1.0000
  H   H94       1.0  0.18229  0.05460  0.42645  1.0000
  H   H95       1.0  0.18076  0.03036  0.41818  1.0000
  H   H96       1.0  0.01545  0.04249  0.56380  1.0000
  H   H97       1.0  0.21460  0.05482  0.38527  1.0000
  H   H98       1.0  0.20460  0.05706  0.47122  1.0000
  H   H99       1.0  0.10754  0.01855  0.26263  1.0000
  C   C70       1.0  0.99253  0.10839  0.44610  1.0000
  H   H100      1.0  0.18325  0.19827  0.36283  1.0000
  H   H101      1.0  0.23169  0.19588  0.27244  1.0000
  C   C71       1.0  0.21410  0.04167  0.47003  1.0000
  N   N4        1.0  0.99854  0.11889  0.47658  1.0000
  H   H102      1.0  0.32417  0.22935  0.59433  1.0000
  Fe  Fe13      1.0  0.32470  0.13103  0.41043  1.0000
  C   C72       1.0  0.31574  0.18397  0.53522  1.0000
  H   H103      1.0  0.23873  0.04952  0.49118  1.0000
  H   H104      1.0  0.28323  0.22775  0.56462  1.0000
  H   H105      1.0  0.19874  0.03433  0.35272  1.0000
  H   H106      1.0  0.29978  0.18412  0.53439  1.0000
  C   C73       1.0  0.21456  0.02879  0.35799  1.0000
  N   N5        1.0  0.10529  0.12567  0.29817  1.0000
  C   C74       1.0  0.10941  0.14639  0.29532  1.0000
  C   C75       1.0  0.12519  0.11109  0.29039  1.0000
  C   C76       1.0  0.09399  0.11879  0.34176  1.0000
  C   C77       1.0  0.09257  0.12621  0.26549  1.0000
  C   C78       1.0  0.09059  0.16310  0.30477  1.0000
  C   C79       1.0  0.13851  0.11479  0.24608  1.0000
  C   C80       1.0  0.10252  0.12144  0.38008  1.0000
  C   C81       1.0  0.08947  0.10562  0.25939  1.0000
  H   H107      1.0  0.12002  0.14628  0.31679  1.0000
  H   H108      1.0  0.11730  0.15156  0.26282  1.0000
  H   H109      1.0  0.12286  0.09536  0.29560  1.0000
  H   H110      1.0  0.13464  0.11126  0.31383  1.0000
  H   H111      1.0  0.07778  0.12651  0.34599  1.0000
  H   H112      1.0  0.09374  0.10251  0.34558  1.0000
  H   H113      1.0  0.07710  0.13532  0.27409  1.0000
  H   H114      1.0  0.09892  0.13388  0.23377  1.0000
  H   H115      1.0  0.09569  0.17718  0.30491  1.0000
  H   H116      1.0  0.08122  0.16635  0.27956  1.0000
  H   H117      1.0  0.08111  0.15956  0.33626  1.0000
  H   H118      1.0  0.14431  0.12887  0.24143  1.0000
  H   H119      1.0  0.15200  0.10234  0.24380  1.0000
  H   H120      1.0  0.13064  0.11492  0.21973  1.0000
  H   H121      1.0  0.09395  0.11437  0.40991  1.0000
  H   H122      1.0  0.10082  0.13748  0.38306  1.0000
  H   H123      1.0  0.11862  0.11395  0.37884  1.0000
  H   H124      1.0  0.10372  0.09617  0.24513  1.0000
  H   H125      1.0  0.07864  0.10805  0.23723  1.0000
  H   H126      1.0  0.08288  0.09719  0.28964  1.0000
  N   N6        1.0  0.24078  0.10896  0.16831  1.0000
  C   C82       1.0  0.25505  0.09017  0.18382  1.0000
  C   C83       1.0  0.24388  0.12596  0.18748  1.0000
  C   C84       1.0  0.24702  0.11317  0.12052  1.0000
  H   H127      1.0  0.24114  0.23220  0.27097  1.0000
  H   H128      1.0  0.00249  0.11345  0.54257  1.0000
  C   C85       1.0  0.31886  0.20368  0.54609  1.0000
  C   C86       1.0  0.00754  0.01351  0.37141  1.0000
  H   H129      1.0  0.21818  0.01213  0.36388  1.0000
  H   H130      1.0  0.31178  0.20409  0.58019  1.0000
  H   H131      1.0  0.23717  0.21516  0.39469  1.0000
  H   H132      1.0  0.26343  0.20651  0.39604  1.0000
  H   H133      1.0  0.00883  0.11960  0.38320  1.0000
  H   H134      1.0  0.20557  0.00139  0.43283  1.0000
  H   H135      1.0  0.01675  0.02091  0.38375  1.0000
  C   C87       1.0  0.31787  0.22012  0.47204  1.0000
  C   C88       1.0  0.99310  0.11967  0.40018  1.0000
  N   N7        1.0  0.31100  0.22293  0.51843  1.0000
  C   C89       1.0  0.09186  0.01580  0.27236  1.0000
  H   H136      1.0  0.32207  0.08753  0.35077  1.0000
  C   C90       1.0  0.28822  0.22715  0.52991  1.0000
  H   H137      1.0  0.30378  0.20635  0.95982  1.0000
  C   C91       1.0  0.31640  0.21021  0.93413  1.0000
  H   H138      1.0  0.31514  0.04223  0.49182  1.0000
  H   H139      1.0  0.12909  0.99022  0.35627  1.0000
  H   H140      1.0  0.31628  0.06592  0.45944  1.0000
  H   H141      1.0  0.00937  0.09162  0.51738  1.0000
  H   H142      1.0  0.13320  0.98600  0.30219  1.0000
  S   S28       1.0  0.32366  0.17790  0.03734  1.0000
  H   H143      1.0  0.28130  0.26018  0.51111  1.0000
  H   H144      1.0  0.31417  0.25421  0.50946  1.0000
  H   H145      1.0  0.28431  0.25543  0.25524  1.0000
  H   H146      1.0  0.26046  0.24802  0.51864  1.0000
  C   C92       1.0  0.27696  0.24647  0.50612  1.0000
  H   H147      1.0  0.27909  0.24570  0.47165  1.0000
  H   H148      1.0  0.31677  0.24962  0.87559  1.0000
  H   H149      1.0  0.30903  0.25197  0.44166  1.0000
  H   H150      1.0  0.29987  0.24594  0.58861  1.0000
  H   H151      1.0  0.29700  0.24511  0.32366  1.0000
  C   C93       1.0  0.31616  0.24245  0.57462  1.0000
  C   C94       1.0  0.31980  0.23938  0.52758  1.0000
  H   H152      1.0  0.32267  0.25548  0.57635  1.0000
  C   C95       1.0  0.28880  0.23963  0.26724  1.0000
  C   C96       1.0  0.32173  0.23890  0.43930  1.0000
  H   H153      1.0  0.31554  0.23808  0.95397  1.0000
  H   H154      1.0  0.19435  0.71522  0.39694  1.0000
  H   H155      1.0  0.27699  0.64426  0.32255  1.0000
  C   C97       1.0  0.16210  0.68979  0.37286  1.0000
  Fe  Fe14      1.0  0.07654  0.72152  0.21317  1.0000
  S   S29       1.0  0.05367  0.71449  0.18144  1.0000
  C   C98       1.0  0.18971  0.70434  0.38181  1.0000
  Fe  Fe15      1.0  0.08057  0.69840  0.14002  1.0000
  S   S30       1.0  0.08408  0.66828  0.11969  1.0000
  S   S31       1.0  0.99818  0.61240  0.32788  1.0000
  S   S32       1.0  0.10288  0.70253  0.17657  1.0000
  N   N8        1.0  0.01953  0.59453  0.10013  1.0000
  S   S33       1.0  0.08480  0.72524  0.09066  1.0000
  S   S34       1.0  0.23546  0.70247  0.28754  1.0000
  S   S35       1.0  0.01886  0.65635  0.02256  1.0000
  S   S36       1.0  0.28478  0.70054  0.20510  1.0000
  H   H156      1.0  0.05725  0.55793  0.09200  1.0000
  C   C99       1.0  0.04472  0.56105  0.11920  1.0000
  H   H157      1.0  0.05189  0.58570  0.03396  1.0000
  H   H158      1.0  0.04688  0.70023  0.01368  1.0000
  H   H159      1.0  0.30430  0.61752  0.31504  1.0000
  C   C100      1.0  0.26166  0.70051  0.43862  1.0000
  H   H160      1.0  0.30471  0.60663  0.81174  1.0000
  Fe  Fe16      1.0  0.10482  0.73098  0.13089  1.0000
  C   C101      1.0  0.30109  0.65980  0.28415  1.0000
  H   H161      1.0  0.19659  0.71818  0.17168  1.0000
  S   S37       1.0  0.01736  0.68036  0.42808  1.0000
  H   H162      1.0  0.32315  0.72715  0.44485  1.0000
  H   H163      1.0  0.31378  0.57947  0.81997  1.0000
  N   N9        1.0  0.16701  0.70619  0.39140  1.0000
  C   C102      1.0  0.00556  0.60292  0.06819  1.0000
  H   H164      1.0  0.31648  0.72179  0.39891  1.0000
  H   H165      1.0  0.28318  0.68330  0.47773  1.0000
  H   H166      1.0  0.13974  0.71893  0.25775  1.0000
  Fe  Fe17      1.0  0.99356  0.66727  0.41249  1.0000
  C   C103      1.0  0.13793  0.72805  0.19149  1.0000
  Fe  Fe18      1.0  0.23378  0.72880  0.31936  1.0000
  H   H167      1.0  0.06457  0.60525  0.03588  1.0000
  H   H168      1.0  0.99918  0.72693  0.40761  1.0000
  H   H169      1.0  0.08223  0.69148  0.99315  1.0000
  C   C104      1.0  0.07545  0.70764  0.98462  1.0000
  H   H170      1.0  0.32513  0.57252  0.88458  1.0000
  C   C105      1.0  0.16938  0.71783  0.21879  1.0000
  H   H171      1.0  0.31713  0.62419  0.92963  1.0000
  C   C106      1.0  0.31638  0.71544  0.15312  1.0000
  H   H172      1.0  0.19504  0.70807  0.34691  1.0000
  C   C107      1.0  0.28076  0.68953  0.44562  1.0000
  C   C108      1.0  0.29556  0.71593  0.16115  1.0000
  H   H173      1.0  0.29734  0.72705  0.44521  1.0000
  H   H174      1.0  0.16406  0.67525  0.39481  1.0000
  H   H175      1.0  0.13431  0.71137  0.48829  1.0000
  H   H176      1.0  0.30019  0.71997  0.97828  1.0000
  H   H177      1.0  0.16664  0.68798  0.45350  1.0000
  H   H178      1.0  0.99743  0.73005  0.01524  1.0000
  C   C109      1.0  0.02008  0.59489  0.17960  1.0000
  C   C110      1.0  0.31127  0.73120  0.42472  1.0000
  H   H179      1.0  0.31951  0.65559  0.03974  1.0000
  S   S38       1.0  0.23483  0.72298  0.38893  1.0000
  H   H180      1.0  0.01420  0.70693  0.02998  1.0000
  C   C111      1.0  0.06581  0.66610  0.09197  1.0000
  C   C112      1.0  0.04560  0.67576  0.10229  1.0000
  C   C113      1.0  0.03104  0.67272  0.08132  1.0000
  C   C114      1.0  0.03681  0.66067  0.04887  1.0000
  C   C115      1.0  0.05713  0.65160  0.03773  1.0000
  C   C116      1.0  0.07151  0.65393  0.05989  1.0000
  H   H181      1.0  0.04115  0.68532  0.12681  1.0000
  H   H182      1.0  0.01546  0.68013  0.08970  1.0000
  H   H183      1.0  0.06174  0.64253  0.01232  1.0000
  H   H184      1.0  0.08717  0.64653  0.05176  1.0000
  C   C117      1.0  0.06090  0.70912  0.32099  1.0000
  C   C118      1.0  0.06286  0.70734  0.36350  1.0000
  C   C119      1.0  0.04970  0.69799  0.39595  1.0000
  C   C120      1.0  0.03449  0.69038  0.38607  1.0000
  C   C121      1.0  0.03262  0.69195  0.34344  1.0000
  C   C122      1.0  0.04584  0.70138  0.31083  1.0000
  S   S39       1.0  0.22922  0.73511  0.20055  1.0000
  H   H185      1.0  0.05109  0.69693  0.42887  1.0000
  H   H186      1.0  0.02064  0.68653  0.33584  1.0000
  H   H187      1.0  0.04401  0.70335  0.27806  1.0000
  C   C123      1.0  0.03772  0.60431  0.08521  1.0000
  H   H188      1.0  0.02208  0.57851  0.19144  1.0000
  Fe  Fe19      1.0  0.25497  0.71808  0.23347  1.0000
  H   H189      1.0  0.04894  0.59907  0.10662  1.0000
  H   H190      1.0  0.03471  0.59980  0.17217  1.0000
  C   C124      1.0  0.18024  0.72102  0.17723  1.0000
  H   H191      1.0  0.01654  0.73145  0.35940  1.0000
  H   H192      1.0  0.26993  0.67103  0.31194  1.0000
  C   C125      1.0  0.20242  0.68355  0.39637  1.0000
  C   C126      1.0  0.14867  0.73091  0.14984  1.0000
  H   H193      1.0  0.14140  0.72884  0.37213  1.0000
  N   N10       1.0  0.04564  0.64626  0.24550  1.0000
  C   C127      1.0  0.02421  0.65788  0.25587  1.0000
  C   C128      1.0  0.04946  0.63082  0.28411  1.0000
  C   C129      1.0  0.04672  0.63575  0.20827  1.0000
  C   C130      1.0  0.05978  0.66090  0.23437  1.0000
  C   C131      1.0  0.01576  0.67290  0.21913  1.0000
  C   C132      1.0  0.06696  0.62188  0.19340  1.0000
  C   C133      1.0  0.08217  0.65246  0.23894  1.0000
  H   H194      1.0  0.01357  0.64739  0.26854  1.0000
  H   H195      1.0  0.02282  0.66693  0.28147  1.0000
  H   H196      1.0  0.06472  0.62118  0.27930  1.0000
  H   H197      1.0  0.03471  0.62663  0.21557  1.0000
  H   H198      1.0  0.04376  0.64686  0.17955  1.0000
  H   H199      1.0  0.05953  0.66891  0.20135  1.0000
  H   H200      1.0  0.05435  0.67284  0.25495  1.0000
  H   H201      1.0  0.00096  0.68201  0.23219  1.0000
  H   H202      1.0  0.02582  0.68356  0.20354  1.0000
  H   H203      1.0  0.01268  0.66512  0.19512  1.0000
  H   H204      1.0  0.05317  0.62719  0.35025  1.0000
  H   H205      1.0  0.06529  0.61483  0.16676  1.0000
  H   H206      1.0  0.07157  0.60946  0.21864  1.0000
  H   H207      1.0  0.07911  0.63055  0.18009  1.0000
  H   H208      1.0  0.09204  0.65976  0.21159  1.0000
  H   H209      1.0  0.08744  0.63611  0.23928  1.0000
  H   H210      1.0  0.08530  0.65674  0.26775  1.0000
  H   H211      1.0  0.02646  0.56761  0.07094  1.0000
  H   H212      1.0  0.99461  0.59405  0.15385  1.0000
  H   H213      1.0  0.04159  0.61178  0.01541  1.0000
  H   H214      1.0  0.04949  0.56873  0.14096  1.0000
  H   H215      1.0  0.31468  0.72505  0.01269  1.0000
  H   H216      1.0  0.16701  0.71305  0.45411  1.0000
  H   H217      1.0  0.03308  0.62081  0.08600  1.0000
  C   C134      1.0  0.00749  0.72216  0.03811  1.0000
  C   C135      1.0  0.13742  0.70677  0.45619  1.0000
  C   C136      1.0  0.14095  0.69348  0.36100  1.0000
  H   H218      1.0  0.00197  0.61969  0.06411  1.0000
  S   S40       1.0  0.32075  0.67394  0.42120  1.0000
  H   H219      1.0  0.12159  0.73123  0.19753  1.0000
  H   H220      1.0  0.03236  0.71995  0.95721  1.0000
  C   C137      1.0  0.04946  0.60139  0.04000  1.0000
  C   C138      1.0  0.31291  0.62345  0.28388  1.0000
  H   H221      1.0  0.30232  0.62670  0.26080  1.0000
  H   H222      1.0  0.05795  0.71027  0.04702  1.0000
  H   H223      1.0  0.29548  0.66117  0.25391  1.0000
  H   H224      1.0  0.30545  0.67446  0.28332  1.0000
  C   C139      1.0  0.29368  0.69506  0.36989  1.0000
  S   S41       1.0  0.18163  0.70993  0.26281  1.0000
  H   H225      1.0  0.13955  0.70526  0.33266  1.0000
  H   H226      1.0  0.31131  0.68851  0.01943  1.0000
  C   C140      1.0  0.05474  0.71246  0.01408  1.0000
  C   C141      1.0  0.25847  0.70849  0.39718  1.0000
  H   H227      1.0  0.16410  0.72859  0.33536  1.0000
  H   H228      1.0  0.30600  0.69312  0.34329  1.0000
  H   H229      1.0  0.13179  0.69269  0.45893  1.0000
  S   S42       1.0  0.07701  0.72185  0.28172  1.0000
  C   C142      1.0  0.32521  0.64138  0.32951  1.0000
  H   H230      1.0  0.17293  0.68678  0.34291  1.0000
  N   N11       1.0  0.31907  0.64260  0.28707  1.0000
  H   H231      1.0  0.00748  0.72013  0.28396  1.0000
  H   H232      1.0  0.27203  0.71144  0.33059  1.0000
  H   H233      1.0  0.05535  0.65171  0.32184  1.0000
  H   H234      1.0  0.03088  0.64462  0.33927  1.0000
  H   H235      1.0  0.13891  0.67951  0.35181  1.0000
  C   C143      1.0  0.16039  0.70352  0.43910  1.0000
  H   H236      1.0  0.03901  0.62008  0.29029  1.0000
  C   C144      1.0  0.15795  0.72675  0.37016  1.0000
  H   H237      1.0  0.08629  0.71618  0.98958  1.0000
  C   C145      1.0  0.28325  0.72916  0.13462  1.0000
  C   C146      1.0  0.31570  0.71717  0.98545  1.0000
  H   H238      1.0  0.01294  0.59898  0.03610  1.0000
  C   C147      1.0  0.14825  0.72125  0.22576  1.0000
  C   C148      1.0  0.28243  0.65840  0.31979  1.0000
  C   C149      1.0  0.27440  0.70546  0.36274  1.0000
  H   H239      1.0  0.17822  0.72965  0.11048  1.0000
  C   C150      1.0  0.04706  0.63935  0.32588  1.0000
  H   H240      1.0  0.04270  0.54604  0.13711  1.0000
  H   H241      1.0  0.01235  0.56504  0.12373  1.0000
  C   C151      1.0  0.00835  0.60071  0.14235  1.0000
  H   H242      1.0  0.00730  0.73250  0.21350  1.0000
  C   C152      1.0  0.02488  0.57190  0.10303  1.0000
  H   H243      1.0  0.01104  0.60265  0.20648  1.0000
  C   C153      1.0  0.29685  0.68701  0.41133  1.0000
  H   H244      1.0  0.07421  0.71001  0.95054  1.0000
  H   H245      1.0  0.12846  0.69750  0.38745  1.0000
  H   H246      1.0  0.24939  0.70281  0.46533  1.0000
  H   H247      1.0  0.12841  0.71913  0.43704  1.0000
  H   H248      1.0  0.31309  0.63744  0.35635  1.0000
  C   C154      1.0  0.16986  0.72751  0.14268  1.0000
  H   H249      1.0  0.28523  0.66014  0.35105  1.0000
  H   H250      1.0  0.00280  0.61730  0.13875  1.0000
  H   H251      1.0  0.19979  0.67948  0.43151  1.0000
  H   H252      1.0  0.19995  0.67145  0.38131  1.0000
  H   H253      1.0  0.21872  0.68425  0.38633  1.0000
  Fe  Fe20      1.0  0.20966  0.72176  0.25822  1.0000
  H   H254      1.0  0.07443  0.71342  0.37142  1.0000
  H   H255      1.0  0.26722  0.72940  0.14038  1.0000
  H   H256      1.0  0.31671  0.59365  0.76780  1.0000
  C   C155      1.0  0.31697  0.59401  0.80172  1.0000
  H   H257      1.0  0.31126  0.60748  0.87519  1.0000
  S   S43       1.0  0.99424  0.63424  0.43206  1.0000
  H   H258      1.0  0.32383  0.64046  0.19984  1.0000
  H   H259      1.0  0.32139  0.66714  0.19986  1.0000
  C   C156      1.0  0.32353  0.69425  0.99530  1.0000
  H   H260      1.0  0.02817  0.72956  0.07085  1.0000
  H   H261      1.0  0.99777  0.72043  0.07014  1.0000
  C   C157      1.0  0.32477  0.72860  0.11916  1.0000
  H   H262      1.0  0.32501  0.72405  0.95672  1.0000
  H   H263      1.0  0.32421  0.68793  0.96577  1.0000
  C   C158      1.0  0.02334  0.73443  0.03920  1.0000
  N   N12       1.0  0.04154  0.73291  0.00364  1.0000
  C   C159      1.0  0.03614  0.73435  0.96048  1.0000
  C   C160      1.0  0.99706  0.78526  0.14155  1.0000
  C   C161      1.0  0.99896  0.86420  0.20278  1.0000
  S   S44       1.0  0.24031  0.85393  0.30771  1.0000
  S   S45       1.0  0.29831  0.91452  0.32326  1.0000
  H   H264      1.0  0.28239  0.76800  0.29354  1.0000
  H   H265      1.0  0.12231  0.77640  0.16304  1.0000
  H   H266      1.0  0.32342  0.75741  0.39359  1.0000
  C   C162      1.0  0.27337  0.75810  0.39814  1.0000
  H   H267      1.0  0.02870  0.77531  0.01437  1.0000
  Fe  Fe21      1.0  0.22789  0.75893  0.23994  1.0000
  H   H268      1.0  0.23712  0.98258  0.44181  1.0000
  S   S46       1.0  0.22032  0.79155  0.21227  1.0000
  C   C163      1.0  0.32477  0.77061  0.17925  1.0000
  C   C164      1.0  0.25587  0.76741  0.37373  1.0000
  H   H269      1.0  0.04950  0.73618  0.93498  1.0000
  C   C165      1.0  0.28978  0.94073  0.20495  1.0000
  H   H270      1.0  0.28204  0.93218  0.19034  1.0000
  H   H271      1.0  0.15963  0.75977  0.19008  1.0000
  C   C166      1.0  0.29172  0.74195  0.10013  1.0000
  H   H272      1.0  0.30128  0.81082  0.05629  1.0000
  C   C167      1.0  0.32245  0.95692  0.13449  1.0000
  H   H273      1.0  0.32074  0.89870  0.40563  1.0000
  H   H274      1.0  0.01181  0.85108  0.20338  1.0000
  H   H275      1.0  0.00098  0.87091  0.26305  1.0000
  H   H276      1.0  0.28638  0.83194  0.12199  1.0000
  H   H277      1.0  0.29492  0.92408  0.08764  1.0000
  C   C168      1.0  0.30820  0.75397  0.40767  1.0000
  H   H278      1.0  0.01503  0.75007  0.04096  1.0000
  H   H279      1.0  0.06780  0.74672  0.98016  1.0000
  H   H280      1.0  0.01835  0.73996  0.29026  1.0000
  C   C169      1.0  0.01784  0.77908  0.14216  1.0000
  C   C170      1.0  0.02629  0.78587  0.17074  1.0000
  Fe  Fe22      1.0  0.05929  0.74191  0.13438  1.0000
  S   S47       1.0  0.03288  0.76241  0.10795  1.0000
  H   H281      1.0  0.13435  0.81105  0.19464  1.0000
  H   H282      1.0  0.04231  0.78130  0.17115  1.0000
  H   H283      1.0  0.11827  0.80344  0.14552  1.0000
  H   H284      1.0  0.24163  0.76380  0.39392  1.0000
  H   H285      1.0  0.12163  0.78631  0.10872  1.0000
  H   H286      1.0  0.04189  0.77503  0.95946  1.0000
  S   S48       1.0  0.07981  0.75040  0.16965  1.0000
  S   S49       1.0  0.28790  0.86086  0.34585  1.0000
  H   H287      1.0  0.30428  0.95320  0.33056  1.0000
  H   H288      1.0  0.28296  0.76383  0.18010  1.0000
  C   C171      1.0  0.27501  0.77964  0.17226  1.0000
  C   C172      1.0  0.12669  0.78855  0.13738  1.0000
  H   H289      1.0  0.05340  0.78027  0.99876  1.0000
  H   H290      1.0  0.28601  0.95705  0.19317  1.0000
  C   C173      1.0  0.31243  0.74188  0.09269  1.0000
  H   H291      1.0  0.26830  0.84182  0.19052  1.0000
  H   H292      1.0  0.11064  0.96528  0.28659  1.0000
  H   H293      1.0  0.30292  0.83131  0.15737  1.0000
  C   C174      1.0  0.31271  0.93244  0.19858  1.0000
  H   H294      1.0  0.29951  0.78980  0.21222  1.0000
  H   H295      1.0  0.25350  0.78402  0.36699  1.0000
  H   H296      1.0  0.28423  0.79010  0.33703  1.0000
  H   H297      1.0  0.27016  0.78697  0.20109  1.0000
  C   C175      1.0  0.31121  0.79157  0.18340  1.0000
  C   C176      1.0  0.28793  0.79742  0.39536  1.0000
  C   C177      1.0  0.05351  0.74857  0.00380  1.0000
  C   C178      1.0  0.23560  0.83641  0.28050  1.0000
  C   C179      1.0  0.24448  0.81600  0.28852  1.0000
  C   C180      1.0  0.23948  0.80193  0.26862  1.0000
  C   C181      1.0  0.22611  0.80843  0.23963  1.0000
  C   C182      1.0  0.21751  0.82889  0.23121  1.0000
  C   C183      1.0  0.22198  0.84280  0.25212  1.0000
  H   H298      1.0  0.25493  0.81116  0.31051  1.0000
  H   H299      1.0  0.24616  0.78617  0.27526  1.0000
  H   H300      1.0  0.20720  0.83400  0.20881  1.0000
  H   H301      1.0  0.21499  0.85856  0.24612  1.0000
  H   H302      1.0  0.28214  0.75217  0.07965  1.0000
  H   H303      1.0  0.27710  0.80149  0.11471  1.0000
  H   H304      1.0  0.31104  0.83164  0.06562  1.0000
  H   H305      1.0  0.28355  0.93872  0.23968  1.0000
  Fe  Fe23      1.0  0.31487  0.84096  0.31333  1.0000
  H   H306      1.0  0.30810  0.77178  0.28191  1.0000
  C   C184      1.0  0.00735  0.74462  0.23147  1.0000
  H   H307      1.0  0.17731  0.74578  0.38222  1.0000
  H   H308      1.0  0.29958  0.79479  0.41567  1.0000
  H   H309      1.0  0.27296  0.79612  0.41518  1.0000
  C   C185      1.0  0.01838  0.75145  0.94867  1.0000
  H   H310      1.0  0.99919  0.75210  0.38157  1.0000
  C   C186      1.0  0.30209  0.74972  0.33891  1.0000
  C   C187      1.0  0.10379  0.97930  0.26710  1.0000
  H   H311      1.0  0.00672  0.74505  0.94007  1.0000
  N   N13       1.0  0.30216  0.80199  0.14463  1.0000
  Fe  Fe24      1.0  0.30886  0.86237  0.22523  1.0000
  H   H312      1.0  0.02055  0.80368  0.22131  1.0000
  H   H313      1.0  0.30470  0.88343  0.39854  1.0000
  H   H314      1.0  0.16872  0.75822  0.25433  1.0000
  H   H315      1.0  0.15345  0.75895  0.36981  1.0000
  C   C188      1.0  0.27333  0.82565  0.18683  1.0000
  H   H316      1.0  0.28673  0.81330  0.37946  1.0000
  H   H317      1.0  0.26913  0.76379  0.42930  1.0000
  H   H318      1.0  0.30656  0.96428  0.13216  1.0000
  H   H319      1.0  0.19329  0.75783  0.16065  1.0000
  H   H320      1.0  0.25790  0.76090  0.34426  1.0000
  S   S50       1.0  0.20619  0.74692  0.29512  1.0000
  S   S51       1.0  0.32007  0.86537  0.15452  1.0000
  H   H321      1.0  0.31821  0.76134  0.16389  1.0000
  Fe  Fe25      1.0  0.29940  0.88580  0.29934  1.0000
  H   H322      1.0  0.07765  0.95927  0.33039  1.0000
  H   H323      1.0  0.99570  0.75781  0.22261  1.0000
  H   H324      1.0  0.28687  0.94294  0.12171  1.0000
  C   C189      1.0  0.29424  0.78358  0.36079  1.0000
  C   C190      1.0  0.31942  0.92588  0.30523  1.0000
  C   C191      1.0  0.99315  0.80431  0.19920  1.0000
  H   H325      1.0  0.27660  0.81744  0.21803  1.0000
  H   H326      1.0  0.30279  0.76166  0.43631  1.0000
  Fe  Fe26      1.0  0.27265  0.85741  0.29425  1.0000
  N   N14       1.0  0.29409  0.76155  0.37590  1.0000
  H   H327      1.0  0.31251  0.90969  0.14520  1.0000
  C   C192      1.0  0.01397  0.79858  0.19903  1.0000
  H   H328      1.0  0.31830  0.87520  0.44130  1.0000
  H   H329      1.0  0.29623  0.77944  0.11440  1.0000
  C   C193      1.0  0.04339  0.77087  0.99342  1.0000
  H   H330      1.0  0.26046  0.82103  0.17866  1.0000
  H   H331      1.0  0.30583  0.94600  0.07450  1.0000
  C   C194      1.0  0.30018  0.93501  0.10150  1.0000
  C   C195      1.0  0.09249  0.97231  0.23822  1.0000
  H   H332      1.0  0.10368  0.96294  0.21623  1.0000
  C   C196      1.0  0.28769  0.79103  0.13431  1.0000
  H   H333      1.0  0.99924  0.77001  0.31189  1.0000
  S   S52       1.0  0.28158  0.88441  0.25040  1.0000
  H   H334      1.0  0.26101  0.77841  0.16226  1.0000
  N   N15       1.0  0.15933  0.79090  0.16175  1.0000
  C   C197      1.0  0.14985  0.78709  0.12704  1.0000
  C   C198      1.0  0.18149  0.79024  0.14378  1.0000
  C   C199      1.0  0.14913  0.81157  0.17284  1.0000
  C   C200      1.0  0.15582  0.77492  0.19969  1.0000
  C   C201      1.0  0.19404  0.76977  0.13262  1.0000
  C   C202      1.0  0.16105  0.82224  0.19354  1.0000
  C   C203      1.0  0.16648  0.77391  0.23724  1.0000
  H   H335      1.0  0.15320  0.79771  0.09716  1.0000
  H   H336      1.0  0.15633  0.77177  0.11852  1.0000
  H   H337      1.0  0.18933  0.79455  0.16582  1.0000
  H   H338      1.0  0.18334  0.80159  0.11454  1.0000
  H   H339      1.0  0.14548  0.82215  0.14373  1.0000
  H   H340      1.0  0.31448  0.91630  0.21276  1.0000
  C   C204      1.0  0.31794  0.94556  0.31216  1.0000
  C   C205      1.0  0.29831  0.76053  0.29433  1.0000
  C   C206      1.0  0.29193  0.82324  0.15109  1.0000
  H   H341      1.0  0.16715  0.81275  0.22115  1.0000
  H   H342      1.0  0.15084  0.83583  0.20511  1.0000
  H   H343      1.0  0.17367  0.82751  0.16991  1.0000
  H   H344      1.0  0.08183  0.96273  0.25696  1.0000
  H   H345      1.0  0.18185  0.77717  0.22744  1.0000
  H   H346      1.0  0.00536  0.87733  0.18494  1.0000
  C   C207      1.0  0.00523  0.73682  0.27979  1.0000
  H   H347      1.0  0.21021  0.77096  0.12253  1.0000
  H   H348      1.0  0.18957  0.76521  0.10572  1.0000
  C   C208      1.0  0.31414  0.81519  0.06503  1.0000
  H   H349      1.0  0.13944  0.77664  0.21363  1.0000
  H   H350      1.0  0.02381  0.76183  0.92012  1.0000
  H   H351      1.0  0.15721  0.78403  0.26000  1.0000
  H   H352      1.0  0.30960  0.78544  0.34371  1.0000
  S   S53       1.0  0.25545  0.74316  0.26764  1.0000
  S   S54       1.0  0.29859  0.83504  0.26549  1.0000
  N   N16       1.0  0.32425  0.93498  0.15355  1.0000
  C   C209      1.0  0.31954  0.80307  0.10754  1.0000
  C   C210      1.0  0.31730  0.92353  0.12600  1.0000
  H   H353      1.0  0.31887  0.93972  0.21902  1.0000
  H   H354      1.0  0.32170  0.97071  0.19137  1.0000
  H   H355      1.0  0.15438  0.74477  0.42163  1.0000
  C   C211      1.0  0.00090  0.73648  0.37587  1.0000
  C   C212      1.0  0.06670  0.97271  0.34054  1.0000
  C   C213      1.0  0.16114  0.74485  0.38744  1.0000
  H   H356      1.0  0.05802  0.74664  0.03535  1.0000
  H   H357      1.0  0.05117  0.97046  0.34157  1.0000
  S   S55       1.0  0.13540  0.73900  0.10726  1.0000
  H   H358      1.0  0.01074  0.76060  0.97415  1.0000
  H   H359      1.0  0.27329  0.74174  0.40605  1.0000
  H   H360      1.0  0.10128  0.97676  0.35256  1.0000
  S   S56       1.0  0.32229  0.75902  0.05099  1.0000
  H   H361      1.0  0.31888  0.74464  0.33474  1.0000
  H   H362      1.0  0.32061  0.80098  0.19133  1.0000
  H   H363      1.0  0.02226  0.74901  0.21971  1.0000
  C   C214      1.0  0.31937  0.88287  0.40794  1.0000
  H   H364      1.0  0.30256  0.74928  0.27201  1.0000
  H   H365      1.0  0.06770  0.97391  0.37359  1.0000
  H   H366      1.0  0.08408  0.98486  0.21827  1.0000
  H   H367      1.0  0.11689  0.98506  0.24603  1.0000
  H   H368      1.0  0.29610  0.73567  0.34514  1.0000
  Fe  Fe27      1.0  0.36171  0.14085  0.34825  1.0000
  S   S57       1.0  0.35796  0.12047  0.41074  1.0000
  S   S58       1.0  0.38624  0.13301  0.29262  1.0000
  H   H369      1.0  0.47477  0.22044  0.75693  1.0000
  S   S59       1.0  0.36952  0.14667  0.49660  1.0000
  C   C215      1.0  0.43188  0.19372  0.50363  1.0000
  H   H370      1.0  0.48346  0.16688  0.66768  1.0000
  H   H371      1.0  0.42700  0.06901  0.25407  1.0000
  S   S60       1.0  0.36161  0.16775  0.37744  1.0000
  H   H372      1.0  0.35500  0.17185  0.20051  1.0000
  H   H373      1.0  0.42190  0.10423  0.26675  1.0000
  H   H374      1.0  0.38896  0.16142  0.19845  1.0000
  C   C216      1.0  0.39363  0.17475  0.17713  1.0000
  H   H375      1.0  0.37879  0.21829  0.91830  1.0000
  Fe  Fe28      1.0  0.37332  0.03007  0.25424  1.0000
  S   S61       1.0  0.39961  0.04326  0.25869  1.0000
  H   H376      1.0  0.36280  0.07237  0.28496  1.0000
  H   H377      1.0  0.34661  0.14342  0.10172  1.0000
  C   C217      1.0  0.36612  0.03910  0.37367  1.0000
  S   S62       1.0  0.36293  0.00463  0.30160  1.0000
  C   C218      1.0  0.47738  0.15882  0.90301  1.0000
  N   N17       1.0  0.46383  0.17404  0.75021  1.0000
  C   C219      1.0  0.61281  0.20294  0.83419  1.0000
  H   H378      1.0  0.45972  0.18318  0.42914  1.0000
  C   C220      1.0  0.35153  0.21321  0.08009  1.0000
  C   C221      1.0  0.44010  0.16755  0.70398  1.0000
  Fe  Fe29      1.0  0.54183  0.16974  0.75869  1.0000
  C   C222      1.0  0.50732  0.15035  0.83185  1.0000
  H   H379      1.0  0.43494  0.17802  0.40355  1.0000
  H   H380      1.0  0.54928  0.20513  0.87125  1.0000
  C   C223      1.0  0.49728  0.13537  0.85578  1.0000
  H   H381      1.0  0.40059  0.18524  0.22801  1.0000
  C   C224      1.0  0.34205  0.12783  0.19749  1.0000
  H   H382      1.0  0.43619  0.20926  0.43536  1.0000
  C   C225      1.0  0.47627  0.18957  0.74874  1.0000
  C   C226      1.0  0.52547  0.20683  0.60596  1.0000
  Fe  Fe30      1.0  0.32807  0.17424  0.38006  1.0000
  C   C227      1.0  0.37148  0.16998  0.50727  1.0000
  C   C228      1.0  0.37499  0.17149  0.54730  1.0000
  C   C229      1.0  0.37673  0.19002  0.55623  1.0000
  H   H383      1.0  0.50802  0.23291  0.94254  1.0000
  H   H384      1.0  0.38345  0.07861  0.38962  1.0000
  C   C230      1.0  0.36995  0.18698  0.47606  1.0000
  H   H385      1.0  0.37615  0.15834  0.57158  1.0000
  H   H386      1.0  0.37894  0.19120  0.58749  1.0000
  N   N18       1.0  0.37038  0.20181  0.22089  1.0000
  H   H387      1.0  0.36744  0.18590  0.44505  1.0000
  C   C231      1.0  0.38953  0.10795  0.28472  1.0000
  C   C232      1.0  0.37288  0.09887  0.28997  1.0000
  C   C233      1.0  0.37572  0.07916  0.28116  1.0000
  C   C234      1.0  0.39524  0.06823  0.26860  1.0000
  C   C235      1.0  0.41186  0.07732  0.26388  1.0000
  C   C236      1.0  0.40898  0.09724  0.27111  1.0000
  H   H388      1.0  0.50726  0.21877  0.66155  1.0000
  C   C237      1.0  0.45357  0.16941  0.79585  1.0000
  C   C238      1.0  0.44056  0.15326  0.80582  1.0000
  C   C239      1.0  0.40698  0.21857  0.84455  1.0000
  H   H389      1.0  0.44325  0.18303  0.80697  1.0000
  H   H390      1.0  0.44917  0.13857  0.79690  1.0000
  H   H391      1.0  0.42683  0.15850  0.79106  1.0000
  H   H392      1.0  0.43515  0.15065  0.84084  1.0000
  H   H393      1.0  0.33536  0.20185  0.54499  1.0000
  H   H394      1.0  0.38714  0.01146  0.35955  1.0000
  H   H395      1.0  0.47055  0.14316  0.73672  1.0000
  H   H396      1.0  0.39804  0.05350  0.38521  1.0000
  H   H397      1.0  0.36539  0.06349  0.14527  1.0000
  H   H398      1.0  0.50751  0.18799  0.53574  1.0000
  C   C240      1.0  0.37179  0.20548  0.48488  1.0000
  H   H399      1.0  0.34399  0.21575  0.86785  1.0000
  H   H400      1.0  0.38152  0.13404  0.09925  1.0000
  C   C241      1.0  0.42820  0.16503  0.47182  1.0000
  C   C242      1.0  0.37770  0.18813  0.04680  1.0000
  H   H401      1.0  0.51020  0.18125  0.82510  1.0000
  C   C243      1.0  0.48250  0.13954  0.89156  1.0000
  H   H402      1.0  0.40863  0.13095  0.12672  1.0000
  H   H403      1.0  0.48431  0.17005  0.50150  1.0000
  C   C244      1.0  0.36675  0.19163  0.92574  1.0000
  H   H404      1.0  0.42051  0.14420  0.55418  1.0000
  C   C245      1.0  0.35918  0.21192  0.18494  1.0000
  H   H405      1.0  0.44794  0.16575  0.67088  1.0000
  H   H406      1.0  0.47490  0.12782  0.91023  1.0000
  H   H407      1.0  0.50253  0.18873  0.99980  1.0000
  H   H408      1.0  0.36840  0.14046  0.16873  1.0000
  H   H409      1.0  0.44030  0.15266  0.72378  1.0000
  C   C246      1.0  0.48724  0.17394  0.87878  1.0000
  H   H410      1.0  0.42499  0.11222  0.15629  1.0000
  S   S63       1.0  0.45866  0.16335  0.94783  1.0000
  C   C247      1.0  0.46179  0.17375  0.46005  1.0000
  H   H411      1.0  0.41766  0.16795  0.57296  1.0000
  H   H412      1.0  0.43886  0.19674  0.52890  1.0000
  S   S64       1.0  0.32710  0.00885  0.24525  1.0000
  H   H413      1.0  0.45619  0.16474  0.54692  1.0000
  H   H414      1.0  0.46871  0.15841  0.45174  1.0000
  C   C248      1.0  0.43216  0.21236  0.46849  1.0000
  H   H415      1.0  0.41236  0.19170  0.43443  1.0000
  N   N19       1.0  0.44204  0.17340  0.49076  1.0000
  H   H416      1.0  0.41230  0.16837  0.41956  1.0000
  H   H417      1.0  0.41587  0.19377  0.51867  1.0000
  C   C249      1.0  0.42849  0.15418  0.56434  1.0000
  C   C250      1.0  0.44681  0.15892  0.53022  1.0000
  H   H418      1.0  0.45601  0.14424  0.52161  1.0000
  C   C251      1.0  0.37452  0.12055  0.10609  1.0000
  H   H419      1.0  0.41372  0.16426  0.49427  1.0000
  H   H420      1.0  0.39007  0.06841  0.13816  1.0000
  H   H421      1.0  0.45542  0.19197  0.69238  1.0000
  S   S65       1.0  0.52681  0.20112  0.73533  1.0000
  H   H422      1.0  0.43513  0.14926  0.46632  1.0000
  H   H423      1.0  0.41296  0.21048  0.87246  1.0000
  H   H424      1.0  0.39354  0.18150  0.03800  1.0000
  H   H425      1.0  0.47202  0.19590  0.48716  1.0000
  H   H426      1.0  0.43396  0.14595  0.59389  1.0000
  C   C252      1.0  0.42192  0.17673  0.42987  1.0000
  H   H427      1.0  0.65426  0.17945  0.74651  1.0000
  C   C253      1.0  0.50032  0.19392  0.96637  1.0000
  C   C254      1.0  0.38447  0.21158  0.28015  1.0000
  H   H428      1.0  0.37150  0.12078  0.21205  1.0000
  S   S66       1.0  0.41327  0.20591  0.96288  1.0000
  H   H429      1.0  0.37062  0.21861  0.46059  1.0000
  C   C255      1.0  0.38813  0.06346  0.40757  1.0000
  H   H430      1.0  0.48326  0.18889  0.88724  1.0000
  H   H431      1.0  0.41686  0.22223  0.47170  1.0000
  S   S67       1.0  0.37252  0.01678  0.19686  1.0000
  Fe  Fe31      1.0  0.55304  0.19914  0.68110  1.0000
  H   H432      1.0  0.40984  0.16995  0.16323  1.0000
  H   H433      1.0  0.51760  0.19345  0.90272  1.0000
  N   N20       1.0  0.37499  0.11048  0.15148  1.0000
  C   C256      1.0  0.34513  0.07168  0.38827  1.0000
  H   H434      1.0  0.50779  0.21619  0.01654  1.0000
  H   H435      1.0  0.40601  0.19165  0.82144  1.0000
  H   H436      1.0  0.35753  0.20109  0.16562  1.0000
  H   H437      1.0  0.33659  0.14001  0.21742  1.0000
  H   H438      1.0  0.33798  0.11405  0.21816  1.0000
  H   H439      1.0  0.35535  0.12926  0.05788  1.0000
  H   H440      1.0  0.39755  0.06526  0.42975  1.0000
  H   H441      1.0  0.52892  0.17683  0.94382  1.0000
  S   S68       1.0  0.61678  0.16960  0.74209  1.0000
  C   C257      1.0  0.36286  0.17972  0.03729  1.0000
  Fe  Fe32      1.0  0.44676  0.19539  0.95808  1.0000
  H   H442      1.0  0.49964  0.14347  0.68342  1.0000
  N   N21       1.0  0.35525  0.05142  0.40840  1.0000
  Fe  Fe33      1.0  0.35500  0.14813  0.44002  1.0000
  C   C258      1.0  0.39157  0.19200  0.20244  1.0000
  H   H443      1.0  0.36597  0.08526  0.19627  1.0000
  H   H444      1.0  0.34311  0.11788  0.10619  1.0000
  H   H445      1.0  0.36725  0.16674  0.02087  1.0000
  Fe  Fe34      1.0  0.43781  0.21505  0.60553  1.0000
  C   C259      1.0  0.64750  0.19739  0.79721  1.0000
  C   C260      1.0  0.60796  0.19175  0.80766  1.0000
  C   C261      1.0  0.50735  0.19492  0.56297  1.0000
  C   C262      1.0  0.50248  0.16961  0.84358  1.0000
  C   C263      1.0  0.63245  0.20625  0.82817  1.0000
  H   H446      1.0  0.44244  0.22159  0.47335  1.0000
  S   S69       1.0  0.39194  0.20494  0.74195  1.0000
  C   C264      1.0  0.56561  0.18161  0.91200  1.0000
  H   H447      1.0  0.39960  0.20347  0.18102  1.0000
  C   C265      1.0  0.32707  0.22403  0.94964  1.0000
  H   H448      1.0  0.36455  0.21166  0.96928  1.0000
  H   H449      1.0  0.60118  0.20966  0.85830  1.0000
  S   S70       1.0  0.34247  0.04901  0.25604  1.0000
  H   H450      1.0  0.35519  0.18400  0.94758  1.0000
  C   C266      1.0  0.50731  0.21205  0.63416  1.0000
  H   H451      1.0  0.55328  0.21049  0.97656  1.0000
  C   C267      1.0  0.34236  0.18810  0.04923  1.0000
  C   C268      1.0  0.37199  0.21823  0.24394  1.0000
  H   H452      1.0  0.37979  0.19870  0.30311  1.0000
  S   S71       1.0  0.55985  0.17911  0.79790  1.0000
  H   H453      1.0  0.50434  0.16611  0.69393  1.0000
  S   S72       1.0  0.54823  0.21122  0.61419  1.0000
  C   C269      1.0  0.37514  0.20703  0.52496  1.0000
  H   H454      1.0  0.38420  0.11087  0.08273  1.0000
  H   H455      1.0  0.35087  0.15863  0.25306  1.0000
  C   C270      1.0  0.37428  0.07559  0.13459  1.0000
  S   S73       1.0  0.46701  0.19508  0.58141  1.0000
  C   C271      1.0  0.64268  0.18599  0.77097  1.0000
  C   C272      1.0  0.36523  0.09229  0.16261  1.0000
  H   H456      1.0  0.55902  0.17028  0.90262  1.0000
  C   C273      1.0  0.62284  0.18328  0.77594  1.0000
  C   C274      1.0  0.46477  0.20926  0.76585  1.0000
  H   H457      1.0  0.46501  0.16466  0.81715  1.0000
  S   S74       1.0  0.56665  0.16682  0.70168  1.0000
  H   H458      1.0  0.49076  0.18303  0.44915  1.0000
  H   H459      1.0  0.34888  0.09632  0.16145  1.0000
  C   C275      1.0  0.47793  0.18114  0.47585  1.0000
  H   H460      1.0  0.38541  0.17927  0.14998  1.0000
  C   C276      1.0  0.44855  0.18266  0.72121  1.0000
  H   H461      1.0  0.35775  0.10721  0.29986  1.0000
  H   H462      1.0  0.48837  0.14883  0.76065  1.0000
  Fe  Fe35      1.0  0.42105  0.23485  0.92726  1.0000
  S   S75       1.0  0.40998  0.20187  0.62339  1.0000
  C   C277      1.0  0.37202  0.20495  0.06799  1.0000
  H   H463      1.0  0.42400  0.17396  0.70164  1.0000
  H   H464      1.0  0.37567  0.04043  0.45385  1.0000
  H   H465      1.0  0.38203  0.22426  0.29834  1.0000
  H   H466      1.0  0.37045  0.17637  0.27160  1.0000
  C   C278      1.0  0.36981  0.05465  0.43377  1.0000
  C   C279      1.0  0.52538  0.19855  0.57004  1.0000
  C   C280      1.0  0.33788  0.22434  0.19837  1.0000
  H   H467      1.0  0.35513  0.03567  0.35706  1.0000
  H   H468      1.0  0.38161  0.18275  0.93277  1.0000
  H   H469      1.0  0.48889  0.18304  0.76668  1.0000
  H   H470      1.0  0.39180  0.02047  0.40325  1.0000
  H   H471      1.0  0.39816  0.09265  0.18652  1.0000
  S   S76       1.0  0.57287  0.21108  0.71202  1.0000
  H   H472      1.0  0.37586  0.04773  0.34869  1.0000
  C   C281      1.0  0.52070  0.19248  0.93544  1.0000
  C   C282      1.0  0.48916  0.20040  0.59069  1.0000
  H   H473      1.0  0.35620  0.07898  0.36423  1.0000
  C   C283      1.0  0.35361  0.12824  0.09298  1.0000
  H   H474      1.0  0.58077  0.18119  0.89155  1.0000
  C   C284      1.0  0.47834  0.15540  0.73688  1.0000
  H   H475      1.0  0.48366  0.19426  0.71557  1.0000
  C   C285      1.0  0.39691  0.10316  0.15617  1.0000
  H   H476      1.0  0.40351  0.12698  0.18457  1.0000
  S   S77       1.0  0.52500  0.14496  0.78608  1.0000
  C   C286      1.0  0.36512  0.12527  0.18229  1.0000
  Fe  Fe36      1.0  0.58369  0.17904  0.73892  1.0000
  C   C287      1.0  0.49206  0.15840  0.69283  1.0000
  C   C288      1.0  0.40889  0.11952  0.15572  1.0000
  C   C289      1.0  0.48906  0.20936  0.62585  1.0000
  H   H477      1.0  0.43549  0.19304  0.73716  1.0000
  C   C290      1.0  0.37955  0.01874  0.38806  1.0000
  H   H478      1.0  0.49180  0.18349  0.95955  1.0000
  H   H479      1.0  0.50100  0.12048  0.84675  1.0000
  H   H480      1.0  0.37056  0.00831  0.40979  1.0000
  H   H481      1.0  0.35671  0.22577  0.25892  1.0000
  H   H482      1.0  0.37328  0.08112  0.10062  1.0000
  H   H483      1.0  0.40552  0.09433  0.13041  1.0000
  Fe  Fe37      1.0  0.54774  0.21032  0.76818  1.0000
  C   C291      1.0  0.40318  0.20791  0.81556  1.0000
  C   C292      1.0  0.55261  0.20298  0.90403  1.0000
  N   N22       1.0  0.34660  0.22858  0.92215  1.0000
  H   H484      1.0  0.53939  0.19453  0.54819  1.0000
  C   C293      1.0  0.39600  0.21829  0.77870  1.0000
  H   H485      1.0  0.56795  0.17714  0.94544  1.0000
  C   C294      1.0  0.35971  0.18684  0.25240  1.0000
  C   C295      1.0  0.34913  0.17390  0.23403  1.0000
  H   H486      1.0  0.59267  0.18981  0.81171  1.0000
  H   H487      1.0  0.46095  0.20690  0.80119  1.0000
  H   H488      1.0  0.33356  0.13209  0.17096  1.0000
  C   C296      1.0  0.34697  0.22969  0.87520  1.0000
  C   C297      1.0  0.36457  0.21318  0.93463  1.0000
  H   H489      1.0  0.36797  0.22229  0.16195  1.0000
  S   S78       1.0  0.37669  0.23050  0.53538  1.0000
  S   S79       1.0  0.45467  0.22355  0.91691  1.0000
  H   H490      1.0  0.49063  0.20911  0.96303  1.0000
  Fe  Fe38      1.0  0.34038  0.03377  0.20280  1.0000
  H   H491      1.0  0.47503  0.21395  0.64691  1.0000
  H   H492      1.0  0.33945  0.08211  0.41214  1.0000
  H   H493      1.0  0.45088  0.21606  0.75222  1.0000
  H   H494      1.0  0.34760  0.02608  0.45472  1.0000
  H   H495      1.0  0.36235  0.23079  0.85674  1.0000
  H   H496      1.0  0.54067  0.19007  0.99523  1.0000
  C   C298      1.0  0.53851  0.20601  0.97932  1.0000
  H   H497      1.0  0.34771  0.19476  0.27587  1.0000
  H   H498      1.0  0.36193  0.06528  0.45669  1.0000
  Fe  Fe39      1.0  0.39526  0.22971  0.58498  1.0000
  S   S80       1.0  0.44758  0.20474  0.01989  1.0000
  Fe  Fe40      1.0  0.40181  0.22047  0.67620  1.0000
  N   N23       1.0  0.53328  0.20760  0.93580  1.0000
  Fe  Fe41      1.0  0.45256  0.23398  0.97934  1.0000
  Fe  Fe42      1.0  0.41472  0.21775  0.02111  1.0000
  S   S81       1.0  0.39036  0.21599  0.07885  1.0000
  H   H499      1.0  0.36678  0.19087  0.89202  1.0000
  H   H500      1.0  0.33253  0.20929  0.46743  1.0000
  S   S82       1.0  0.32607  0.05279  0.14883  1.0000
  C   C299      1.0  0.52338  0.21870  0.01129  1.0000
  H   H501      1.0  0.51704  0.22850  0.88994  1.0000
  H   H502      1.0  0.62134  0.21712  0.69674  1.0000
  C   C300      1.0  0.33672  0.20477  0.07082  1.0000
  H   H503      1.0  0.40094  0.20794  0.26750  1.0000
  C   C301      1.0  0.33994  0.04040  0.43778  1.0000
  C   C302      1.0  0.64733  0.14957  0.87590  1.0000
  H   H504      1.0  0.34709  0.22638  0.09590  1.0000
  H   H505      1.0  0.33260  0.17990  0.23802  1.0000
  H   H506      1.0  0.33246  0.06265  0.33955  1.0000
  H   H507      1.0  0.63640  0.14424  0.86232  1.0000
  H   H508      1.0  0.64784  0.14099  0.90819  1.0000
  S   S83       1.0  0.32868  0.14902  0.34511  1.0000
  S   S84       1.0  0.43098  0.23157  0.66139  1.0000
  H   H509      1.0  0.52831  0.21463  0.04271  1.0000
  S   S85       1.0  0.63756  0.22276  0.85701  1.0000
  H   H510      1.0  0.32958  0.21671  0.22741  1.0000
  H   H511      1.0  0.32894  0.22661  0.17260  1.0000
  H   H512      1.0  0.33030  0.03587  0.41940  1.0000
  Fe  Fe43      1.0  0.33166  0.02271  0.29853  1.0000
  H   H513      1.0  0.64106  0.16575  0.87796  1.0000
  H   H514      1.0  0.37861  0.23025  0.22106  1.0000
  C   C303      1.0  0.52217  0.22835  0.92025  1.0000
  H   H515      1.0  0.56271  0.21354  0.90291  1.0000
  Fe  Fe44      1.0  0.35941  0.99289  0.24458  1.0000
  H   H516      1.0  0.32948  0.21719  0.98246  1.0000
  H   H517      1.0  0.33414  0.05520  0.49510  1.0000
  C   C304      1.0  0.32762  0.07187  0.36557  1.0000
  H   H518      1.0  0.52292  0.23506  0.00158  1.0000
  H   H519      1.0  0.32638  0.19583  0.92695  1.0000
  H   H520      1.0  0.32542  0.18030  0.50475  1.0000
  H   H521      1.0  0.62002  0.23226  0.76027  1.0000
  C   C305      1.0  0.62067  0.23353  0.69441  1.0000
  H   H522      1.0  0.59602  0.23359  0.74742  1.0000
  H   H523      1.0  0.32736  0.98603  0.14153  1.0000
  C   C306      1.0  0.32575  0.05184  0.47277  1.0000
  C   C307      1.0  0.33204  0.24750  0.85548  1.0000
  H   H524      1.0  0.38660  0.24736  0.74274  1.0000
  H   H525      1.0  0.46410  0.32737  0.61685  1.0000
  H   H526      1.0  0.44289  0.32240  0.87993  1.0000
  H   H527      1.0  0.46068  0.27416  0.55870  1.0000
  Fe  Fe45      1.0  0.41455  0.25691  0.61948  1.0000
  S   S86       1.0  0.41927  0.28868  0.60738  1.0000
  H   H528      1.0  0.43682  0.28362  0.92422  1.0000
  C   C308      1.0  0.58485  0.25581  0.81683  1.0000
  H   H529      1.0  0.47773  0.30426  0.56409  1.0000
  H   H530      1.0  0.44556  0.29879  0.84406  1.0000
  H   H531      1.0  0.36091  0.45483  0.75665  1.0000
  H   H532      1.0  0.41393  0.28110  0.91441  1.0000
  C   C309      1.0  0.48106  0.29267  0.89206  1.0000
  H   H533      1.0  0.48609  0.28417  0.01103  1.0000
  C   C310      1.0  0.39484  0.24995  0.80145  1.0000
  C   C311      1.0  0.53114  0.26704  0.58245  1.0000
  C   C312      1.0  0.47649  0.31439  0.62363  1.0000
  C   C313      1.0  0.48577  0.30781  0.90903  1.0000
  H   H534      1.0  0.41858  0.35427  0.89710  1.0000
  C   C314      1.0  0.42492  0.29107  0.90488  1.0000
  H   H535      1.0  0.37310  0.31167  0.95803  1.0000
  C   C315      1.0  0.43489  0.44886  0.80219  1.0000
  C   C316      1.0  0.34917  0.24874  0.92930  1.0000
  C   C317      1.0  0.40207  0.32423  0.88520  1.0000
  C   C318      1.0  0.53417  0.24539  0.91258  1.0000
  H   H536      1.0  0.45148  0.39774  0.91511  1.0000
  C   C319      1.0  0.46908  0.26093  0.57738  1.0000
  H   H537      1.0  0.54517  0.24513  0.88222  1.0000
  C   C320      1.0  0.43417  0.28940  0.85769  1.0000
  H   H538      1.0  0.42054  0.34610  0.95305  1.0000
  H   H539      1.0  0.37097  0.32206  0.88398  1.0000
  Fe  Fe46      1.0  0.46925  0.37381  0.74569  1.0000
  S   S87       1.0  0.46459  0.35476  0.70127  1.0000
  C   C321      1.0  0.38569  0.30146  0.97217  1.0000
  S   S88       1.0  0.47480  0.31618  0.77646  1.0000
  Fe  Fe47      1.0  0.49209  0.33362  0.72125  1.0000
  S   S89       1.0  0.51706  0.31574  0.67925  1.0000
  Fe  Fe48      1.0  0.44782  0.33916  0.76056  1.0000
  S   S90       1.0  0.41917  0.32813  0.76709  1.0000
  S   S91       1.0  0.49836  0.35396  0.76033  1.0000
  C   C322      1.0  0.47146  0.26442  0.67607  1.0000
  C   C323      1.0  0.47755  0.27467  0.91841  1.0000
  C   C324      1.0  0.41758  0.44100  0.82084  1.0000
  C   C325      1.0  0.41551  0.42290  0.81071  1.0000
  C   C326      1.0  0.43078  0.41266  0.78198  1.0000
  H   H540      1.0  0.40212  0.41680  0.82504  1.0000
  H   H541      1.0  0.42901  0.39885  0.77372  1.0000
  H   H542      1.0  0.50458  0.39952  0.91755  1.0000
  S   S92       1.0  0.45026  0.35982  0.80373  1.0000
  H   H543      1.0  0.39984  0.32560  0.97116  1.0000
  H   H544      1.0  0.38254  0.43665  0.69579  1.0000
  C   C327      1.0  0.53364  0.25830  0.76989  1.0000
  C   C328      1.0  0.53585  0.25775  0.72631  1.0000
  C   C329      1.0  0.53233  0.27564  0.69796  1.0000
  C   C330      1.0  0.52558  0.29400  0.71331  1.0000
  C   C331      1.0  0.52385  0.29462  0.75676  1.0000
  C   C332      1.0  0.52796  0.27677  0.78507  1.0000
  S   S93       1.0  0.42398  0.24124  0.56197  1.0000
  H   H545      1.0  0.53410  0.27515  0.66442  1.0000
  H   H546      1.0  0.51906  0.30885  0.76874  1.0000
  H   H547      1.0  0.52632  0.27727  0.81875  1.0000
  H   H548      1.0  0.47996  0.29486  0.85885  1.0000
  C   C333      1.0  0.37734  0.45505  0.74754  1.0000
  H   H549      1.0  0.33863  0.23948  0.20392  1.0000
  H   H550      1.0  0.63152  0.30088  0.69228  1.0000
  S   S94       1.0  0.40418  0.25324  0.87664  1.0000
  H   H551      1.0  0.59847  0.28110  0.79000  1.0000
  H   H552      1.0  0.38111  0.46813  0.65848  1.0000
  H   H553      1.0  0.47371  0.26309  0.90533  1.0000
  C   C334      1.0  0.49159  0.26977  0.65069  1.0000
  H   H554      1.0  0.44292  0.38583  0.88146  1.0000
  N   N24       1.0  0.41574  0.31199  0.91527  1.0000
  N   N25       1.0  0.38073  0.47488  0.72094  1.0000
  H   H555      1.0  0.43684  0.46256  0.81061  1.0000
  C   C335      1.0  0.47634  0.29767  0.59845  1.0000
  H   H556      1.0  0.34107  0.24347  0.99979  1.0000
  S   S95       1.0  0.47391  0.24997  0.99617  1.0000
  H   H557      1.0  0.58569  0.23990  0.81430  1.0000
  H   H558      1.0  0.38055  0.29979  0.00727  1.0000
  C   C336      1.0  0.41871  0.29940  0.65241  1.0000
  C   C337      1.0  0.42391  0.31826  0.64655  1.0000
  C   C338      1.0  0.42454  0.32689  0.68174  1.0000
  C   C339      1.0  0.41933  0.31695  0.72297  1.0000
  C   C340      1.0  0.41386  0.29819  0.72896  1.0000
  C   C341      1.0  0.41377  0.28927  0.69367  1.0000
  H   H559      1.0  0.42757  0.32617  0.61467  1.0000
  H   H560      1.0  0.52873  0.47073  0.68728  1.0000
  H   H561      1.0  0.41001  0.29047  0.76091  1.0000
  H   H562      1.0  0.40978  0.27466  0.69839  1.0000
  H   H563      1.0  0.36218  0.25364  0.90615  1.0000
  C   C342      1.0  0.48791  0.30450  0.95177  1.0000
  C   C343      1.0  0.60981  0.24024  0.73753  1.0000
  H   H564      1.0  0.49705  0.26810  0.54385  1.0000
  H   H565      1.0  0.49068  0.32025  0.61396  1.0000
  H   H566      1.0  0.59917  0.27669  0.65580  1.0000
  H   H567      1.0  0.56969  0.26466  0.81186  1.0000
  C   C344      1.0  0.50973  0.38878  0.84104  1.0000
  S   S96       1.0  0.46798  0.40722  0.72996  1.0000
  H   H568      1.0  0.38201  0.42278  0.74822  1.0000
  H   H569      1.0  0.41132  0.32972  0.85453  1.0000
  H   H570      1.0  0.60471  0.30345  0.70282  1.0000
  C   C345      1.0  0.50049  0.46770  0.64005  1.0000
  H   H571      1.0  0.47986  0.36607  0.92909  1.0000
  H   H572      1.0  0.47077  0.24876  0.67401  1.0000
  C   C346      1.0  0.45178  0.39735  0.88120  1.0000
  C   C347      1.0  0.40491  0.31052  0.96101  1.0000
  H   H573      1.0  0.52290  0.39129  0.85258  1.0000
  C   C348      1.0  0.51356  0.39515  0.79219  1.0000
  H   H574      1.0  0.50535  0.43781  0.67799  1.0000
  H   H575      1.0  0.53230  0.25611  0.61200  1.0000
  H   H576      1.0  0.33570  0.26066  0.92340  1.0000
  H   H577      1.0  0.61882  0.29920  0.74608  1.0000
  S   S97       1.0  0.39846  0.45388  0.85637  1.0000
  H   H578      1.0  0.57868  0.28730  0.73470  1.0000
  C   C349      1.0  0.43323  0.32224  0.91202  1.0000
  H   H579      1.0  0.58607  0.25627  0.85014  1.0000
  N   N26       1.0  0.49229  0.27881  0.60440  1.0000
  H   H580      1.0  0.53108  0.25888  0.55626  1.0000
  H   H581      1.0  0.49171  0.31605  0.96501  1.0000
  H   H582      1.0  0.51282  0.29433  0.55613  1.0000
  H   H583      1.0  0.50721  0.36241  0.91664  1.0000
  C   C350      1.0  0.40327  0.47379  0.70917  1.0000
  C   C351      1.0  0.48468  0.28648  0.97784  1.0000
  C   C352      1.0  0.42788  0.34437  0.91978  1.0000
  H   H584      1.0  0.47026  0.26572  0.71012  1.0000
  H   H585      1.0  0.44379  0.41201  0.86659  1.0000
  H   H586      1.0  0.50102  0.39378  0.77752  1.0000
  H   H587      1.0  0.42243  0.29308  0.83746  1.0000
  H   H588      1.0  0.44221  0.34993  0.91428  1.0000
  H   H589      1.0  0.47165  0.39645  0.82136  1.0000
  H   H590      1.0  0.46348  0.44476  0.75944  1.0000
  H   H591      1.0  0.54000  0.24358  0.71434  1.0000
  H   H592      1.0  0.38811  0.28626  0.96346  1.0000
  C   C353      1.0  0.44810  0.42052  0.76340  1.0000
  H   H593      1.0  0.36791  0.24205  0.97934  1.0000
  C   C354      1.0  0.47900  0.27176  0.96156  1.0000
  H   H594      1.0  0.49619  0.27958  0.66871  1.0000
  H   H595      1.0  0.46088  0.29451  0.60721  1.0000
  C   C355      1.0  0.39217  0.23930  0.77123  1.0000
  H   H596      1.0  0.46005  0.25792  0.60940  1.0000
  H   H597      1.0  0.61276  0.24112  0.66781  1.0000
  H   H598      1.0  0.61629  0.25827  0.79859  1.0000
  H   H599      1.0  0.38745  0.29789  0.88839  1.0000
  H   H600      1.0  0.52737  0.38508  0.77785  1.0000
  C   C356      1.0  0.38710  0.43593  0.72677  1.0000
  C   C357      1.0  0.58484  0.27415  0.67668  1.0000
  C   C358      1.0  0.49048  0.26378  0.57798  1.0000
  H   H601      1.0  0.33062  0.24470  0.82382  1.0000
  H   H602      1.0  0.46888  0.48540  0.69741  1.0000
  H   H603      1.0  0.51088  0.37216  0.84644  1.0000
  H   H604      1.0  0.51704  0.46396  0.62831  1.0000
  S   S98       1.0  0.48772  0.33156  0.87905  1.0000
  Fe  Fe49      1.0  0.47896  0.33815  0.81436  1.0000
  C   C359      1.0  0.38665  0.31382  0.87409  1.0000
  H   H605      1.0  0.40383  0.43264  0.72301  1.0000
  C   C360      1.0  0.58499  0.27221  0.72466  1.0000
  H   H606      1.0  0.42857  0.34147  0.67699  1.0000
  H   H607      1.0  0.47369  0.30937  0.65856  1.0000
  H   H608      1.0  0.58064  0.26074  0.66953  1.0000
  H   H609      1.0  0.54522  0.27319  0.57398  1.0000
  H   H610      1.0  0.45790  0.27482  0.66654  1.0000
  N   N27       1.0  0.49000  0.39919  0.86522  1.0000
  C   C361      1.0  0.49315  0.37196  0.93135  1.0000
  C   C362      1.0  0.49137  0.39438  0.91189  1.0000
  C   C363      1.0  0.48783  0.42159  0.85036  1.0000
  H   H611      1.0  0.41547  0.30153  0.98248  1.0000
  C   C364      1.0  0.49581  0.45297  0.68136  1.0000
  H   H612      1.0  0.47674  0.37471  0.85742  1.0000
  C   C365      1.0  0.47334  0.43585  0.87990  1.0000
  H   H613      1.0  0.49371  0.37030  0.96577  1.0000
  H   H614      1.0  0.44194  0.27357  0.85516  1.0000
  H   H615      1.0  0.51594  0.29385  0.60906  1.0000
  H   H616      1.0  0.47814  0.40269  0.93183  1.0000
  C   C366      1.0  0.51267  0.28463  0.58783  1.0000
  H   H617      1.0  0.50276  0.42608  0.84537  1.0000
  H   H618      1.0  0.48295  0.42570  0.81879  1.0000
  H   H619      1.0  0.39325  0.33812  0.89804  1.0000
  H   H620      1.0  0.54239  0.24467  0.93869  1.0000
  H   H621      1.0  0.63599  0.26528  0.72964  1.0000
  H   H622      1.0  0.51629  0.41073  0.78308  1.0000
  H   H623      1.0  0.41016  0.46993  0.73845  1.0000
  C   C367      1.0  0.62207  0.27230  0.71586  1.0000
  H   H624      1.0  0.38890  0.31437  0.83902  1.0000
  H   H625      1.0  0.50308  0.25561  0.65398  1.0000
  H   H626      1.0  0.45807  0.43238  0.89022  1.0000
  H   H627      1.0  0.47142  0.45146  0.86234  1.0000
  H   H628      1.0  0.47980  0.43600  0.90825  1.0000
  H   H629      1.0  0.62631  0.26973  0.68221  1.0000
  H   H630      1.0  0.44331  0.31376  0.93484  1.0000
  H   H631      1.0  0.52352  0.26017  0.90970  1.0000
  C   C368      1.0  0.60195  0.26496  0.78609  1.0000
  C   C369      1.0  0.45002  0.43874  0.77319  1.0000
  H   H632      1.0  0.57315  0.26348  0.74088  1.0000
  H   H633      1.0  0.49874  0.45785  0.70961  1.0000
  N   N28       1.0  0.60466  0.26255  0.73982  1.0000
  C   C370      1.0  0.61873  0.29525  0.71465  1.0000
  C   C371      1.0  0.47316  0.39138  0.85523  1.0000
  H   H634      1.0  0.39101  0.26621  0.79654  1.0000
  H   H635      1.0  0.49950  0.24872  0.58800  1.0000
  H   H636      1.0  0.47982  0.45126  0.68704  1.0000
  S   S99       1.0  0.38449  0.24747  0.63952  1.0000
  S   S100      1.0  0.41957  0.24788  0.98610  1.0000
  Fe  Fe50      1.0  0.40455  0.48456  0.85346  1.0000
  H   H637      1.0  0.57334  0.28761  0.66745  1.0000
  H   H638      1.0  0.38288  0.45289  0.77818  1.0000
  H   H639      1.0  0.33571  0.24341  0.44234  1.0000
  C   C372      1.0  0.40232  0.23962  0.83802  1.0000
  H   H640      1.0  0.47038  0.24777  0.56128  1.0000
  H   H641      1.0  0.35669  0.47271  0.69003  1.0000
  H   H642      1.0  0.49351  0.46381  0.61561  1.0000
  H   H643      1.0  0.34364  0.48149  0.78692  1.0000
  H   H644      1.0  0.41066  0.46159  0.68978  1.0000
  S   S101      1.0  0.53876  0.23601  0.80508  1.0000
  C   C373      1.0  0.35240  0.24981  0.97433  1.0000
  C   C374      1.0  0.37138  0.47787  0.68171  1.0000
  H   H645      1.0  0.33786  0.26165  0.84995  1.0000
  H   H646      1.0  0.35093  0.26579  0.97777  1.0000
  H   H647      1.0  0.52222  0.48326  0.56588  1.0000
  H   H648      1.0  0.33649  0.23634  0.51658  1.0000
  H   H649      1.0  0.63659  0.23561  0.68684  1.0000
  H   H650      1.0  0.33109  0.60564  0.23444  1.0000
  Fe  Fe51      1.0  0.40672  0.51903  0.89603  1.0000
  S   S102      1.0  0.38099  0.51004  0.87741  1.0000
  S   S103      1.0  0.40143  0.52918  0.95984  1.0000
  Fe  Fe52      1.0  0.43553  0.51037  0.81474  1.0000
  S   S104      1.0  0.41228  0.50145  0.78836  1.0000
  H   H651      1.0  0.39497  0.58805  0.82422  1.0000
  Fe  Fe53      1.0  0.39076  0.52756  0.81415  1.0000
  S   S105      1.0  0.36763  0.54500  0.77521  1.0000
  H   H652      1.0  0.34152  0.71191  0.04506  1.0000
  S   S106      1.0  0.41486  0.53864  0.83395  1.0000
  H   H653      1.0  0.42764  0.71878  0.97641  1.0000
  Fe  Fe54      1.0  0.53998  0.53932  0.85553  1.0000
  S   S107      1.0  0.56720  0.54835  0.81139  1.0000
  S   S108      1.0  0.53332  0.50824  0.87371  1.0000
  Fe  Fe55      1.0  0.52269  0.58118  0.87822  1.0000
  S   S109      1.0  0.54843  0.59418  0.83686  1.0000
  S   S110      1.0  0.49509  0.59705  0.91820  1.0000
  Fe  Fe56      1.0  0.54535  0.57594  0.78923  1.0000
  S   S111      1.0  0.54537  0.59102  0.72158  1.0000
  Fe  Fe57      1.0  0.56798  0.56563  0.86275  1.0000
  S   S112      1.0  0.51792  0.56536  0.82849  1.0000
  S   S113      1.0  0.54247  0.55428  0.90867  1.0000
  Fe  Fe58      1.0  0.46869  0.58493  0.49998  1.0000
  S   S114      1.0  0.48616  0.59518  0.53956  1.0000
  S   S115      1.0  0.46899  0.59409  0.42990  1.0000
  Fe  Fe59      1.0  0.44456  0.56290  0.57570  1.0000
  S   S116      1.0  0.45946  0.57114  0.62268  1.0000
  S   S117      1.0  0.41924  0.54591  0.59128  1.0000
  Fe  Fe60      1.0  0.45624  0.60153  0.58303  1.0000
  S   S118      1.0  0.44740  0.62972  0.61223  1.0000
  Fe  Fe61      1.0  0.48827  0.56396  0.57618  1.0000
  S   S119      1.0  0.51546  0.54558  0.60337  1.0000
  S   S120      1.0  0.43857  0.59415  0.54041  1.0000
  S   S121      1.0  0.47363  0.55281  0.53220  1.0000
  Fe  Fe62      1.0  0.37453  0.65246  0.80072  1.0000
  S   S122      1.0  0.38571  0.68139  0.78911  1.0000
  S   S123      1.0  0.36756  0.63830  0.75027  1.0000
  Fe  Fe63      1.0  0.38048  0.64271  0.89311  1.0000
  S   S124      1.0  0.39248  0.67053  0.88887  1.0000
  S   S125      1.0  0.37598  0.62327  0.95699  1.0000
  Fe  Fe64      1.0  0.36728  0.68575  0.85341  1.0000
  Fe  Fe65      1.0  0.40975  0.66334  0.82538  1.0000
  S   S126      1.0  0.44265  0.66383  0.80383  1.0000
  S   S127      1.0  0.35376  0.65837  0.86238  1.0000
  S   S128      1.0  0.39999  0.63413  0.83243  1.0000
  C   C375      1.0  0.45415  0.61841  0.42171  1.0000
  C   C376      1.0  0.45303  0.63216  0.44899  1.0000
  C   C377      1.0  0.44119  0.65157  0.44255  1.0000
  C   C378      1.0  0.42975  0.65706  0.40990  1.0000
  C   C379      1.0  0.43070  0.64328  0.38280  1.0000
  C   C380      1.0  0.44313  0.62406  0.38832  1.0000
  H   H654      1.0  0.46166  0.62796  0.47454  1.0000
  H   H655      1.0  0.42148  0.65713  0.09809  1.0000
  H   H656      1.0  0.42211  0.64747  0.35721  1.0000
  H   H657      1.0  0.44398  0.61345  0.36719  1.0000
  C   C381      1.0  0.42498  0.63158  0.64964  1.0000
  C   C382      1.0  0.41253  0.61745  0.65686  1.0000
  C   C383      1.0  0.39457  0.61957  0.68733  1.0000
  C   C384      1.0  0.38940  0.63559  0.71092  1.0000
  C   C385      1.0  0.40194  0.64954  0.70340  1.0000
  C   C386      1.0  0.41956  0.64764  0.67272  1.0000
  H   H658      1.0  0.41676  0.60492  0.63909  1.0000
  H   H659      1.0  0.38495  0.60867  0.69305  1.0000
  H   H660      1.0  0.39790  0.66216  0.72044  1.0000
  H   H661      1.0  0.42910  0.65864  0.66707  1.0000
  C   C387      1.0  0.53753  0.57809  0.68862  1.0000
  C   C388      1.0  0.54193  0.55705  0.69343  1.0000
  C   C389      1.0  0.53578  0.54713  0.66602  1.0000
  C   C390      1.0  0.52451  0.55821  0.63503  1.0000
  C   C391      1.0  0.52004  0.57921  0.63055  1.0000
  C   C392      1.0  0.52693  0.58913  0.65666  1.0000
  H   H662      1.0  0.48431  0.49878  0.58224  1.0000
  H   H663      1.0  0.53924  0.53089  0.66966  1.0000
  H   H664      1.0  0.51145  0.58787  0.60665  1.0000
  H   H665      1.0  0.52365  0.60541  0.65263  1.0000
  C   C393      1.0  0.48057  0.61543  0.88613  1.0000
  C   C394      1.0  0.45954  0.62028  0.89884  1.0000
  C   C395      1.0  0.44779  0.63493  0.87318  1.0000
  C   C396      1.0  0.45714  0.64521  0.83554  1.0000
  C   C397      1.0  0.47818  0.64051  0.82312  1.0000
  C   C398      1.0  0.48986  0.62536  0.84802  1.0000
  H   H666      1.0  0.45229  0.61272  0.92840  1.0000
  H   H667      1.0  0.43155  0.63847  0.88288  1.0000
  H   H668      1.0  0.48544  0.64845  0.79401  1.0000
  H   H669      1.0  0.50610  0.62167  0.83811  1.0000
  H   H670      1.0  0.44529  0.56945  0.92855  1.0000
  C   C399      1.0  0.38099  0.54879  0.72322  1.0000
  C   C400      1.0  0.37185  0.54896  0.68874  1.0000
  C   C401      1.0  0.38359  0.54866  0.64778  1.0000
  C   C402      1.0  0.40422  0.54897  0.64120  1.0000
  C   C403      1.0  0.41297  0.55014  0.67534  1.0000
  C   C404      1.0  0.40148  0.54958  0.71649  1.0000
  H   H671      1.0  0.35601  0.54828  0.69397  1.0000
  H   H672      1.0  0.37679  0.54788  0.62128  1.0000
  H   H673      1.0  0.42882  0.55047  0.67045  1.0000
  H   H674      1.0  0.40859  0.54938  0.74309  1.0000
  C   C405      1.0  0.39556  0.55538  0.95880  1.0000
  C   C406      1.0  0.40253  0.56843  0.92291  1.0000
  C   C407      1.0  0.39709  0.58933  0.92251  1.0000
  C   C408      1.0  0.38451  0.59723  0.95777  1.0000
  C   C409      1.0  0.37816  0.58417  0.99415  1.0000
  C   C410      1.0  0.38374  0.56329  0.99472  1.0000
  H   H675      1.0  0.41227  0.56247  0.89570  1.0000
  H   H676      1.0  0.40243  0.59932  0.89484  1.0000
  H   H677      1.0  0.36863  0.59019  0.02171  1.0000
  H   H678      1.0  0.37852  0.55327  0.02275  1.0000
  C   C411      1.0  0.48581  0.50701  0.79819  1.0000
  C   C412      1.0  0.50283  0.51508  0.77786  1.0000
  C   C413      1.0  0.51782  0.51508  0.80072  1.0000
  C   C414      1.0  0.51644  0.50580  0.84311  1.0000
  H   H679      1.0  0.47987  0.67764  0.89176  1.0000
  H   H680      1.0  0.46752  0.50691  0.92789  1.0000
  H   H681      1.0  0.50423  0.52194  0.74488  1.0000
  H   H682      1.0  0.53036  0.52241  0.78570  1.0000
  H   H683      1.0  0.35564  0.71305  0.97276  1.0000
  H   H684      1.0  0.60709  0.59165  0.63482  1.0000
  C   C415      1.0  0.59529  0.58875  0.66313  1.0000
  S   S129      1.0  0.38630  0.64827  0.24561  1.0000
  C   C416      1.0  0.39181  0.66230  0.19515  1.0000
  C   C417      1.0  0.41083  0.66435  0.12294  1.0000
  H   H685      1.0  0.42766  0.65973  0.54523  1.0000
  S   S130      1.0  0.59748  0.56212  0.88442  1.0000
  H   H686      1.0  0.34993  0.68001  0.11282  1.0000
  H   H687      1.0  0.58287  0.60525  0.86287  1.0000
  H   H688      1.0  0.61363  0.59601  0.77860  1.0000
  H   H689      1.0  0.44704  0.50035  0.96756  1.0000
  H   H690      1.0  0.44042  0.69408  0.21282  1.0000
  H   H691      1.0  0.59172  0.56894  0.72271  1.0000
  H   H692      1.0  0.34311  0.50779  0.77947  1.0000
  S   S131      1.0  0.42953  0.49145  0.87866  1.0000
  C   C418      1.0  0.43866  0.69072  0.89837  1.0000
  C   C419      1.0  0.63022  0.59542  0.69098  1.0000
  H   H693      1.0  0.49417  0.54807  0.03386  1.0000
  H   H694      1.0  0.36926  0.67324  0.06881  1.0000
  C   C420      1.0  0.43858  0.67720  0.97382  1.0000
  H   H695      1.0  0.43974  0.53127  0.99533  1.0000
  H   H696      1.0  0.40294  0.73023  0.21424  1.0000
  C   C421      1.0  0.46028  0.51513  0.66485  1.0000
  H   H697      1.0  0.50376  0.51318  0.66405  1.0000
  H   H698      1.0  0.61373  0.54055  0.75337  1.0000
  H   H699      1.0  0.46909  0.52398  0.67594  1.0000
  S   S132      1.0  0.41262  0.69929  0.06810  1.0000
  H   H700      1.0  0.44570  0.51559  0.68752  1.0000
  C   C422      1.0  0.33442  0.65375  0.04912  1.0000
  H   H701      1.0  0.35597  0.65532  0.57685  1.0000
  H   H702      1.0  0.46925  0.56274  0.86929  1.0000
  C   C423      1.0  0.36711  0.49952  0.65715  1.0000
  C   C424      1.0  0.41049  0.49267  0.68272  1.0000
  H   H703      1.0  0.38738  0.67370  0.98206  1.0000
  H   H704      1.0  0.38365  0.69431  0.01199  1.0000
  H   H705      1.0  0.34077  0.72839  0.11351  1.0000
  N   N29       1.0  0.38541  0.65858  0.53852  1.0000
  C   C425      1.0  0.60423  0.59317  0.75763  1.0000
  C   C426      1.0  0.32880  0.61147  0.91785  1.0000
  C   C427      1.0  0.36761  0.66461  0.57276  1.0000
  C   C428      1.0  0.47479  0.53923  0.99920  1.0000
  C   C429      1.0  0.62169  0.54765  0.77074  1.0000
  S   S133      1.0  0.64445  0.63280  0.81092  1.0000
  C   C430      1.0  0.38395  0.68300  0.18802  1.0000
  H   H706      1.0  0.44095  0.66228  0.46295  1.0000
  C   C431      1.0  0.41509  0.67267  0.55212  1.0000
  H   H707      1.0  0.46415  0.57667  0.94743  1.0000
  N   N30       1.0  0.46368  0.59329  0.75164  1.0000
  C   C432      1.0  0.47971  0.60446  0.72537  1.0000
  C   C433      1.0  0.47355  0.57140  0.76004  1.0000
  C   C434      1.0  0.45685  0.60132  0.79346  1.0000
  C   C435      1.0  0.44628  0.59676  0.72801  1.0000
  C   C436      1.0  0.47292  0.62748  0.71441  1.0000
  C   C437      1.0  0.48311  0.56144  0.71991  1.0000
  C   C438      1.0  0.44013  0.59234  0.82534  1.0000
  C   C439      1.0  0.43407  0.57982  0.73650  1.0000
  H   H708      1.0  0.49307  0.60157  0.74145  1.0000
  H   H709      1.0  0.48566  0.59912  0.69409  1.0000
  H   H710      1.0  0.46284  0.56213  0.77984  1.0000
  H   H711      1.0  0.48563  0.56940  0.77919  1.0000
  H   H712      1.0  0.46996  0.59937  0.80983  1.0000
  H   H713      1.0  0.45057  0.61775  0.78825  1.0000
  H   H714      1.0  0.43535  0.61092  0.73471  1.0000
  H   H715      1.0  0.45167  0.59918  0.69290  1.0000
  H   H716      1.0  0.48490  0.63343  0.68994  1.0000
  H   H717      1.0  0.45886  0.63176  0.70084  1.0000
  H   H718      1.0  0.47098  0.63519  0.74232  1.0000
  H   H719      1.0  0.47863  0.54677  0.72302  1.0000
  H   H720      1.0  0.47859  0.57042  0.69037  1.0000
  H   H721      1.0  0.49976  0.55876  0.71601  1.0000
  H   H722      1.0  0.42562  0.59755  0.81380  1.0000
  H   H723      1.0  0.43808  0.59798  0.85606  1.0000
  H   H724      1.0  0.44342  0.57576  0.83215  1.0000
  H   H725      1.0  0.44292  0.56641  0.72217  1.0000
  H   H726      1.0  0.42055  0.58518  0.72116  1.0000
  H   H727      1.0  0.42855  0.57513  0.77059  1.0000
  H   H728      1.0  0.38399  0.71041  0.14362  1.0000
  H   H729      1.0  0.46194  0.53840  0.87812  1.0000
  C   C440      1.0  0.43779  0.57220  0.99476  1.0000
  H   H730      1.0  0.44477  0.57132  0.02289  1.0000
  H   H731      1.0  0.43009  0.58813  0.98693  1.0000
  H   H732      1.0  0.42584  0.56314  0.00322  1.0000
  C   C441      1.0  0.35910  0.69634  0.97655  1.0000
  C   C442      1.0  0.38128  0.68995  0.98280  1.0000
  H   H733      1.0  0.63372  0.53563  0.78305  1.0000
  H   H734      1.0  0.37515  0.67966  0.61930  1.0000
  C   C443      1.0  0.39797  0.63812  0.55116  1.0000
  H   H735      1.0  0.33950  0.61244  0.78705  1.0000
  H   H736      1.0  0.41000  0.63367  0.52375  1.0000
  H   H737      1.0  0.43744  0.70479  0.83299  1.0000
  C   C444      1.0  0.38619  0.62088  0.56769  1.0000
  C   C445      1.0  0.59917  0.60220  0.85885  1.0000
  C   C446      1.0  0.37229  0.66479  0.61688  1.0000
  H   H738      1.0  0.58636  0.60314  0.67280  1.0000
  C   C447      1.0  0.45030  0.53110  0.96420  1.0000
  H   H739      1.0  0.40644  0.63812  0.57634  1.0000
  N   N31       1.0  0.46508  0.54461  0.96012  1.0000
  H   H740      1.0  0.35079  0.68243  0.50025  1.0000
  H   H741      1.0  0.34761  0.62785  0.36948  1.0000
  H   H742      1.0  0.45156  0.71614  0.85797  1.0000
  H   H743      1.0  0.39006  0.65169  0.47426  1.0000
  H   H744      1.0  0.34545  0.65211  0.18268  1.0000
  C   C448      1.0  0.45362  0.56610  0.95565  1.0000
  H   H745      1.0  0.39672  0.60701  0.57871  1.0000
  H   H746      1.0  0.37420  0.62405  0.59567  1.0000
  H   H747      1.0  0.37982  0.61719  0.54236  1.0000
  H   H748      1.0  0.48687  0.54119  0.85335  1.0000
  H   H749      1.0  0.36746  0.59827  0.87597  1.0000
  C   C449      1.0  0.60980  0.61790  0.84266  1.0000
  C   C450      1.0  0.60453  0.57434  0.69962  1.0000
  H   H750      1.0  0.38523  0.65303  0.62486  1.0000
  H   H751      1.0  0.35930  0.66144  0.64204  1.0000
  H   H752      1.0  0.42387  0.71714  0.13147  1.0000
  C   C451      1.0  0.45692  0.70423  0.94100  1.0000
  C   C452      1.0  0.64143  0.59440  0.84855  1.0000
  H   H753      1.0  0.58709  0.62268  0.77035  1.0000
  H   H754      1.0  0.47012  0.71818  0.22884  1.0000
  H   H755      1.0  0.58471  0.58152  0.65285  1.0000
  C   C453      1.0  0.34824  0.49421  0.76329  1.0000
  C   C454      1.0  0.35348  0.56515  0.90775  1.0000
  C   C455      1.0  0.33794  0.59724  0.80483  1.0000
  N   N32       1.0  0.34234  0.59490  0.84931  1.0000
  H   H756      1.0  0.42381  0.68759  0.98112  1.0000
  C   C456      1.0  0.36295  0.59971  0.84485  1.0000
  H   H757      1.0  0.32671  0.62565  0.85351  1.0000
  C   C457      1.0  0.44830  0.70152  0.85536  1.0000
  H   H758      1.0  0.65767  0.59133  0.84558  1.0000
  C   C458      1.0  0.50044  0.49602  0.86222  1.0000
  C   C459      1.0  0.38970  0.69440  0.14845  1.0000
  C   C460      1.0  0.35745  0.68571  0.08041  1.0000
  Fe  Fe66      1.0  0.36538  0.71254  0.30482  1.0000
  H   H759      1.0  0.34910  0.58640  0.78593  1.0000
  H   H760      1.0  0.46432  0.70079  0.96949  1.0000
  H   H761      1.0  0.40469  0.50633  0.69814  1.0000
  C   C461      1.0  0.63152  0.56463  0.74207  1.0000
  H   H762      1.0  0.44541  0.73479  0.95521  1.0000
  H   H763      1.0  0.42420  0.65216  0.00545  1.0000
  H   H764      1.0  0.43529  0.72448  0.23676  1.0000
  S   S134      1.0  0.36188  0.70623  0.37591  1.0000
  H   H765      1.0  0.59605  0.62234  0.71573  1.0000
  H   H766      1.0  0.63496  0.61445  0.73417  1.0000
  H   H767      1.0  0.38056  0.59265  0.78267  1.0000
  H   H768      1.0  0.35802  0.62831  0.31450  1.0000
  H   H769      1.0  0.63909  0.56365  0.87326  1.0000
  H   H770      1.0  0.61358  0.56098  0.68494  1.0000
  H   H771      1.0  0.49053  0.51833  0.60190  1.0000
  N   N33       1.0  0.61729  0.58234  0.72225  1.0000
  C   C462      1.0  0.37738  0.65725  0.49967  1.0000
  H   H772      1.0  0.34217  0.61033  0.34247  1.0000
  H   H773      1.0  0.36271  0.61577  0.83122  1.0000
  C   C463      1.0  0.34143  0.69551  0.05178  1.0000
  C   C464      1.0  0.40484  0.65291  0.16225  1.0000
  N   N34       1.0  0.49337  0.48972  0.64402  1.0000
  H   H774      1.0  0.42350  0.70004  0.90858  1.0000
  C   C465      1.0  0.51600  0.49906  0.57102  1.0000
  H   H775      1.0  0.32737  0.65632  0.33353  1.0000
  H   H776      1.0  0.48445  0.52388  0.00028  1.0000
  H   H777      1.0  0.55021  0.54846  0.71792  1.0000
  C   C466      1.0  0.50456  0.49666  0.67185  1.0000
  H   H778      1.0  0.40650  0.67426  0.49267  1.0000
  C   C467      1.0  0.49506  0.50195  0.60003  1.0000
  H   H779      1.0  0.36422  0.65862  0.02161  1.0000
  S   S135      1.0  0.37566  0.65811  0.36478  1.0000
  C   C468      1.0  0.32672  0.61030  0.87223  1.0000
  C   C469      1.0  0.48366  0.66212  0.95389  1.0000
  H   H780      1.0  0.34018  0.49696  0.73611  1.0000
  H   H781      1.0  0.44048  0.53669  0.93977  1.0000
  N   N35       1.0  0.45107  0.68572  0.93328  1.0000
  H   H782      1.0  0.37800  0.48719  0.77879  1.0000
  H   H783      1.0  0.49721  0.49428  0.70592  1.0000
  H   H784      1.0  0.37430  0.49959  0.62306  1.0000
  C   C470      1.0  0.48482  0.49707  0.84010  1.0000
  H   H785      1.0  0.35543  0.57629  0.92590  1.0000
  H   H786      1.0  0.62104  0.60818  0.67287  1.0000
  H   H787      1.0  0.59439  0.58345  0.77942  1.0000
  H   H788      1.0  0.46316  0.53856  0.02879  1.0000
  H   H789      1.0  0.34677  0.56304  0.84801  1.0000
  H   H790      1.0  0.42451  0.65706  0.94950  1.0000
  H   H791      1.0  0.46975  0.50180  0.98372  1.0000
  H   H792      1.0  0.65561  0.59324  0.72444  1.0000
  C   C471      1.0  0.48146  0.54196  0.92144  1.0000
  H   H793      1.0  0.32602  0.59147  0.28558  1.0000
  H   H794      1.0  0.34921  0.66009  0.98381  1.0000
  C   C472      1.0  0.47009  0.67078  0.91999  1.0000
  C   C473      1.0  0.58984  0.61311  0.74504  1.0000
  H   H795      1.0  0.64320  0.55755  0.71694  1.0000
  H   H796      1.0  0.48047  0.56907  0.00372  1.0000
  H   H797      1.0  0.50211  0.55264  0.97770  1.0000
  C   C474      1.0  0.48854  0.55323  0.00325  1.0000
  C   C475      1.0  0.39840  0.67437  0.52606  1.0000
  H   H798      1.0  0.46651  0.65792  0.90931  1.0000
  H   H799      1.0  0.40949  0.67146  0.58682  1.0000
  Fe  Fe67      1.0  0.37767  0.66888  0.29470  1.0000
  C   C476      1.0  0.38033  0.58696  0.81713  1.0000
  C   C477      1.0  0.34880  0.66496  0.01483  1.0000
  H   H800      1.0  0.45670  0.52257  0.63315  1.0000
  C   C478      1.0  0.45951  0.50880  0.96065  1.0000
  H   H801      1.0  0.49210  0.55222  0.91825  1.0000
  C   C479      1.0  0.47409  0.54632  0.87847  1.0000
  C   C480      1.0  0.34115  0.57376  0.87149  1.0000
  H   H802      1.0  0.37937  0.57090  0.82339  1.0000
  H   H803      1.0  0.49107  0.52657  0.92453  1.0000
  H   H804      1.0  0.46839  0.70945  0.91399  1.0000
  C   C481      1.0  0.40350  0.68514  0.11622  1.0000
  H   H805      1.0  0.51443  0.50799  0.53916  1.0000
  Fe  Fe68      1.0  0.39079  0.68353  0.36399  1.0000
  H   H806      1.0  0.48994  0.67392  0.96223  1.0000
  H   H807      1.0  0.43220  0.72837  0.92024  1.0000
  H   H808      1.0  0.36724  0.64623  0.50713  1.0000
  H   H809      1.0  0.41094  0.63691  0.16772  1.0000
  H   H810      1.0  0.60166  0.63302  0.83389  1.0000
  H   H811      1.0  0.32593  0.70531  0.17380  1.0000
  S   S136      1.0  0.46558  0.51024  0.77143  1.0000
  H   H812      1.0  0.39092  0.71453  0.84261  1.0000
  C   C482      1.0  0.60980  0.58253  0.86885  1.0000
  H   H813      1.0  0.47576  0.65405  0.98316  1.0000
  H   H814      1.0  0.64019  0.58666  0.66623  1.0000
  N   N36       1.0  0.34358  0.68762  0.01057  1.0000
  H   H815      1.0  0.44939  0.71098  0.13741  1.0000
  H   H816      1.0  0.36847  0.55620  0.89538  1.0000
  H   H817      1.0  0.42179  0.68634  0.54228  1.0000
  C   C483      1.0  0.34441  0.62598  0.33855  1.0000
  H   H818      1.0  0.36076  0.67392  0.45042  1.0000
  C   C484      1.0  0.63100  0.61387  0.83642  1.0000
  Fe  Fe69      1.0  0.34702  0.68140  0.37123  1.0000
  H   H819      1.0  0.37381  0.69035  0.21326  1.0000
  H   H820      1.0  0.46217  0.69187  0.84026  1.0000
  C   C485      1.0  0.43354  0.65656  0.97411  1.0000
  C   C486      1.0  0.36512  0.67698  0.47907  1.0000
  C   C487      1.0  0.33002  0.60600  0.26889  1.0000
  H   H821      1.0  0.46963  0.71348  0.17795  1.0000
  H   H822      1.0  0.39054  0.69813  0.95582  1.0000
  H   H823      1.0  0.63996  0.56951  0.76252  1.0000
  H   H824      1.0  0.35938  0.68014  0.56311  1.0000
  H   H825      1.0  0.57506  0.61034  0.74197  1.0000
  H   H826      1.0  0.38889  0.68976  0.52659  1.0000
  S   S137      1.0  0.34760  0.68995  0.30109  1.0000
  H   H827      1.0  0.35866  0.69241  0.94523  1.0000
  H   H828      1.0  0.37409  0.68898  0.46824  1.0000
  H   H829      1.0  0.44725  0.64450  0.97033  1.0000
  S   S138      1.0  0.39568  0.69214  0.29311  1.0000
  H   H830      1.0  0.37493  0.50575  0.73450  1.0000
  S   S139      1.0  0.41409  0.68109  0.40409  1.0000
  H   H831      1.0  0.65686  0.70062  0.72284  1.0000
  H   H832      1.0  0.34070  0.66141  0.25629  1.0000
  H   H833      1.0  0.49672  0.65091  0.94053  1.0000
  H   H834      1.0  0.41435  0.69901  0.20556  1.0000
  H   H835      1.0  0.44593  0.67594  0.00178  1.0000
  S   S140      1.0  0.34800  0.71512  0.86920  1.0000
  H   H836      1.0  0.37275  0.51072  0.66872  1.0000
  C   C488      1.0  0.44203  0.73357  0.20723  1.0000
  C   C489      1.0  0.43026  0.69729  0.18915  1.0000
  H   H837      1.0  0.43347  0.68371  0.17331  1.0000
  C   C490      1.0  0.63087  0.57877  0.86470  1.0000
  H   H838      1.0  0.43549  0.67684  0.89109  1.0000
  H   H839      1.0  0.61122  0.55295  0.79905  1.0000
  H   H840      1.0  0.34975  0.63596  0.25109  1.0000
  C   C491      1.0  0.33592  0.64784  0.25149  1.0000
  H   H841      1.0  0.33233  0.65847  0.08075  1.0000
  H   H842      1.0  0.35061  0.50496  0.65779  1.0000
  H   H843      1.0  0.36534  0.69733  0.08436  1.0000
  H   H844      1.0  0.34357  0.61463  0.91953  1.0000
  C   C492      1.0  0.43388  0.71558  0.15508  1.0000
  C   C493      1.0  0.43938  0.72237  0.94863  1.0000
  H   H845      1.0  0.34109  0.63738  0.05248  1.0000
  H   H846      1.0  0.53350  0.49462  0.69000  1.0000
  C   C494      1.0  0.33110  0.65202  0.20605  1.0000
  H   H847      1.0  0.47204  0.49030  0.85555  1.0000
  C   C495      1.0  0.47118  0.49300  0.66373  1.0000
  C   C496      1.0  0.46505  0.72544  0.19831  1.0000
  H   H848      1.0  0.34513  0.60589  0.27516  1.0000
  Fe  Fe70      1.0  0.39595  0.73132  0.05687  1.0000
  H   H849      1.0  0.40711  0.49558  0.65001  1.0000
  H   H850      1.0  0.52686  0.50527  0.58257  1.0000
  C   C497      1.0  0.38422  0.72683  0.86056  1.0000
  H   H851      1.0  0.32585  0.59772  0.94005  1.0000
  H   H852      1.0  0.34568  0.55420  0.93119  1.0000
  H   H853      1.0  0.65202  0.61455  0.68445  1.0000
  C   C498      1.0  0.64383  0.60477  0.71024  1.0000
  H   H854      1.0  0.49965  0.48855  0.89482  1.0000
  C   C499      1.0  0.37141  0.49088  0.74914  1.0000
  C   C500      1.0  0.36332  0.73091  0.87571  1.0000
  H   H855      1.0  0.32635  0.69446  0.07197  1.0000
  N   N37       1.0  0.43086  0.73532  0.17128  1.0000
  H   H856      1.0  0.42719  0.48990  0.67901  1.0000
  H   H857      1.0  0.53630  0.48721  0.63921  1.0000
  H   H858      1.0  0.46272  0.48619  0.64660  1.0000
  C   C501      1.0  0.52702  0.48658  0.67144  1.0000
  H   H859      1.0  0.45894  0.75910  0.07934  1.0000
  Fe  Fe71      1.0  0.39253  0.76410  0.98060  1.0000
  C   C502      1.0  0.36477  0.88706  0.38309  1.0000
  S   S141      1.0  0.40358  0.76659  0.91033  1.0000
  Fe  Fe72      1.0  0.38763  0.77519  0.06792  1.0000
  S   S142      1.0  0.37228  0.74966  0.10061  1.0000
  S   S143      1.0  0.39368  0.79439  0.11017  1.0000
  H   H860      1.0  0.37012  0.88898  0.44636  1.0000
  H   H861      1.0  0.35180  0.93294  0.17753  1.0000
  Fe  Fe73      1.0  0.35524  0.75840  0.04640  1.0000
  H   H862      1.0  0.33859  0.75048  0.90959  1.0000
  S   S144      1.0  0.41300  0.75601  0.02878  1.0000
  S   S145      1.0  0.36855  0.78560  0.01694  1.0000
  C   C503      1.0  0.39651  0.73875  0.86860  1.0000
  S   S146      1.0  0.32759  0.86607  0.27026  1.0000
  H   H863      1.0  0.36545  0.84186  0.35314  1.0000
  C   C504      1.0  0.35311  0.92620  0.26380  1.0000
  C   C505      1.0  0.37627  0.86591  0.30921  1.0000
  H   H864      1.0  0.33098  0.95831  0.10111  1.0000
  H   H865      1.0  0.33844  0.90104  0.27616  1.0000
  H   H866      1.0  0.32735  0.81208  0.03914  1.0000
  H   H867      1.0  0.36244  0.82439  0.41854  1.0000
  H   H868      1.0  0.38649  0.84874  0.36575  1.0000
  H   H869      1.0  0.39956  0.74280  0.16272  1.0000
  H   H870      1.0  0.33131  0.80942  0.11575  1.0000
  C   C506      1.0  0.34792  0.84291  0.09934  1.0000
  C   C507      1.0  0.35069  0.83395  0.17385  1.0000
  S   S147      1.0  0.37747  0.73790  0.00581  1.0000
  H   H871      1.0  0.34057  0.85246  0.07432  1.0000
  C   C508      1.0  0.37162  0.85506  0.35539  1.0000
  H   H872      1.0  0.38495  0.87786  0.30644  1.0000
  H   H873      1.0  0.35871  0.89837  0.35709  1.0000
  C   C509      1.0  0.36027  0.89739  0.42323  1.0000
  H   H874      1.0  0.33591  0.88068  0.34523  1.0000
  N   N38       1.0  0.35752  0.86759  0.38729  1.0000
  H   H875      1.0  0.42410  0.75815  0.11728  1.0000
  H   H876      1.0  0.34895  0.89481  0.14441  1.0000
  C   C510      1.0  0.35550  0.76336  0.28718  1.0000
  C   C511      1.0  0.35796  0.76174  0.32938  1.0000
  C   C512      1.0  0.35279  0.77894  0.34950  1.0000
  H   H877      1.0  0.38156  0.88460  0.37365  1.0000
  C   C513      1.0  0.35218  0.90322  0.16713  1.0000
  C   C514      1.0  0.34914  0.78225  0.26435  1.0000
  H   H878      1.0  0.36348  0.74726  0.34673  1.0000
  H   H879      1.0  0.35394  0.77762  0.38264  1.0000
  H   H880      1.0  0.36662  0.91877  0.24463  1.0000
  C   C515      1.0  0.35102  0.94635  0.26824  1.0000
  H   H881      1.0  0.35581  0.93021  0.12296  1.0000
  H   H882      1.0  0.34475  0.89795  0.19972  1.0000
  C   C516      1.0  0.34510  0.79762  0.32731  1.0000
  C   C517      1.0  0.45525  0.74533  0.10069  1.0000
  H   H883      1.0  0.33861  0.81381  0.26693  1.0000
  C   C518      1.0  0.34638  0.92631  0.15466  1.0000
  C   C519      1.0  0.40852  0.74163  0.18809  1.0000
  H   H884      1.0  0.40952  0.77385  0.18668  1.0000
  H   H885      1.0  0.43969  0.76427  0.14754  1.0000
  H   H886      1.0  0.34433  0.89921  0.43956  1.0000
  C   C520      1.0  0.34390  0.79934  0.28445  1.0000
  H   H887      1.0  0.37443  0.80875  0.18892  1.0000
  H   H888      1.0  0.36916  0.82417  0.05676  1.0000
  C   C521      1.0  0.40206  0.76175  0.20615  1.0000
  C   C522      1.0  0.35857  0.85563  0.43109  1.0000
  H   H889      1.0  0.44008  0.74855  0.21716  1.0000
  C   C523      1.0  0.35473  0.74709  0.89823  1.0000
  C   C524      1.0  0.34108  0.84626  0.14169  1.0000
  H   H890      1.0  0.38575  0.85477  0.28880  1.0000
  H   H891      1.0  0.37426  0.85289  0.43759  1.0000
  H   H892      1.0  0.40474  0.75960  0.23935  1.0000
  H   H893      1.0  0.36874  0.89892  0.16678  1.0000
  C   C525      1.0  0.36709  0.75852  0.90751  1.0000
  H   H894      1.0  0.36046  0.77047  0.92651  1.0000
  H   H895      1.0  0.38560  0.76734  0.20693  1.0000
  C   C526      1.0  0.37350  0.81445  0.12177  1.0000
  H   H896      1.0  0.34568  0.83672  0.20637  1.0000
  S   S148      1.0  0.36929  0.95994  0.23909  1.0000
  H   H897      1.0  0.33638  0.83642  0.43576  1.0000
  C   C527      1.0  0.36400  0.82686  0.08942  1.0000
  C   C528      1.0  0.36700  0.81820  0.16389  1.0000
  H   H898      1.0  0.34794  0.78365  0.23128  1.0000
  H   H899      1.0  0.36246  0.87236  0.29559  1.0000
  C   C529      1.0  0.38800  0.75430  0.89294  1.0000
  H   H900      1.0  0.36382  0.91269  0.41382  1.0000
  C   C530      1.0  0.43676  0.75150  0.13514  1.0000
  H   H901      1.0  0.34653  0.96582  0.15811  1.0000
  C   C531      1.0  0.33723  0.91606  0.28193  1.0000
  H   H902      1.0  0.34005  0.77204  0.16103  1.0000
  S   S149      1.0  0.35905  0.74207  0.26278  1.0000
  H   H903      1.0  0.32695  0.76232  0.21119  1.0000
  C   C532      1.0  0.33651  0.87163  0.37715  1.0000
  H   H904      1.0  0.32999  0.91806  0.10063  1.0000
  C   C533      1.0  0.33002  0.97027  0.15821  1.0000
  H   H905      1.0  0.33220  0.85734  0.37538  1.0000
  C   C534      1.0  0.35228  0.83500  0.43927  1.0000
  H   H906      1.0  0.34892  0.86404  0.45649  1.0000
  C   C535      1.0  0.33372  0.95580  0.29366  1.0000
  H   H907      1.0  0.35335  0.82794  0.47265  1.0000
  H   H908      1.0  0.32730  0.78777  0.10030  1.0000
  H   H909      1.0  0.33232  0.97110  0.29855  1.0000
  S   S150      1.0  0.33440  0.81821  0.35421  1.0000
  H   H910      1.0  0.47328  0.73783  0.18385  1.0000
  H   H911      1.0  0.45175  0.73590  0.08024  1.0000
  H   H912      1.0  0.46890  0.73747  0.11409  1.0000
  H   H913      1.0  0.41263  0.73557  0.85713  1.0000
  Fe  Fe74      1.0  0.94039  0.12084  0.17170  1.0000
  S   S151      1.0  0.91891  0.11681  0.23336  1.0000
  C   C536      1.0  0.92352  0.99523  0.58062  1.0000
  Fe  Fe75      1.0  0.90754  0.14517  0.12399  1.0000
  S   S152      1.0  0.88285  0.14342  0.18136  1.0000
  S   S153      1.0  0.90253  0.16074  0.05880  1.0000
  Fe  Fe76      1.0  0.90540  0.14927  0.21537  1.0000
  S   S154      1.0  0.89723  0.16855  0.26684  1.0000
  Fe  Fe77      1.0  0.89853  0.11114  0.19430  1.0000
  S   S155      1.0  0.88169  0.08603  0.21903  1.0000
  S   S156      1.0  0.92888  0.15401  0.15686  1.0000
  S   S157      1.0  0.92112  0.11227  0.13365  1.0000
  H   H914      1.0  0.86754  0.17439  0.35977  1.0000
  S   S158      1.0  0.88861  0.07921  0.57265  1.0000
  Fe  Fe78      1.0  0.91949  0.10351  0.46943  1.0000
  S   S159      1.0  0.92728  0.10103  0.53352  1.0000
  S   S160      1.0  0.94035  0.11817  0.41664  1.0000
  Fe  Fe79      1.0  0.92124  0.07002  0.54386  1.0000
  S   S161      1.0  0.94321  0.04547  0.57459  1.0000
  Fe  Fe80      1.0  0.89416  0.11060  0.55559  1.0000
  S   S162      1.0  0.88442  0.13390  0.59900  1.0000
  S   S163      1.0  0.91606  0.07151  0.47756  1.0000
  S   S164      1.0  0.88660  0.11586  0.49028  1.0000
  Fe  Fe81      1.0  0.84031  0.13907  0.92106  1.0000
  S   S165      1.0  0.84235  0.13071  0.85666  1.0000
  S   S166      1.0  0.85255  0.11812  0.97579  1.0000
  Fe  Fe82      1.0  0.81617  0.18083  0.89955  1.0000
  S   S167      1.0  0.81575  0.17620  0.83360  1.0000
  H   H915      1.0  0.73614  0.19344  0.82306  1.0000
  Fe  Fe83      1.0  0.80961  0.14584  0.86319  1.0000
  S   S168      1.0  0.78885  0.13236  0.83759  1.0000
  Fe  Fe84      1.0  0.84837  0.16169  0.83140  1.0000
  S   S169      1.0  0.86923  0.16827  0.76926  1.0000
  S   S170      1.0  0.80683  0.15159  0.92991  1.0000
  S   S171      1.0  0.84953  0.16873  0.89520  1.0000
  H   H916      1.0  0.85570  0.17204  0.10089  1.0000
  H   H917      1.0  0.95967  0.00865  0.53811  1.0000
  H   H918      1.0  0.78933  0.19391  0.59513  1.0000
  H   H919      1.0  0.71749  0.14889  0.76028  1.0000
  C   C537      1.0  0.98383  0.04269  0.56824  1.0000
  C   C538      1.0  0.93085  0.04075  0.20690  1.0000
  C   C539      1.0  0.86300  0.02124  0.42734  1.0000
  H   H920      1.0  0.74396  0.16882  0.59027  1.0000
  H   H921      1.0  0.66655  0.16650  0.91195  1.0000
  C   C540      1.0  0.87748  0.20341  0.45527  1.0000
  H   H922      1.0  0.92812  0.02777  0.51722  1.0000
  S   S172      1.0  0.92203  0.00344  0.34613  1.0000
  C   C541      1.0  0.85882  0.19189  0.74343  1.0000
  C   C542      1.0  0.85647  0.19463  0.70079  1.0000
  C   C543      1.0  0.84605  0.21315  0.68217  1.0000
  Fe  Fe85      1.0  0.89672  0.98716  0.37393  1.0000
  C   C544      1.0  0.84214  0.22653  0.74760  1.0000
  C   C545      1.0  0.85179  0.20790  0.76654  1.0000
  H   H923      1.0  0.86202  0.18225  0.68275  1.0000
  H   H924      1.0  0.84346  0.21496  0.64992  1.0000
  C   C546      1.0  0.96900  0.05409  0.30356  1.0000
  H   H925      1.0  0.85381  0.20580  0.79920  1.0000
  C   C547      1.0  0.86533  0.15306  0.58107  1.0000
  C   C548      1.0  0.85257  0.14918  0.55694  1.0000
  C   C549      1.0  0.83837  0.16498  0.53991  1.0000
  C   C550      1.0  0.83678  0.18457  0.54752  1.0000
  C   C551      1.0  0.84875  0.18822  0.57365  1.0000
  C   C552      1.0  0.86309  0.17248  0.59028  1.0000
  H   H926      1.0  0.85379  0.13406  0.55095  1.0000
  H   H927      1.0  0.82896  0.16206  0.52009  1.0000
  H   H928      1.0  0.84748  0.20325  0.57990  1.0000
  H   H929      1.0  0.87290  0.17546  0.60912  1.0000
  C   C553      1.0  0.96756  0.04749  0.54650  1.0000
  C   C554      1.0  0.97073  0.05440  0.50260  1.0000
  H   H930      1.0  0.89266  0.20629  0.45542  1.0000
  H   H931      1.0  0.83644  0.19327  0.11715  1.0000
  H   H932      1.0  0.95828  0.05803  0.48552  1.0000
  H   H933      1.0  0.83081  0.02421  0.44810  1.0000
  C   C555      1.0  0.89005  0.14752  0.03558  1.0000
  C   C556      1.0  0.89055  0.15154  0.99156  1.0000
  C   C557      1.0  0.87951  0.14208  0.97285  1.0000
  C   C558      1.0  0.86768  0.12884  0.99821  1.0000
  C   C559      1.0  0.86748  0.12452  0.04216  1.0000
  C   C560      1.0  0.87877  0.13375  0.06086  1.0000
  H   H934      1.0  0.89949  0.16198  0.97189  1.0000
  H   H935      1.0  0.88034  0.14489  0.93874  1.0000
  H   H936      1.0  0.85811  0.11450  0.06188  1.0000
  H   H937      1.0  0.87824  0.13069  0.09497  1.0000
  C   C561      1.0  0.90933  0.15411  0.30787  1.0000
  C   C562      1.0  0.89995  0.14003  0.33757  1.0000
  C   C563      1.0  0.90940  0.12894  0.37128  1.0000
  C   C564      1.0  0.92834  0.13174  0.37480  1.0000
  C   C565      1.0  0.93792  0.14546  0.34456  1.0000
  C   C566      1.0  0.92840  0.15667  0.31113  1.0000
  H   H938      1.0  0.88537  0.13777  0.33453  1.0000
  H   H939      1.0  0.90213  0.11805  0.39412  1.0000
  H   H940      1.0  0.95273  0.14738  0.34686  1.0000
  H   H941      1.0  0.93582  0.16727  0.28770  1.0000
  H   H942      1.0  0.76228  0.21342  0.63931  1.0000
  H   H943      1.0  0.70117  0.16080  0.92896  1.0000
  H   H944      1.0  0.73012  0.17824  0.54704  1.0000
  C   C567      1.0  0.85889  0.05460  0.46833  1.0000
  S   S173      1.0  0.69492  0.22078  0.84149  1.0000
  C   C568      1.0  0.89792  0.06240  0.22404  1.0000
  H   H945      1.0  0.96414  0.13703  0.21786  1.0000
  C   C569      1.0  0.91848  0.06006  0.20570  1.0000
  H   H946      1.0  0.75458  0.22953  0.72935  1.0000
  H   H947      1.0  0.92479  0.07305  0.18999  1.0000
  H   H948      1.0  0.91184  0.14985  0.48416  1.0000
  C   C570      1.0  0.79285  0.22772  0.77922  1.0000
  H   H949      1.0  0.81719  0.09788  0.70147  1.0000
  C   C571      1.0  0.98677  0.11176  0.19769  1.0000
  H   H950      1.0  0.92218  0.01936  0.07615  1.0000
  C   C572      1.0  0.85831  0.17145  0.39192  1.0000
  N   N39       1.0  0.87929  0.18755  0.42777  1.0000
  C   C573      1.0  0.84195  0.04679  0.46834  1.0000
  C   C574      1.0  0.74099  0.18151  0.56421  1.0000
  H   H951      1.0  0.93749  0.09919  0.32429  1.0000
  H   H952      1.0  0.93299  0.07974  0.01579  1.0000
  H   H953      1.0  0.84784  0.12193  0.64263  1.0000
  H   H954      1.0  0.85497  0.10220  0.68243  1.0000
  H   H955      1.0  0.85507  0.09385  0.74960  1.0000
  C   C575      1.0  0.70070  0.15694  0.82127  1.0000
  H   H956      1.0  0.95688  0.12800  0.48911  1.0000
  H   H957      1.0  0.80750  0.19882  0.75907  1.0000
  C   C576      1.0  0.98311  0.99498  0.33971  1.0000
  H   H958      1.0  0.75322  0.15985  0.71843  1.0000
  H   H959      1.0  0.69519  0.13879  0.77694  1.0000
  C   C577      1.0  0.83268  0.22483  0.87233  1.0000
  C   C578      1.0  0.77146  0.15039  0.81110  1.0000
  S   S174      1.0  0.86508  0.00011  0.40299  1.0000
  C   C579      1.0  0.68437  0.12454  0.92902  1.0000
  N   N40       1.0  0.83602  0.12923  0.70620  1.0000
  C   C580      1.0  0.81928  0.14560  0.69086  1.0000
  C   C581      1.0  0.85352  0.13899  0.70516  1.0000
  C   C582      1.0  0.82837  0.11995  0.75102  1.0000
  C   C583      1.0  0.81245  0.16397  0.71487  1.0000
  H   H960      1.0  0.82378  0.15152  0.65645  1.0000
  H   H961      1.0  0.80543  0.13958  0.69320  1.0000
  H   H962      1.0  0.85753  0.14778  0.67323  1.0000
  H   H963      1.0  0.84919  0.14998  0.72789  1.0000
  H   H964      1.0  0.82836  0.12990  0.77419  1.0000
  H   H965      1.0  0.81227  0.11883  0.75442  1.0000
  H   H966      1.0  0.79809  0.17316  0.70591  1.0000
  H   H967      1.0  0.80957  0.15959  0.74993  1.0000
  H   H968      1.0  0.82370  0.17388  0.70573  1.0000
  C   C584      1.0  0.90398  0.04099  0.11872  1.0000
  C   C585      1.0  0.89083  0.07706  0.10551  1.0000
  H   H969      1.0  0.90452  0.04365  0.15097  1.0000
  H   H970      1.0  0.89016  0.09121  0.08282  1.0000
  H   H971      1.0  0.89612  0.08039  0.13287  1.0000
  H   H972      1.0  0.93009  0.06485  0.11210  1.0000
  C   C586      1.0  0.86397  0.22413  0.44388  1.0000
  H   H973      1.0  0.95971  0.06357  0.38186  1.0000
  H   H974      1.0  0.98392  0.08846  0.30202  1.0000
  H   H975      1.0  0.93487  0.02294  0.11694  1.0000
  H   H976      1.0  0.77549  0.20482  0.85237  1.0000
  H   H977      1.0  0.75491  0.18201  0.54012  1.0000
  C   C587      1.0  0.87792  0.04582  0.44740  1.0000
  H   H978      1.0  0.92366  0.01000  0.58947  1.0000
  H   H979      1.0  0.97344  0.98830  0.32711  1.0000
  H   H980      1.0  0.97940  0.07328  0.24405  1.0000
  H   H981      1.0  0.71471  0.15893  0.83001  1.0000
  H   H982      1.0  0.76194  0.16917  0.86043  1.0000
  C   C588      1.0  0.69564  0.17334  0.90476  1.0000
  C   C589      1.0  0.89915  0.00634  0.53173  1.0000
  H   H983      1.0  0.84425  0.23124  0.95969  1.0000
  H   H984      1.0  0.71131  0.13412  0.89055  1.0000
  C   C590      1.0  0.99014  0.05652  0.48055  1.0000
  C   C591      1.0  0.67918  0.16855  0.88506  1.0000
  C   C592      1.0  0.92277  0.02388  0.22759  1.0000
  C   C593      1.0  0.81362  0.22958  0.89730  1.0000
  H   H985      1.0  0.81421  0.11482  0.65216  1.0000
  H   H986      1.0  0.80476  0.19780  0.09264  1.0000
  H   H987      1.0  0.87318  0.02999  0.54842  1.0000
  C   C594      1.0  0.88735  0.20839  0.35221  1.0000
  H   H988      1.0  0.69427  0.17178  0.80372  1.0000
  H   H989      1.0  0.95417  0.15128  0.50710  1.0000
  H   H990      1.0  0.96333  0.01897  0.48318  1.0000
  C   C595      1.0  0.69637  0.13235  0.88567  1.0000
  C   C596      1.0  0.88980  0.02678  0.54751  1.0000
  H   H991      1.0  0.70051  0.11954  0.86722  1.0000
  H   H992      1.0  0.94645  0.08462  0.05232  1.0000
  N   N41       1.0  0.74628  0.21333  0.58872  1.0000
  C   C597      1.0  0.93152  0.08219  0.04914  1.0000
  H   H993      1.0  0.83975  0.20939  0.87023  1.0000
  H   H994      1.0  0.83051  0.08724  0.76760  1.0000
  C   C598      1.0  0.79497  0.21132  0.75139  1.0000
  H   H995      1.0  0.92050  0.09625  0.05507  1.0000
  H   H996      1.0  0.93816  0.05073  0.06907  1.0000
  H   H997      1.0  0.86774  0.06382  0.15289  1.0000
  C   C599      1.0  0.76007  0.16721  0.82937  1.0000
  H   H998      1.0  0.89147  0.07120  0.98507  1.0000
  S   S175      1.0  0.97290  0.10524  0.16497  1.0000
  H   H999      1.0  0.91546  0.00872  0.13094  1.0000
  H   H1000     1.0  0.86269  0.19312  0.11308  1.0000
  H   H1001     1.0  0.90589  0.17556  0.49149  1.0000
  H   H1002     1.0  0.87086  0.21273  0.35321  1.0000
  C   C600      1.0  0.89175  0.07542  0.01619  1.0000
  H   H1003     1.0  0.79939  0.21693  0.71713  1.0000
  H   H1004     1.0  0.89024  0.15521  0.43241  1.0000
  H   H1005     1.0  0.95315  0.03310  0.40856  1.0000
  H   H1006     1.0  0.97724  0.10496  0.45707  1.0000
  H   H1007     1.0  0.88483  0.13446  0.71143  1.0000
  C   C601      1.0  0.84399  0.03016  0.44792  1.0000
  C   C602      1.0  0.92666  0.06356  0.08085  1.0000
  N   N42       1.0  0.83825  0.19650  0.02627  1.0000
  C   C603      1.0  0.84789  0.19835  0.97967  1.0000
  C   C604      1.0  0.83316  0.17585  0.03906  1.0000
  C   C605      1.0  0.85359  0.19866  0.05113  1.0000
  C   C606      1.0  0.81971  0.21303  0.03123  1.0000
  C   C607      1.0  0.85643  0.21758  0.96075  1.0000
  C   C608      1.0  0.81768  0.17144  0.01622  1.0000
  C   C609      1.0  0.85163  0.18871  0.09822  1.0000
  C   C610      1.0  0.75738  0.20250  0.62457  1.0000
  H   H1008     1.0  0.86050  0.18528  0.97368  1.0000
  H   H1009     1.0  0.83693  0.19803  0.95954  1.0000
  H   H1010     1.0  0.82727  0.17254  0.07360  1.0000
  H   H1011     1.0  0.84713  0.16423  0.03340  1.0000
  H   H1012     1.0  0.86921  0.19198  0.03604  1.0000
  H   H1013     1.0  0.85363  0.21481  0.05048  1.0000
  C   C611      1.0  0.97776  0.10033  0.54249  1.0000
  H   H1014     1.0  0.80993  0.21370  0.00764  1.0000
  C   C612      1.0  0.77671  0.18662  0.61336  1.0000
  N   N43       1.0  0.68581  0.15095  0.86049  1.0000
  H   H1015     1.0  0.87127  0.19801  0.48906  1.0000
  H   H1016     1.0  0.82364  0.17124  0.98188  1.0000
  H   H1017     1.0  0.81473  0.15613  0.02958  1.0000
  H   H1018     1.0  0.80298  0.18217  0.02075  1.0000
  H   H1019     1.0  0.90718  0.06541  0.35863  1.0000
  H   H1020     1.0  0.85886  0.08858  0.12766  1.0000
  H   H1021     1.0  0.98630  0.11179  0.38203  1.0000
  N   N44       1.0  0.90549  0.05981  0.08663  1.0000
  H   H1022     1.0  0.82720  0.05360  0.48433  1.0000
  Fe  Fe86      1.0  0.88368  0.08348  0.50516  1.0000
  H   H1023     1.0  0.77691  0.13432  0.75788  1.0000
  H   H1024     1.0  0.84098  0.09788  0.80083  1.0000
  C   C613      1.0  0.75508  0.16194  0.74939  1.0000
  H   H1025     1.0  0.67297  0.18245  0.86436  1.0000
  C   C614      1.0  0.83962  0.09859  0.76709  1.0000
  C   C615      1.0  0.86892  0.07392  0.12179  1.0000
  H   H1026     1.0  0.84772  0.22332  0.45032  1.0000
  C   C616      1.0  0.76856  0.14755  0.77159  1.0000
  H   H1027     1.0  0.87581  0.08141  0.02989  1.0000
  C   C617      1.0  0.84212  0.11439  0.67495  1.0000
  H   H1028     1.0  0.84252  0.17293  0.38736  1.0000
  H   H1029     1.0  0.87116  0.11868  0.75083  1.0000
  C   C618      1.0  0.90104  0.05660  0.04515  1.0000
  H   H1030     1.0  0.90029  0.08769  0.00927  1.0000
  C   C619      1.0  0.74570  0.18105  0.80810  1.0000
  H   H1031     1.0  0.86320  0.06779  0.09871  1.0000
  H   H1032     1.0  0.89030  0.04619  0.05087  1.0000
  C   C620      1.0  0.87315  0.12516  0.71659  1.0000
  H   H1033     1.0  0.87947  0.11334  0.69597  1.0000
  H   H1034     1.0  0.94666  0.03889  0.19216  1.0000
  H   H1035     1.0  0.89545  0.03935  0.52535  1.0000
  H   H1036     1.0  0.89097  0.05196  0.44676  1.0000
  H   H1037     1.0  0.89618  0.01342  0.26377  1.0000
  H   H1038     1.0  0.93369  0.07385  0.38388  1.0000
  C   C621      1.0  0.98088  0.99451  0.38365  1.0000
  H   H1039     1.0  0.89470  0.02227  0.41136  1.0000
  H   H1040     1.0  0.89212  0.02697  0.58009  1.0000
  C   C622      1.0  0.94199  0.04126  0.38801  1.0000
  C   C623      1.0  0.97580  0.05814  0.25485  1.0000
  S   S176      1.0  0.80084  0.21024  0.92344  1.0000
  H   H1041     1.0  0.96749  0.03811  0.31113  1.0000
  H   H1042     1.0  0.98394  0.14410  0.26686  1.0000
  H   H1043     1.0  0.84867  0.18304  0.45173  1.0000
  H   H1044     1.0  0.78156  0.20445  0.75670  1.0000
  H   H1045     1.0  0.89367  0.20375  0.32027  1.0000
  S   S177      1.0  0.82084  0.20452  0.52187  1.0000
  C   C624      1.0  0.97893  0.12788  0.22080  1.0000
  C   C625      1.0  0.95126  0.08937  0.30916  1.0000
  H   H1046     1.0  0.97170  0.09225  0.52354  1.0000
  C   C626      1.0  0.76115  0.21606  0.85649  1.0000
  H   H1047     1.0  0.98144  0.03738  0.60215  1.0000
  H   H1048     1.0  0.86805  0.21941  0.97767  1.0000
  H   H1049     1.0  0.81203  0.22089  0.09599  1.0000
  H   H1050     1.0  0.89323  0.22184  0.35364  1.0000
  H   H1051     1.0  0.93313  0.04816  0.30347  1.0000
  C   C627      1.0  0.88998  0.04555  0.24507  1.0000
  H   H1052     1.0  0.92007  0.16792  0.44101  1.0000
  H   H1053     1.0  0.95200  0.09424  0.27429  1.0000
  C   C628      1.0  0.73177  0.20139  0.58221  1.0000
  H   H1054     1.0  0.66287  0.19922  0.79354  1.0000
  H   H1055     1.0  0.77455  0.17548  0.59547  1.0000
  H   H1056     1.0  0.68894  0.18663  0.92143  1.0000
  H   H1057     1.0  0.74711  0.19497  0.65080  1.0000
  H   H1058     1.0  0.96980  0.09132  0.35532  1.0000
  C   C629      1.0  0.82523  0.10422  0.67030  1.0000
  C   C630      1.0  0.70785  0.14202  0.78866  1.0000
  H   H1059     1.0  0.78159  0.17821  0.64331  1.0000
  H   H1060     1.0  0.77179  0.20456  0.53829  1.0000
  H   H1061     1.0  0.67474  0.11444  0.92507  1.0000
  H   H1062     1.0  0.90838  0.19336  0.39320  1.0000
  C   C631      1.0  0.90747  0.16547  0.46776  1.0000
  H   H1063     1.0  0.96775  0.11171  0.31342  1.0000
  C   C632      1.0  0.85865  0.18667  0.42066  1.0000
  H   H1064     1.0  0.83207  0.09163  0.65165  1.0000
  H   H1065     1.0  0.92680  0.04239  0.40848  1.0000
  H   H1066     1.0  0.69517  0.11598  0.95010  1.0000
  H   H1067     1.0  0.72187  0.19712  0.61289  1.0000
  C   C633      1.0  0.87999  0.02908  0.42707  1.0000
  H   H1068     1.0  0.96381  0.99281  0.49758  1.0000
  H   H1069     1.0  0.93113  0.01477  0.47343  1.0000
  C   C634      1.0  0.88743  0.16739  0.45210  1.0000
  H   H1070     1.0  0.89676  0.00796  0.49831  1.0000
  H   H1071     1.0  0.96646  0.11362  0.55238  1.0000
  H   H1072     1.0  0.88909  0.03671  0.12192  1.0000
  C   C635      1.0  0.93245  0.06440  0.30358  1.0000
  S   S178      1.0  0.72639  0.19598  0.73938  1.0000
  C   C636      1.0  0.75676  0.22871  0.81366  1.0000
  S   S179      1.0  0.85574  0.07497  0.49572  1.0000
  C   C637      1.0  0.94629  0.06251  0.36935  1.0000
  H   H1073     1.0  0.85057  0.20140  0.40655  1.0000
  C   C638      1.0  0.99019  0.13194  0.24833  1.0000
  H   H1074     1.0  0.71733  0.12779  0.80150  1.0000
  C   C639      1.0  0.74360  0.17869  0.76764  1.0000
  H   H1075     1.0  0.98179  0.05477  0.31866  1.0000
  C   C640      1.0  0.96936  0.09516  0.32090  1.0000
  H   H1076     1.0  0.89902  0.17699  0.37165  1.0000
  H   H1077     1.0  0.89977  0.07140  0.30782  1.0000
  C   C641      1.0  0.93332  0.01270  0.50712  1.0000
  H   H1078     1.0  0.90881  0.08968  0.32636  1.0000
  N   N45       1.0  0.94974  0.06753  0.32146  1.0000
  C   C642      1.0  0.92018  0.02205  0.10948  1.0000
  H   H1079     1.0  0.87615  0.16332  0.48068  1.0000
  C   C643      1.0  0.91099  0.07333  0.32581  1.0000
  H   H1080     1.0  0.67493  0.13664  0.94661  1.0000
  H   H1081     1.0  0.74881  0.20771  0.87070  1.0000
  C   C644      1.0  0.89406  0.19085  0.38677  1.0000
  H   H1082     1.0  0.93358  0.07123  0.26946  1.0000
  H   H1083     1.0  0.86322  0.15565  0.40652  1.0000
  H   H1084     1.0  0.91503  0.04896  0.02565  1.0000
  H   H1085     1.0  0.87415  0.04734  0.25966  1.0000
  H   H1086     1.0  0.86399  0.21641  0.92723  1.0000
  H   H1087     1.0  0.94283  0.03168  0.36395  1.0000
  H   H1088     1.0  0.75431  0.21836  0.79446  1.0000
  C   C645      1.0  0.90244  0.02636  0.24737  1.0000
  H   H1089     1.0  0.91013  0.99014  0.60194  1.0000
  C   C646      1.0  0.83869  0.22909  0.70582  1.0000
  H   H1090     1.0  0.98016  0.08976  0.57221  1.0000
  C   C647      1.0  0.76107  0.21814  0.54845  1.0000
  C   C648      1.0  0.95626  0.00764  0.50693  1.0000
  N   N46       1.0  0.92116  0.99793  0.53464  1.0000
  H   H1091     1.0  0.72077  0.21067  0.56209  1.0000
  H   H1092     1.0  0.98431  0.13530  0.39876  1.0000
  H   H1093     1.0  0.95827  0.15055  0.45156  1.0000
  C   C649      1.0  0.96265  0.14208  0.48197  1.0000
  H   H1094     1.0  0.88944  0.99586  0.55090  1.0000
  S   S180      1.0  0.93793  0.99967  0.22926  1.0000
  H   H1095     1.0  0.71087  0.22081  0.65230  1.0000
  C   C650      1.0  0.80634  0.21298  0.07581  1.0000
  H   H1096     1.0  0.79948  0.22059  0.80816  1.0000
  H   H1097     1.0  0.96442  0.05618  0.23745  1.0000
  H   H1098     1.0  0.70858  0.17736  0.88050  1.0000
  H   H1099     1.0  0.82406  0.22798  0.02311  1.0000
  H   H1100     1.0  0.66538  0.15635  0.81544  1.0000
  C   C651      1.0  0.66807  0.14662  0.84592  1.0000
  Fe  Fe87      1.0  0.70632  0.22153  0.77146  1.0000
  H   H1101     1.0  0.76131  0.22555  0.88027  1.0000
  H   H1102     1.0  0.88392  0.23270  0.77274  1.0000
  H   H1103     1.0  0.98765  0.14506  0.50878  1.0000
  H   H1104     1.0  0.67140  0.13096  0.83858  1.0000
  H   H1105     1.0  0.79066  0.22084  0.07236  1.0000
  C   C652      1.0  0.98570  0.13962  0.48015  1.0000
  H   H1106     1.0  0.81564  0.99377  0.38935  1.0000
  C   C653      1.0  0.75165  0.22930  0.50937  1.0000
  H   H1107     1.0  0.98992  0.04716  0.24558  1.0000
  H   H1108     1.0  0.86837  0.23116  0.41071  1.0000
  H   H1109     1.0  0.74179  0.22077  0.50064  1.0000
  H   H1110     1.0  0.77095  0.22761  0.55400  1.0000
  H   H1111     1.0  0.76404  0.23112  0.48161  1.0000
  C   C654      1.0  0.72052  0.23214  0.64596  1.0000
  C   C655      1.0  0.73403  0.23314  0.60132  1.0000
  Fe  Fe88      1.0  0.81809  0.23348  0.54603  1.0000
  H   H1112     1.0  0.72970  0.22940  0.67133  1.0000
  H   H1113     1.0  0.99171  0.00317  0.43347  1.0000
  H   H1114     1.0  0.99095  0.15058  0.45242  1.0000
  S   S181      1.0  0.67603  0.23351  0.75227  1.0000
  Fe  Fe89      1.0  0.66500  0.23472  0.82199  1.0000
  H   H1115     1.0  0.86541  0.23451  0.46477  1.0000
  H   H1116     1.0  0.94909  0.98707  0.61414  1.0000
  H   H1117     1.0  0.78609  0.28017  0.82456  1.0000
  C   C656      1.0  0.69759  0.28841  0.65348  1.0000
  H   H1118     1.0  0.74123  0.37634  0.60134  1.0000
  Fe  Fe90      1.0  0.85042  0.46555  0.74745  1.0000
  S   S182      1.0  0.82503  0.47285  0.80173  1.0000
  S   S183      1.0  0.86808  0.43423  0.74252  1.0000
  H   H1119     1.0  0.87495  0.31488  0.65342  1.0000
  H   H1120     1.0  0.77595  0.28361  0.77788  1.0000
  H   H1121     1.0  0.86252  0.25664  0.72807  1.0000
  H   H1122     1.0  0.79815  0.35472  0.63627  1.0000
  C   C657      1.0  0.90629  0.43417  0.93413  1.0000
  H   H1123     1.0  0.87821  0.33988  0.88901  1.0000
  Fe  Fe91      1.0  0.81292  0.35126  0.80580  1.0000
  S   S184      1.0  0.79839  0.36045  0.74810  1.0000
  S   S185      1.0  0.81397  0.37329  0.84725  1.0000
  Fe  Fe92      1.0  0.82498  0.30760  0.79422  1.0000
  S   S186      1.0  0.81130  0.31262  0.73551  1.0000
  S   S187      1.0  0.84520  0.27862  0.81592  1.0000
  Fe  Fe93      1.0  0.82520  0.33994  0.71650  1.0000
  S   S188      1.0  0.84001  0.35129  0.65039  1.0000
  Fe  Fe94      1.0  0.78550  0.33267  0.77159  1.0000
  S   S189      1.0  0.75359  0.33562  0.76276  1.0000
  S   S190      1.0  0.84114  0.33329  0.77225  1.0000
  S   S191      1.0  0.79779  0.32501  0.83254  1.0000
  H   H1124     1.0  0.74084  0.32761  0.55007  1.0000
  C   C658      1.0  0.87378  0.27457  0.64815  1.0000
  C   C659      1.0  0.84447  0.31365  0.54621  1.0000
  H   H1125     1.0  0.68048  0.29533  0.60264  1.0000
  H   H1126     1.0  0.76244  0.33896  0.53485  1.0000
  C   C660      1.0  0.88253  0.30956  0.68141  1.0000
  H   H1127     1.0  0.70593  0.29041  0.79424  1.0000
  H   H1128     1.0  0.75309  0.31070  0.69725  1.0000
  H   H1129     1.0  0.77375  0.45952  0.80171  1.0000
  H   H1130     1.0  0.83508  0.31055  0.65421  1.0000
  H   H1131     1.0  0.78992  0.25356  0.91979  1.0000
  H   H1132     1.0  0.72961  0.44235  0.80008  1.0000
  C   C661      1.0  0.73528  0.45269  0.77199  1.0000
  C   C662      1.0  0.74907  0.33735  0.56035  1.0000
  H   H1133     1.0  0.76964  0.29455  0.66132  1.0000
  H   H1134     1.0  0.72767  0.38040  0.65224  1.0000
  H   H1135     1.0  0.78176  0.33185  0.67761  1.0000
  H   H1136     1.0  0.87473  0.33460  0.83888  1.0000
  H   H1137     1.0  0.77031  0.36152  0.57020  1.0000
  H   H1138     1.0  0.91477  0.48028  0.83570  1.0000
  H   H1139     1.0  0.79067  0.34093  0.57522  1.0000
  H   H1140     1.0  0.84903  0.36008  0.55906  1.0000
  C   C663      1.0  0.72232  0.28664  0.84552  1.0000
  H   H1141     1.0  0.86039  0.44199  0.93569  1.0000
  H   H1142     1.0  0.78321  0.44374  0.87231  1.0000
  H   H1143     1.0  0.79892  0.31070  0.93357  1.0000
  C   C664      1.0  0.85421  0.41653  0.77272  1.0000
  C   C665      1.0  0.84528  0.41815  0.81517  1.0000
  C   C666      1.0  0.83364  0.40424  0.83873  1.0000
  C   C667      1.0  0.83040  0.38915  0.81937  1.0000
  C   C668      1.0  0.83952  0.38743  0.77707  1.0000
  C   C669      1.0  0.85166  0.40093  0.75398  1.0000
  H   H1144     1.0  0.84733  0.43014  0.82970  1.0000
  H   H1145     1.0  0.82659  0.40560  0.87145  1.0000
  H   H1146     1.0  0.83684  0.37610  0.76155  1.0000
  H   H1147     1.0  0.85848  0.39972  0.72105  1.0000
  C   C670      1.0  0.74084  0.31763  0.79606  1.0000
  C   C671      1.0  0.72606  0.31122  0.78160  1.0000
  C   C672      1.0  0.73611  0.29398  0.86127  1.0000
  C   C673      1.0  0.74567  0.30922  0.83619  1.0000
  H   H1148     1.0  0.72192  0.31799  0.75103  1.0000
  H   H1149     1.0  0.74016  0.28717  0.89192  1.0000
  H   H1150     1.0  0.75679  0.31436  0.84783  1.0000
  H   H1151     1.0  0.85709  0.27727  0.65977  1.0000
  C   C674      1.0  0.90201  0.45654  0.91411  1.0000
  C   C675      1.0  0.90446  0.44622  0.84405  1.0000
  H   H1152     1.0  0.74325  0.24472  0.51406  1.0000
  H   H1153     1.0  0.88565  0.26843  0.88606  1.0000
  C   C676      1.0  0.92113  0.27124  0.69675  1.0000
  H   H1154     1.0  0.84151  0.32191  0.97441  1.0000
  C   C677      1.0  0.73195  0.28513  0.58880  1.0000
  H   H1155     1.0  0.86278  0.35804  0.85649  1.0000
  H   H1156     1.0  0.86457  0.47057  0.85239  1.0000
  C   C678      1.0  0.76547  0.25365  0.75066  1.0000
  H   H1157     1.0  0.90239  0.43082  0.85865  1.0000
  H   H1158     1.0  0.92113  0.44532  0.83827  1.0000
  H   H1159     1.0  0.88185  0.24004  0.69865  1.0000
  C   C679      1.0  0.77407  0.25454  0.81931  1.0000
  H   H1160     1.0  0.85729  0.23614  0.82988  1.0000
  H   H1161     1.0  0.85213  0.29628  0.97722  1.0000
  Fe  Fe95      1.0  0.81585  0.25334  0.62182  1.0000
  C   C680      1.0  0.87696  0.28975  0.70703  1.0000
  N   N47       1.0  0.88485  0.27137  0.68499  1.0000
  S   S192      1.0  0.84499  0.29949  0.50625  1.0000
  H   H1162     1.0  0.80700  0.28074  0.87665  1.0000
  H   H1163     1.0  0.75889  0.26119  0.83571  1.0000
  H   H1164     1.0  0.74425  0.24353  0.60065  1.0000
  Fe  Fe96      1.0  0.69913  0.25273  0.83068  1.0000
  H   H1165     1.0  0.71876  0.28273  0.69631  1.0000
  H   H1166     1.0  0.87719  0.30828  0.99500  1.0000
  C   C681      1.0  0.78491  0.27219  0.79903  1.0000
  S   S193      1.0  0.67601  0.28773  0.69347  1.0000
  N   N48       1.0  0.77081  0.43221  0.78198  1.0000
  C   C682      1.0  0.79180  0.42598  0.75717  1.0000
  C   C683      1.0  0.76310  0.41331  0.80316  1.0000
  C   C684      1.0  0.75754  0.44512  0.75181  1.0000
  C   C685      1.0  0.80301  0.44311  0.73511  1.0000
  C   C686      1.0  0.75598  0.40234  0.77383  1.0000
  H   H1167     1.0  0.80166  0.41537  0.77794  1.0000
  H   H1168     1.0  0.79149  0.41742  0.73173  1.0000
  H   H1169     1.0  0.77501  0.40209  0.81810  1.0000
  H   H1170     1.0  0.75568  0.44714  0.83651  1.0000
  H   H1171     1.0  0.76343  0.45898  0.73680  1.0000
  H   H1172     1.0  0.75801  0.43765  0.72408  1.0000
  H   H1173     1.0  0.79608  0.45240  0.70817  1.0000
  H   H1174     1.0  0.80391  0.45290  0.75749  1.0000
  H   H1175     1.0  0.81883  0.43646  0.72152  1.0000
  H   H1176     1.0  0.89902  0.30846  0.67086  1.0000
  H   H1177     1.0  0.75322  0.38747  0.79141  1.0000
  H   H1178     1.0  0.74149  0.41084  0.76437  1.0000
  H   H1179     1.0  0.81120  0.31801  0.96924  1.0000
  H   H1180     1.0  0.75038  0.41627  0.83021  1.0000
  C   C687      1.0  0.73386  0.36854  0.63148  1.0000
  H   H1181     1.0  0.86010  0.29245  0.71563  1.0000
  S   S194      1.0  0.79398  0.23855  0.60342  1.0000
  C   C688      1.0  0.81433  0.26517  0.87579  1.0000
  C   C689      1.0  0.77840  0.35102  0.59416  1.0000
  C   C690      1.0  0.71258  0.29034  0.57846  1.0000
  S   S195      1.0  0.80262  0.28368  0.58955  1.0000
  H   H1182     1.0  0.77706  0.26244  0.73282  1.0000
  H   H1183     1.0  0.79880  0.37157  0.58748  1.0000
  H   H1184     1.0  0.76743  0.39948  0.74491  1.0000
  C   C691      1.0  0.84027  0.30543  0.58922  1.0000
  C   C692      1.0  0.69543  0.29195  0.61074  1.0000
  C   C693      1.0  0.90730  0.26802  0.66794  1.0000
  H   H1185     1.0  0.85951  0.26886  0.90505  1.0000
  H   H1186     1.0  0.73876  0.35209  0.56232  1.0000
  C   C694      1.0  0.84154  0.33677  0.61054  1.0000
  H   H1187     1.0  0.78507  0.41910  0.86013  1.0000
  C   C695      1.0  0.71700  0.29557  0.80605  1.0000
  C   C696      1.0  0.87881  0.25744  0.62088  1.0000
  H   H1188     1.0  0.83887  0.28989  0.59792  1.0000
  H   H1189     1.0  0.75497  0.35816  0.67512  1.0000
  H   H1190     1.0  0.77731  0.37580  0.62904  1.0000
  H   H1191     1.0  0.73883  0.34203  0.67673  1.0000
  H   H1192     1.0  0.73342  0.46767  0.78180  1.0000
  H   H1193     1.0  0.74223  0.32179  0.62424  1.0000
  H   H1194     1.0  0.90637  0.24007  0.74337  1.0000
  H   H1195     1.0  0.90248  0.46366  0.78008  1.0000
  C   C697      1.0  0.84644  0.34486  0.56755  1.0000
  H   H1196     1.0  0.90585  0.43712  0.78283  1.0000
  H   H1197     1.0  0.77808  0.29886  0.70591  1.0000
  C   C698      1.0  0.78858  0.36392  0.61344  1.0000
  C   C699      1.0  0.76887  0.30615  0.68104  1.0000
  H   H1198     1.0  0.76653  0.31307  0.59494  1.0000
  H   H1199     1.0  0.80884  0.33310  0.91759  1.0000
  S   S196      1.0  0.71361  0.26494  0.87294  1.0000
  H   H1200     1.0  0.72105  0.36280  0.62585  1.0000
  H   H1201     1.0  0.71081  0.29264  0.54548  1.0000
  H   H1202     1.0  0.88177  0.28763  0.73820  1.0000
  C   C700      1.0  0.77790  0.32406  0.65443  1.0000
  H   H1203     1.0  0.80045  0.26712  0.78178  1.0000
  N   N49       1.0  0.76480  0.33875  0.62576  1.0000
  H   H1204     1.0  0.80180  0.43536  0.82886  1.0000
  C   C701      1.0  0.75561  0.32696  0.60304  1.0000
  Fe  Fe97      1.0  0.68234  0.26404  0.74930  1.0000
  C   C702      1.0  0.89806  0.44995  0.80024  1.0000
  S   S197      1.0  0.75301  0.28144  0.54799  1.0000
  C   C703      1.0  0.74853  0.35152  0.65378  1.0000
  H   H1205     1.0  0.79274  0.31754  0.63584  1.0000
  C   C704      1.0  0.83839  0.31706  0.62125  1.0000
  C   C705      1.0  0.78618  0.43480  0.84584  1.0000
  H   H1206     1.0  0.85121  0.33978  0.50223  1.0000
  C   C706      1.0  0.84779  0.33335  0.53541  1.0000
  C   C707      1.0  0.77088  0.44428  0.81591  1.0000
  H   H1207     1.0  0.72536  0.45404  0.74843  1.0000
  N   N50       1.0  0.85082  0.31206  0.91270  1.0000
  C   C708      1.0  0.83168  0.30458  0.91497  1.0000
  C   C709      1.0  0.86786  0.29878  0.88733  1.0000
  C   C710      1.0  0.84803  0.33347  0.88982  1.0000
  C   C711      1.0  0.85382  0.31111  0.95766  1.0000
  C   C712      1.0  0.81174  0.31756  0.93512  1.0000
  C   C713      1.0  0.87201  0.27623  0.90605  1.0000
  H   H1208     1.0  0.93332  0.25766  0.70055  1.0000
  C   C714      1.0  0.87361  0.31606  0.96348  1.0000
  H   H1209     1.0  0.82989  0.30325  0.88249  1.0000
  H   H1210     1.0  0.83230  0.28922  0.93357  1.0000
  H   H1211     1.0  0.88241  0.30376  0.88235  1.0000
  H   H1212     1.0  0.86492  0.29998  0.85447  1.0000
  H   H1213     1.0  0.83923  0.33518  0.86395  1.0000
  H   H1214     1.0  0.83891  0.34417  0.91172  1.0000
  C   C715      1.0  0.73419  0.28232  0.63130  1.0000
  C   C716      1.0  0.71701  0.28429  0.66364  1.0000
  H   H1215     1.0  0.88702  0.31049  0.94030  1.0000
  H   H1216     1.0  0.87151  0.43084  0.88753  1.0000
  S   S198      1.0  0.71362  0.25202  0.76230  1.0000
  H   H1217     1.0  0.75154  0.26494  0.76023  1.0000
  H   H1218     1.0  0.75049  0.25366  0.69848  1.0000
  C   C717      1.0  0.83311  0.26021  0.84945  1.0000
  H   H1219     1.0  0.91040  0.27811  0.63711  1.0000
  H   H1220     1.0  0.87198  0.33251  0.96253  1.0000
  H   H1221     1.0  0.88734  0.25722  0.77482  1.0000
  H   H1222     1.0  0.89325  0.42684  0.93860  1.0000
  H   H1223     1.0  0.91349  0.27415  0.72910  1.0000
  H   H1224     1.0  0.74916  0.27851  0.63901  1.0000
  Fe  Fe98      1.0  0.78392  0.26823  0.56404  1.0000
  H   H1225     1.0  0.87181  0.24448  0.63748  1.0000
  H   H1226     1.0  0.89164  0.46504  0.93888  1.0000
  C   C718      1.0  0.86725  0.34166  0.86772  1.0000
  Fe  Fe99      1.0  0.82700  0.27551  0.53478  1.0000
  H   H1227     1.0  0.87686  0.28815  0.62530  1.0000
  H   H1228     1.0  0.87513  0.27372  0.93890  1.0000
  C   C719      1.0  0.88999  0.24580  0.75350  1.0000
  C   C720      1.0  0.89846  0.48176  0.85049  1.0000
  S   S199      1.0  0.66801  0.26674  0.81730  1.0000
  H   H1229     1.0  0.87714  0.32158  0.70188  1.0000
  S   S200      1.0  0.80721  0.26249  0.50580  1.0000
  H   H1230     1.0  0.86387  0.47450  0.90408  1.0000
  H   H1231     1.0  0.88161  0.45084  0.80336  1.0000
  H   H1232     1.0  0.78215  0.24595  0.84528  1.0000
  H   H1233     1.0  0.92890  0.28386  0.68124  1.0000
  H   H1234     1.0  0.77512  0.23913  0.69311  1.0000
  H   H1235     1.0  0.91966  0.42552  0.91502  1.0000
  C   C721      1.0  0.80469  0.24979  0.90028  1.0000
  H   H1236     1.0  0.72387  0.24092  0.57827  1.0000
  H   H1237     1.0  0.71011  0.24689  0.64872  1.0000
  S   S201      1.0  0.82392  0.25192  0.68565  1.0000
  N   N51       1.0  0.89383  0.46160  0.87297  1.0000
  S   S202      1.0  0.84096  0.24570  0.56788  1.0000
  H   H1238     1.0  0.89524  0.25235  0.61012  1.0000
  N   N52       1.0  0.77238  0.24076  0.78994  1.0000
  C   C722      1.0  0.87905  0.25334  0.71519  1.0000
  H   H1239     1.0  0.84748  0.44652  0.89126  1.0000
  C   C723      1.0  0.86252  0.44451  0.90036  1.0000
  H   H1240     1.0  0.91005  0.43309  0.96616  1.0000
  S   S203      1.0  0.83326  0.48256  0.69607  1.0000
  H   H1241     1.0  0.83658  0.23879  0.76606  1.0000
  C   C724      1.0  0.76129  0.24297  0.71682  1.0000
  H   H1242     1.0  0.74181  0.23887  0.82063  1.0000
  H   H1243     1.0  0.87213  0.26316  0.59160  1.0000
  H   H1244     1.0  0.91290  0.25244  0.66019  1.0000
  C   C725      1.0  0.84260  0.24007  0.84933  1.0000
  H   H1245     1.0  0.91677  0.46135  0.90929  1.0000
  C   C726      1.0  0.87114  0.46362  0.88147  1.0000
  H   H1246     1.0  0.80332  0.23748  0.76192  1.0000
  H   H1247     1.0  0.79454  0.56589  0.73497  1.0000
  Fe  Fe100     1.0  0.71020  0.60511  0.72321  1.0000
  S   S204      1.0  0.69563  0.63566  0.73919  1.0000
  S   S205      1.0  0.71428  0.60266  0.65411  1.0000
  Fe  Fe101     1.0  0.71400  0.58841  0.81446  1.0000
  S   S206      1.0  0.70001  0.61799  0.83808  1.0000
  S   S207      1.0  0.72664  0.56130  0.85799  1.0000
  Fe  Fe102     1.0  0.67773  0.61986  0.79570  1.0000
  H   H1248     1.0  0.81235  0.53741  0.56762  1.0000
  Fe  Fe103     1.0  0.71928  0.63103  0.77926  1.0000
  S   S208      1.0  0.73599  0.65636  0.77016  1.0000
  S   S209      1.0  0.69030  0.58930  0.77614  1.0000
  S   S210      1.0  0.73533  0.60126  0.75934  1.0000
  Fe  Fe104     1.0  0.83179  0.65782  0.54154  1.0000
  S   S211      1.0  0.83992  0.65780  0.60456  1.0000
  S   S212      1.0  0.85494  0.65038  0.48370  1.0000
  Fe  Fe105     1.0  0.78703  0.66918  0.57432  1.0000
  S   S213      1.0  0.79105  0.67058  0.64025  1.0000
  S   S214      1.0  0.75706  0.67358  0.55430  1.0000
  Fe  Fe106     1.0  0.81643  0.68616  0.60707  1.0000
  S   S215      1.0  0.82283  0.71282  0.62822  1.0000
  Fe  Fe107     1.0  0.81415  0.64216  0.63227  1.0000
  S   S216      1.0  0.81725  0.61758  0.68788  1.0000
  S   S217      1.0  0.81027  0.68757  0.54141  1.0000
  S   S218      1.0  0.80805  0.63937  0.56902  1.0000
  Fe  Fe108     1.0  0.86400  0.65907  0.82274  1.0000
  S   S219      1.0  0.84760  0.66217  0.88957  1.0000
  S   S220      1.0  0.87329  0.68590  0.77769  1.0000
  Fe  Fe109     1.0  0.86518  0.61420  0.83526  1.0000
  S   S221      1.0  0.84857  0.61334  0.90270  1.0000
  Fe  Fe110     1.0  0.82876  0.64201  0.87766  1.0000
  S   S222      1.0  0.79492  0.64894  0.89909  1.0000
  Fe  Fe111     1.0  0.86876  0.63355  0.90865  1.0000
  S   S223      1.0  0.88515  0.62649  0.96430  1.0000
  S   S224      1.0  0.84359  0.64105  0.80965  1.0000
  S   S225      1.0  0.88692  0.63210  0.84277  1.0000
  C   C727      1.0  0.89215  0.64546  0.98367  1.0000
  C   C728      1.0  0.88475  0.66595  0.97119  1.0000
  C   C729      1.0  0.89230  0.68054  0.98445  1.0000
  C   C730      1.0  0.90716  0.67466  0.01031  1.0000
  C   C731      1.0  0.91359  0.65423  0.02460  1.0000
  C   C732      1.0  0.90621  0.63971  0.01117  1.0000
  H   H1249     1.0  0.87345  0.67050  0.95096  1.0000
  H   H1250     1.0  0.88688  0.69635  0.97414  1.0000
  H   H1251     1.0  0.91163  0.62390  0.02169  1.0000
  C   C733      1.0  0.76166  0.51224  0.77944  1.0000
  C   C734      1.0  0.83443  0.59029  0.63211  1.0000
  H   H1252     1.0  0.68330  0.69576  0.58890  1.0000
  Fe  Fe112     1.0  0.83863  0.49962  0.79906  1.0000
  C   C735      1.0  0.88762  0.61041  0.68793  1.0000
  H   H1253     1.0  0.76990  0.56104  0.74013  1.0000
  N   N53       1.0  0.77531  0.55929  0.64820  1.0000
  H   H1254     1.0  0.87260  0.66324  0.54398  1.0000
  C   C736      1.0  0.83764  0.70508  0.66832  1.0000
  C   C737      1.0  0.84071  0.68512  0.68841  1.0000
  C   C738      1.0  0.85227  0.67908  0.72084  1.0000
  C   C739      1.0  0.86034  0.69302  0.73434  1.0000
  C   C740      1.0  0.85740  0.71301  0.71404  1.0000
  C   C741      1.0  0.84602  0.71905  0.68115  1.0000
  H   H1255     1.0  0.83388  0.67433  0.67968  1.0000
  H   H1256     1.0  0.85501  0.66356  0.73507  1.0000
  H   H1257     1.0  0.86366  0.72389  0.72420  1.0000
  C   C742      1.0  0.93074  0.72591  0.39177  1.0000
  H   H1258     1.0  0.92433  0.64951  0.04587  1.0000
  H   H1259     1.0  0.74751  0.69425  0.67284  1.0000
  Fe  Fe113     1.0  0.94261  0.68008  0.06274  1.0000
  H   H1260     1.0  0.72825  0.71614  0.66705  1.0000
  H   H1261     1.0  0.92958  0.71351  0.17942  1.0000
  H   H1262     1.0  0.89881  0.63857  0.66033  1.0000
  H   H1263     1.0  0.86055  0.57111  0.88153  1.0000
  S   S226      1.0  0.87774  0.58904  0.79659  1.0000
  H   H1264     1.0  0.87062  0.71588  0.59238  1.0000
  C   C743      1.0  0.72650  0.62202  0.62555  1.0000
  C   C744      1.0  0.72438  0.62967  0.58331  1.0000
  C   C745      1.0  0.73379  0.64555  0.56117  1.0000
  C   C746      1.0  0.74590  0.65325  0.58082  1.0000
  C   C747      1.0  0.74852  0.64513  0.62249  1.0000
  C   C748      1.0  0.73840  0.62995  0.64517  1.0000
  H   H1265     1.0  0.71515  0.62361  0.56802  1.0000
  H   H1266     1.0  0.73181  0.65178  0.52881  1.0000
  H   H1267     1.0  0.75788  0.65094  0.63785  1.0000
  H   H1268     1.0  0.74018  0.62419  0.67767  1.0000
  C   C749      1.0  0.75249  0.65291  0.80622  1.0000
  C   C750      1.0  0.74478  0.65499  0.84892  1.0000
  C   C751      1.0  0.75799  0.65380  0.87701  1.0000
  C   C752      1.0  0.77895  0.65044  0.86263  1.0000
  C   C753      1.0  0.78664  0.64845  0.81983  1.0000
  C   C754      1.0  0.77343  0.64965  0.79167  1.0000
  H   H1269     1.0  0.72860  0.65770  0.86022  1.0000
  H   H1270     1.0  0.75193  0.65539  0.91006  1.0000
  H   H1271     1.0  0.80271  0.64583  0.80825  1.0000
  H   H1272     1.0  0.77949  0.64797  0.75861  1.0000
  H   H1273     1.0  0.77747  0.55328  0.58387  1.0000
  C   C755      1.0  0.75768  0.52993  0.83924  1.0000
  H   H1274     1.0  0.81296  0.55698  0.80167  1.0000
  C   C756      1.0  0.93839  0.68432  0.82484  1.0000
  C   C757      1.0  0.89915  0.73182  0.10039  1.0000
  H   H1275     1.0  0.91974  0.62015  0.38610  1.0000
  C   C758      1.0  0.72008  0.68762  0.66222  1.0000
  H   H1276     1.0  0.96763  0.58577  0.23437  1.0000
  S   S227      1.0  0.86554  0.49070  0.74887  1.0000
  C   C759      1.0  0.88585  0.63339  0.68266  1.0000
  C   C760      1.0  0.83324  0.57790  0.70721  1.0000
  C   C761      1.0  0.82906  0.59374  0.67454  1.0000
  H   H1277     1.0  0.83155  0.60252  0.60660  1.0000
  H   H1278     1.0  0.82960  0.58052  0.73992  1.0000
  H   H1279     1.0  0.76328  0.53233  0.86607  1.0000
  C   C762      1.0  0.73210  0.53851  0.79465  1.0000
  C   C763      1.0  0.73951  0.54184  0.82891  1.0000
  H   H1280     1.0  0.71791  0.54749  0.78701  1.0000
  C   C764      1.0  0.69013  0.67844  0.65048  1.0000
  H   H1281     1.0  0.66513  0.68783  0.77078  1.0000
  H   H1282     1.0  0.72533  0.67155  0.67540  1.0000
  H   H1283     1.0  0.72644  0.68910  0.62761  1.0000
  H   H1284     1.0  0.98034  0.71781  0.25303  1.0000
  H   H1285     1.0  0.69777  0.66269  0.66060  1.0000
  H   H1286     1.0  0.88997  0.48774  0.82367  1.0000
  H   H1287     1.0  0.83209  0.72073  0.44411  1.0000
  H   H1288     1.0  0.90835  0.68094  0.43076  1.0000
  H   H1289     1.0  0.88913  0.69874  0.56301  1.0000
  N   N54       1.0  0.90679  0.64430  0.30892  1.0000
  C   C765      1.0  0.92592  0.62939  0.31636  1.0000
  C   C766      1.0  0.91132  0.65705  0.26603  1.0000
  C   C767      1.0  0.89008  0.63372  0.30866  1.0000
  C   C768      1.0  0.90010  0.65682  0.34452  1.0000
  H   H1290     1.0  0.87868  0.62797  0.61016  1.0000
  C   C769      1.0  0.92331  0.67348  0.26452  1.0000
  C   C770      1.0  0.89506  0.61877  0.27638  1.0000
  C   C771      1.0  0.88134  0.67397  0.34062  1.0000
  C   C772      1.0  0.84210  0.55857  0.69776  1.0000
  C   C773      1.0  0.89265  0.57939  0.65727  1.0000
  H   H1291     1.0  0.89726  0.66458  0.25336  1.0000
  H   H1292     1.0  0.92017  0.64750  0.24163  1.0000
  H   H1293     1.0  0.88511  0.62556  0.34089  1.0000
  H   H1294     1.0  0.87630  0.64483  0.30127  1.0000
  H   H1295     1.0  0.89622  0.64729  0.37559  1.0000
  H   H1296     1.0  0.91270  0.66325  0.34903  1.0000
  H   H1297     1.0  0.89809  0.60358  0.71051  1.0000
  H   H1298     1.0  0.91883  0.63033  0.89218  1.0000
  H   H1299     1.0  0.88535  0.63769  0.71416  1.0000
  H   H1300     1.0  0.91367  0.68623  0.28013  1.0000
  H   H1301     1.0  0.93697  0.66763  0.27928  1.0000
  H   H1302     1.0  0.92844  0.67972  0.23085  1.0000
  H   H1303     1.0  0.90736  0.60584  0.28376  1.0000
  H   H1304     1.0  0.89913  0.62618  0.24315  1.0000
  H   H1305     1.0  0.88146  0.61252  0.27792  1.0000
  H   H1306     1.0  0.86790  0.66990  0.36351  1.0000
  H   H1307     1.0  0.87740  0.67782  0.30844  1.0000
  H   H1308     1.0  0.88422  0.68792  0.34825  1.0000
  N   N55       1.0  0.78633  0.58289  0.86521  1.0000
  C   C774      1.0  0.79810  0.56154  0.86704  1.0000
  C   C775      1.0  0.78936  0.59147  0.90214  1.0000
  C   C776      1.0  0.79346  0.59563  0.82417  1.0000
  C   C777      1.0  0.76440  0.58265  0.86738  1.0000
  C   C778      1.0  0.80083  0.55178  0.82683  1.0000
  C   C779      1.0  0.77876  0.58300  0.94648  1.0000
  C   C780      1.0  0.81559  0.59810  0.81705  1.0000
  C   C781      1.0  0.74943  0.60300  0.86979  1.0000
  H   H1309     1.0  0.81346  0.56040  0.87363  1.0000
  H   H1310     1.0  0.79078  0.55158  0.89407  1.0000
  H   H1311     1.0  0.78457  0.60815  0.89782  1.0000
  H   H1312     1.0  0.80574  0.58878  0.90376  1.0000
  H   H1313     1.0  0.79129  0.58996  0.79601  1.0000
  H   H1314     1.0  0.78397  0.61090  0.82258  1.0000
  H   H1315     1.0  0.76237  0.57747  0.83858  1.0000
  H   H1316     1.0  0.75884  0.57136  0.89402  1.0000
  H   H1317     1.0  0.76141  0.73423  0.81403  1.0000
  S   S228      1.0  0.98448  0.65939  0.13074  1.0000
  H   H1318     1.0  0.80546  0.53526  0.83514  1.0000
  H   H1319     1.0  0.76204  0.58719  0.94993  1.0000
  H   H1320     1.0  0.78351  0.56643  0.95356  1.0000
  H   H1321     1.0  0.78300  0.58959  0.97104  1.0000
  H   H1322     1.0  0.82630  0.58344  0.81766  1.0000
  H   H1323     1.0  0.81799  0.60652  0.84069  1.0000
  H   H1324     1.0  0.81936  0.60707  0.78521  1.0000
  H   H1325     1.0  0.74789  0.61119  0.83738  1.0000
  H   H1326     1.0  0.75357  0.61293  0.88781  1.0000
  H   H1327     1.0  0.73439  0.60022  0.88719  1.0000
  N   N56       1.0  0.78616  0.71243  0.78601  1.0000
  C   C782      1.0  0.80403  0.69673  0.79807  1.0000
  C   C783      1.0  0.77195  0.70203  0.77332  1.0000
  C   C784      1.0  0.77501  0.72326  0.82287  1.0000
  H   H1328     1.0  0.91330  0.72273  0.11031  1.0000
  H   H1329     1.0  0.96329  0.65234  0.90398  1.0000
  C   C785      1.0  0.77938  0.69382  0.73058  1.0000
  C   C786      1.0  0.76748  0.70968  0.86408  1.0000
  H   H1330     1.0  0.81188  0.70908  0.84897  1.0000
  H   H1331     1.0  0.79905  0.68388  0.82083  1.0000
  H   H1332     1.0  0.78338  0.50680  0.82110  1.0000
  H   H1333     1.0  0.75678  0.71186  0.77228  1.0000
  H   H1334     1.0  0.76876  0.68909  0.79796  1.0000
  H   H1335     1.0  0.98691  0.71757  0.35163  1.0000
  C   C787      1.0  0.98528  0.59570  0.07811  1.0000
  Fe  Fe114     1.0  0.98486  0.63635  0.36929  1.0000
  H   H1336     1.0  0.89499  0.51321  0.85727  1.0000
  C   C788      1.0  0.89345  0.69150  0.43480  1.0000
  H   H1337     1.0  0.93294  0.69971  0.83370  1.0000
  H   H1338     1.0  0.89518  0.60369  0.55738  1.0000
  H   H1339     1.0  0.79419  0.68324  0.72961  1.0000
  H   H1340     1.0  0.76837  0.68523  0.72654  1.0000
  H   H1341     1.0  0.78026  0.70605  0.70299  1.0000
  H   H1342     1.0  0.75617  0.70161  0.85946  1.0000
  H   H1343     1.0  0.97874  0.64720  0.27589  1.0000
  H   H1344     1.0  0.77999  0.69860  0.87689  1.0000
  H   H1345     1.0  0.94272  0.61610  0.87161  1.0000
  C   C789      1.0  0.97669  0.63375  0.26646  1.0000
  H   H1346     1.0  0.92669  0.73071  0.02769  1.0000
  Fe  Fe115     1.0  0.80898  0.49199  0.75029  1.0000
  C   C790      1.0  0.76782  0.58104  0.63125  1.0000
  C   C791      1.0  0.75727  0.55085  0.67342  1.0000
  C   C792      1.0  0.78401  0.59348  0.60969  1.0000
  H   H1347     1.0  0.92639  0.61790  0.46055  1.0000
  H   H1348     1.0  0.75800  0.58242  0.60745  1.0000
  H   H1349     1.0  0.75807  0.58900  0.65733  1.0000
  H   H1350     1.0  0.73491  0.56375  0.63066  1.0000
  H   H1351     1.0  0.73697  0.52054  0.74466  1.0000
  C   C793      1.0  0.85379  0.70944  0.48808  1.0000
  C   C794      1.0  0.97024  0.59915  0.24315  1.0000
  H   H1352     1.0  0.79341  0.59482  0.63220  1.0000
  H   H1353     1.0  0.77635  0.60904  0.59863  1.0000
  H   H1354     1.0  0.79347  0.58767  0.58097  1.0000
  H   H1355     1.0  0.66624  0.73299  0.61970  1.0000
  C   C795      1.0  0.93283  0.72799  0.17999  1.0000
  C   C796      1.0  0.78994  0.55703  0.67798  1.0000
  H   H1356     1.0  0.80374  0.56273  0.66135  1.0000
  C   C797      1.0  0.76901  0.51547  0.81387  1.0000
  H   H1357     1.0  0.69970  0.67689  0.73385  1.0000
  C   C798      1.0  0.89480  0.63221  0.47054  1.0000
  H   H1358     1.0  0.74866  0.56019  0.69835  1.0000
  H   H1359     1.0  0.77668  0.58419  0.70884  1.0000
  C   C799      1.0  0.69021  0.69042  0.71810  1.0000
  H   H1360     1.0  0.81620  0.53431  0.62114  1.0000
  C   C800      1.0  0.69088  0.71454  0.65045  1.0000
  N   N57       1.0  0.69721  0.69301  0.67027  1.0000
  H   H1361     1.0  0.70920  0.68255  0.58605  1.0000
  C   C801      1.0  0.78193  0.56777  0.71753  1.0000
  H   H1362     1.0  0.69237  0.70329  0.73142  1.0000
  C   C802      1.0  0.74158  0.54904  0.64762  1.0000
  H   H1363     1.0  0.95656  0.64668  0.84075  1.0000
  C   C803      1.0  0.85284  0.54386  0.87236  1.0000
  C   C804      1.0  0.73097  0.70003  0.68105  1.0000
  H   H1364     1.0  0.87152  0.64153  0.67186  1.0000
  H   H1365     1.0  0.72888  0.54331  0.67010  1.0000
  C   C805      1.0  0.86051  0.56164  0.85871  1.0000
  C   C806      1.0  0.89154  0.70211  0.47331  1.0000
  C   C807      1.0  0.81891  0.70402  0.81784  1.0000
  H   H1366     1.0  0.66542  0.67353  0.73098  1.0000
  H   H1367     1.0  0.96369  0.67865  0.88483  1.0000
  H   H1368     1.0  0.89576  0.72538  0.07464  1.0000
  H   H1369     1.0  0.84676  0.53975  0.90567  1.0000
  H   H1370     1.0  0.79524  0.54079  0.68955  1.0000
  H   H1371     1.0  0.89285  0.68978  0.50041  1.0000
  H   H1372     1.0  0.85603  0.69381  0.50562  1.0000
  N   N58       1.0  0.89372  0.60139  0.64715  1.0000
  H   H1373     1.0  0.84096  0.71821  0.50851  1.0000
  H   H1374     1.0  0.67379  0.67850  0.66121  1.0000
  H   H1375     1.0  0.92905  0.59348  0.68081  1.0000
  H   H1376     1.0  0.90847  0.73255  0.30504  1.0000
  S   S229      1.0  0.91853  0.69280  0.02203  1.0000
  H   H1377     1.0  0.78446  0.73252  0.83091  1.0000
  S   S230      1.0  0.97285  0.71058  0.16057  1.0000
  C   C808      1.0  0.84344  0.57083  0.62269  1.0000
  C   C809      1.0  0.98407  0.61477  0.28793  1.0000
  S   S231      1.0  0.93575  0.67780  0.13426  1.0000
  H   H1378     1.0  0.91792  0.68915  0.77798  1.0000
  Fe  Fe116     1.0  0.95442  0.67524  0.37925  1.0000
  H   H1379     1.0  0.74793  0.53824  0.62466  1.0000
  H   H1380     1.0  0.76244  0.53552  0.69045  1.0000
  S   S232      1.0  0.95177  0.61993  0.17716  1.0000
  C   C810      1.0  0.86823  0.56698  0.81550  1.0000
  C   C811      1.0  0.79379  0.72752  0.74977  1.0000
  C   C812      1.0  0.78485  0.54711  0.61223  1.0000
  C   C813      1.0  0.74288  0.52328  0.77074  1.0000
  S   S233      1.0  0.96893  0.69524  0.05509  1.0000
  H   H1381     1.0  0.88181  0.68223  0.43990  1.0000
  C   C814      1.0  0.86842  0.55451  0.78631  1.0000
  H   H1382     1.0  0.84114  0.69443  0.44998  1.0000
  C   C815      1.0  0.91459  0.62781  0.47872  1.0000
  Fe  Fe117     1.0  0.95680  0.64784  0.13202  1.0000
  H   H1383     1.0  0.96970  0.71036  0.30827  1.0000
  H   H1384     1.0  0.78247  0.53132  0.62169  1.0000
  Fe  Fe118     1.0  0.96420  0.68964  0.12641  1.0000
  H   H1385     1.0  0.87268  0.60712  0.70548  1.0000
  H   H1386     1.0  0.86258  0.61141  0.63791  1.0000
  H   H1387     1.0  0.92527  0.66172  0.92751  1.0000
  C   C816      1.0  0.87813  0.61176  0.61968  1.0000
  H   H1388     1.0  0.90054  0.66126  0.88743  1.0000
  H   H1389     1.0  0.94576  0.59576  0.63097  1.0000
  H   H1390     1.0  0.95513  0.68141  0.82165  1.0000
  H   H1391     1.0  0.81311  0.68998  0.76983  1.0000
  S   S234      1.0  0.96207  0.64917  0.06110  1.0000
  H   H1392     1.0  0.87410  0.55866  0.75290  1.0000
  H   H1393     1.0  0.87700  0.57762  0.67285  1.0000
  H   H1394     1.0  0.91308  0.61961  0.60355  1.0000
  H   H1395     1.0  0.89842  0.70412  0.83671  1.0000
  Fe  Fe119     1.0  0.84588  0.50862  0.70257  1.0000
  C   C817      1.0  0.87385  0.70844  0.56355  1.0000
  H   H1396     1.0  0.94139  0.69694  0.75759  1.0000
  H   H1397     1.0  0.89612  0.57241  0.62779  1.0000
  C   C818      1.0  0.91432  0.60434  0.62271  1.0000
  S   S235      1.0  0.96113  0.67681  0.44268  1.0000
  H   H1398     1.0  0.88673  0.73020  0.12815  1.0000
  H   H1399     1.0  0.84729  0.56808  0.58997  1.0000
  C   C819      1.0  0.93299  0.67176  0.90151  1.0000
  C   C820      1.0  0.84688  0.55488  0.65574  1.0000
  H   H1400     1.0  0.84542  0.54652  0.72305  1.0000
  C   C821      1.0  0.85251  0.53178  0.84259  1.0000
  C   C822      1.0  0.93099  0.60268  0.64901  1.0000
  H   H1401     1.0  0.87831  0.69251  0.86667  1.0000
  H   H1402     1.0  0.85697  0.71024  0.41711  1.0000
  C   C823      1.0  0.84595  0.70898  0.44711  1.0000
  H   H1403     1.0  0.95373  0.72217  0.27035  1.0000
  H   H1404     1.0  0.92021  0.59368  0.59909  1.0000
  H   H1405     1.0  0.94103  0.67075  0.76700  1.0000
  C   C824      1.0  0.91906  0.63598  0.51087  1.0000
  C   C825      1.0  0.88007  0.60364  0.57763  1.0000
  H   H1406     1.0  0.93781  0.63732  0.31872  1.0000
  H   H1407     1.0  0.90530  0.70865  0.46886  1.0000
  S   S236      1.0  0.84176  0.51031  0.85808  1.0000
  H   H1408     1.0  0.93926  0.60344  0.35764  1.0000
  H   H1409     1.0  0.92614  0.68729  0.90831  1.0000
  H   H1410     1.0  0.69520  0.72493  0.66750  1.0000
  C   C826      1.0  0.90722  0.67159  0.86039  1.0000
  C   C827      1.0  0.92414  0.61337  0.35644  1.0000
  C   C828      1.0  0.96369  0.61805  0.22042  1.0000
  C   C829      1.0  0.89447  0.69289  0.86477  1.0000
  H   H1411     1.0  0.69939  0.71740  0.61730  1.0000
  H   H1412     1.0  0.68962  0.66909  0.59061  1.0000
  C   C830      1.0  0.80795  0.54455  0.59697  1.0000
  C   C831      1.0  0.86058  0.53700  0.79984  1.0000
  S   S237      1.0  0.95170  0.64296  0.39522  1.0000
  H   H1413     1.0  0.93240  0.62114  0.28881  1.0000
  H   H1414     1.0  0.90540  0.57081  0.71681  1.0000
  H   H1415     1.0  0.86868  0.61351  0.55933  1.0000
  H   H1416     1.0  0.86067  0.52762  0.77696  1.0000
  N   N59       1.0  0.87265  0.71788  0.48263  1.0000
  H   H1417     1.0  0.90424  0.66726  0.83151  1.0000
  N   N60       1.0  0.92964  0.66899  0.85888  1.0000
  H   H1418     1.0  0.94098  0.63028  0.91306  1.0000
  C   C832      1.0  0.66812  0.68809  0.73569  1.0000
  H   H1419     1.0  0.89290  0.70215  0.40482  1.0000
  C   C833      1.0  0.93427  0.68510  0.77961  1.0000
  S   S238      1.0  0.82003  0.51948  0.75287  1.0000
  C   C834      1.0  0.90719  0.56578  0.68562  1.0000
  H   H1420     1.0  0.90733  0.65519  0.55912  1.0000
  C   C835      1.0  0.87953  0.64479  0.49447  1.0000
  C   C836      1.0  0.87298  0.72481  0.52380  1.0000
  H   H1421     1.0  0.91360  0.60358  0.35597  1.0000
  H   H1422     1.0  0.72709  0.69828  0.71632  1.0000
  H   H1423     1.0  0.90370  0.55045  0.69259  1.0000
  C   C837      1.0  0.93518  0.63048  0.88371  1.0000
  C   C838      1.0  0.98074  0.59748  0.27644  1.0000
  H   H1424     1.0  0.87661  0.58842  0.58294  1.0000
  H   H1425     1.0  0.89122  0.62562  0.44625  1.0000
  C   C839      1.0  0.92463  0.72113  0.35729  1.0000
  H   H1426     1.0  0.89546  0.69810  0.89421  1.0000
  S   S239      1.0  0.85611  0.53019  0.64507  1.0000
  H   H1427     1.0  0.83140  0.69113  0.82396  1.0000
  H   H1428     1.0  0.86236  0.69904  0.56798  1.0000
  C   C840      1.0  0.88406  0.65291  0.52659  1.0000
  S   S240      1.0  0.93125  0.69659  0.34492  1.0000
  H   H1429     1.0  0.96130  0.65004  0.21544  1.0000
  H   H1430     1.0  0.80371  0.72006  0.72315  1.0000
  H   H1431     1.0  0.93960  0.71444  0.41144  1.0000
  H   H1432     1.0  0.93272  0.61789  0.65208  1.0000
  C   C841      1.0  0.90379  0.64849  0.53490  1.0000
  C   C842      1.0  0.89365  0.49868  0.87832  1.0000
  C   C843      1.0  0.96824  0.72206  0.28006  1.0000
  S   S241      1.0  0.94395  0.63178  0.51896  1.0000
  H   H1433     1.0  0.92312  0.56416  0.66881  1.0000
  C   C844      1.0  0.95523  0.66798  0.90723  1.0000
  C   C845      1.0  0.96682  0.63535  0.23219  1.0000
  Fe  Fe120     1.0  0.96115  0.64383  0.45640  1.0000
  C   C846      1.0  0.93982  0.64822  0.84871  1.0000
  H   H1434     1.0  0.95547  0.67029  0.94004  1.0000
  Fe  Fe121     1.0  0.98765  0.66411  0.06014  1.0000
  H   H1435     1.0  0.87809  0.50060  0.89699  1.0000
  H   H1436     1.0  0.80393  0.73539  0.75973  1.0000
  H   H1437     1.0  0.98731  0.57909  0.08392  1.0000
  S   S242      1.0  0.77642  0.49526  0.74577  1.0000
  H   H1438     1.0  0.78680  0.55449  0.81370  1.0000
  H   H1439     1.0  0.93534  0.64548  0.81976  1.0000
  H   H1440     1.0  0.81333  0.55886  0.58938  1.0000
  C   C847      1.0  0.69339  0.68188  0.60129  1.0000
  H   H1441     1.0  0.82604  0.71583  0.79606  1.0000
  H   H1442     1.0  0.75986  0.71921  0.88912  1.0000
  C   C848      1.0  0.95287  0.73033  0.17363  1.0000
  H   H1443     1.0  0.98628  0.58281  0.29334  1.0000
  H   H1444     1.0  0.97749  0.60121  0.05027  1.0000
  H   H1445     1.0  0.97486  0.60211  0.10533  1.0000
  H   H1446     1.0  0.90456  0.49617  0.90026  1.0000
  H   H1447     1.0  0.87498  0.73193  0.41589  1.0000
  S   S243      1.0  0.98688  0.66864  0.34739  1.0000
  C   C849      1.0  0.66811  0.72234  0.64956  1.0000
  H   H1448     1.0  0.66064  0.73045  0.67699  1.0000
  H   H1449     1.0  0.65983  0.71048  0.64937  1.0000
  H   H1450     1.0  0.84363  0.73454  0.66580  1.0000
  H   H1451     1.0  0.88606  0.73228  0.52017  1.0000
  C   C850      1.0  0.98489  0.73401  0.35163  1.0000
  H   H1452     1.0  0.85683  0.76218  0.47848  1.0000
  Fe  Fe122     1.0  0.92241  0.94674  0.35801  1.0000
  H   H1453     1.0  0.91477  0.95938  0.57419  1.0000
  S   S244      1.0  0.92195  0.91392  0.37501  1.0000
  C   C851      1.0  0.86033  0.94678  0.41742  1.0000
  H   H1454     1.0  0.90835  0.81121  0.05223  1.0000
  H   H1455     1.0  0.89989  0.96515  0.53212  1.0000
  H   H1456     1.0  0.97717  0.90061  0.19359  1.0000
  H   H1457     1.0  0.97778  0.85629  0.33519  1.0000
  Fe  Fe123     1.0  0.94097  0.97753  0.38131  1.0000
  S   S245      1.0  0.90195  0.96980  0.31972  1.0000
  S   S246      1.0  0.91493  0.96303  0.41425  1.0000
  H   H1458     1.0  0.89413  0.86255  0.33759  1.0000
  Fe  Fe124     1.0  0.90992  0.80434  0.22700  1.0000
  N   N61       1.0  0.96977  0.88257  0.25561  1.0000
  C   C852      1.0  0.94122  0.76551  0.18145  1.0000
  H   H1459     1.0  0.90875  0.87698  0.38496  1.0000
  C   C853      1.0  0.91064  0.90463  0.34186  1.0000
  C   C854      1.0  0.90688  0.91570  0.30260  1.0000
  C   C855      1.0  0.89880  0.90741  0.27555  1.0000
  C   C856      1.0  0.89472  0.88800  0.28772  1.0000
  H   H1460     1.0  0.93791  0.96644  0.61409  1.0000
  C   C857      1.0  0.90593  0.88554  0.35450  1.0000
  H   H1461     1.0  0.91069  0.93038  0.29251  1.0000
  H   H1462     1.0  0.89646  0.91567  0.24459  1.0000
  S   S247      1.0  0.88738  0.81737  0.28041  1.0000
  Fe  Fe125     1.0  0.94496  0.81824  0.24721  1.0000
  H   H1463     1.0  0.94335  0.97189  0.51379  1.0000
  H   H1464     1.0  0.97260  0.75078  0.17020  1.0000
  H   H1465     1.0  0.83275  0.93335  0.32537  1.0000
  H   H1466     1.0  0.88309  0.92997  0.45446  1.0000
  S   S248      1.0  0.90162  0.78456  0.18928  1.0000
  H   H1467     1.0  0.85683  0.92477  0.29385  1.0000
  C   C858      1.0  0.84818  0.93644  0.31373  1.0000
  H   H1468     1.0  0.90141  0.74275  0.19175  1.0000
  H   H1469     1.0  0.95173  0.89756  0.30809  1.0000
  C   C859      1.0  0.95215  0.87473  0.24923  1.0000
  H   H1470     1.0  0.88871  0.75341  0.01387  1.0000
  H   H1471     1.0  0.95261  0.77470  0.33797  1.0000
  H   H1472     1.0  0.81632  0.93948  0.39700  1.0000
  C   C860      1.0  0.96589  0.88633  0.30124  1.0000
  C   C861      1.0  0.77753  0.74441  0.73148  1.0000
  H   H1473     1.0  0.96562  0.75385  0.26028  1.0000
  H   H1474     1.0  0.94454  0.78013  0.18032  1.0000
  C   C862      1.0  0.94955  0.87473  0.20317  1.0000
  C   C863      1.0  0.97233  0.90227  0.22768  1.0000
  H   H1475     1.0  0.92510  0.79343  0.08247  1.0000
  C   C864      1.0  0.91438  0.76082  0.37466  1.0000
  H   H1476     1.0  0.96860  0.80220  0.17038  1.0000
  S   S249      1.0  0.92338  0.83184  0.20205  1.0000
  C   C865      1.0  0.96773  0.74313  0.28993  1.0000
  C   C866      1.0  0.83022  0.93405  0.41143  1.0000
  H   H1477     1.0  0.92327  0.94751  0.52734  1.0000
  H   H1478     1.0  0.93319  0.87927  0.20123  1.0000
  H   H1479     1.0  0.95290  0.85892  0.26526  1.0000
  H   H1480     1.0  0.89961  0.76763  0.32009  1.0000
  H   H1481     1.0  0.93998  0.91484  0.22490  1.0000
  H   H1482     1.0  0.87957  0.91619  0.41687  1.0000
  H   H1483     1.0  0.93760  0.88286  0.26579  1.0000
  N   N62       1.0  0.84658  0.94543  0.38817  1.0000
  H   H1484     1.0  0.98483  0.90785  0.23537  1.0000
  S   S250      1.0  0.88759  0.87641  0.25170  1.0000
  H   H1485     1.0  0.94004  0.73667  0.08494  1.0000
  C   C867      1.0  0.93642  0.75319  0.07426  1.0000
  H   H1486     1.0  0.84081  0.74948  0.46034  1.0000
  H   H1487     1.0  0.98853  0.86061  0.18532  1.0000
  H   H1488     1.0  0.82759  0.96703  0.34793  1.0000
  H   H1489     1.0  0.96017  0.87295  0.36774  1.0000
  S   S251      1.0  0.93355  0.78962  0.26662  1.0000
  H   H1490     1.0  0.84914  0.90340  0.42508  1.0000
  Fe  Fe126     1.0  0.91213  0.80456  0.31847  1.0000
  H   H1491     1.0  0.85191  0.95514  0.44389  1.0000
  H   H1492     1.0  0.94990  0.92518  0.26139  1.0000
  C   C868      1.0  0.90001  0.75430  0.08690  1.0000
  C   C869      1.0  0.95343  0.91941  0.23049  1.0000
  S   S252      1.0  0.95036  0.95897  0.32832  1.0000
  H   H1493     1.0  0.82258  0.90453  0.43422  1.0000
  S   S253      1.0  0.90940  0.78587  0.38322  1.0000
  C   C870      1.0  0.89785  0.87729  0.32758  1.0000
  S   S254      1.0  0.92558  0.83208  0.30269  1.0000
  C   C871      1.0  0.96365  0.86790  0.33601  1.0000
  S   S255      1.0  0.97794  0.81934  0.23638  1.0000
  H   H1494     1.0  0.87205  0.95552  0.39981  1.0000
  Fe  Fe127     1.0  0.90286  0.84376  0.25925  1.0000
  H   H1495     1.0  0.85643  0.76470  0.42313  1.0000
  C   C872      1.0  0.92116  0.76335  0.18681  1.0000
  H   H1496     1.0  0.92584  0.78475  0.00885  1.0000
  C   C873      1.0  0.91131  0.79543  0.06860  1.0000
  H   H1497     1.0  0.83625  0.90668  0.38102  1.0000
  C   C874      1.0  0.90817  0.75600  0.34037  1.0000
  C   C875      1.0  0.83688  0.96675  0.37207  1.0000
  C   C876      1.0  0.87143  0.92679  0.43929  1.0000
  C   C877      1.0  0.96747  0.77779  0.33878  1.0000
  N   N63       1.0  0.98565  0.74535  0.30694  1.0000
  C   C878      1.0  0.85934  0.93616  0.35029  1.0000
  H   H1498     1.0  0.93045  0.74949  0.42699  1.0000
  H   H1499     1.0  0.82546  0.93707  0.44498  1.0000
  H   H1500     1.0  0.77417  0.75761  0.74853  1.0000
  C   C879      1.0  0.91380  0.78101  0.03612  1.0000
  H   H1501     1.0  0.96629  0.79435  0.33093  1.0000
  C   C880      1.0  0.83514  0.91094  0.41277  1.0000
  H   H1502     1.0  0.97021  0.77337  0.37193  1.0000
  H   H1503     1.0  0.95083  0.86115  0.33426  1.0000
  H   H1504     1.0  0.86663  0.92028  0.35966  1.0000
  H   H1505     1.0  0.87217  0.94395  0.33620  1.0000
  H   H1506     1.0  0.95347  0.74704  0.31277  1.0000
  H   H1507     1.0  0.88542  0.76215  0.07679  1.0000
  H   H1508     1.0  0.95643  0.93233  0.20548  1.0000
  H   H1509     1.0  0.95490  0.85935  0.19446  1.0000
  H   H1510     1.0  0.89820  0.79385  0.09471  1.0000
  H   H1511     1.0  0.89962  0.78516  0.02260  1.0000
  C   C881      1.0  0.92704  0.97855  0.51604  1.0000
  H   H1512     1.0  0.92479  0.98154  0.48228  1.0000
  H   H1513     1.0  0.95708  0.88523  0.17846  1.0000
  C   C882      1.0  0.91694  0.74449  0.18696  1.0000
  H   H1514     1.0  0.86092  0.91957  0.46521  1.0000
  C   C883      1.0  0.98919  0.86714  0.24907  1.0000
  C   C884      1.0  0.91543  0.96186  0.53928  1.0000
  C   C885      1.0  0.92157  0.74709  0.01732  1.0000
  C   C886      1.0  0.85573  0.75390  0.45330  1.0000
  H   H1515     1.0  0.95451  0.77537  0.03704  1.0000
  C   C887      1.0  0.82235  0.97885  0.40578  1.0000
  H   H1516     1.0  0.85917  0.73632  0.53253  1.0000
  H   H1517     1.0  0.84725  0.95116  0.29247  1.0000
  C   C888      1.0  0.95708  0.74895  0.17530  1.0000
  H   H1518     1.0  0.84870  0.97562  0.35555  1.0000
  S   S256      1.0  0.96215  0.98325  0.41856  1.0000
  N   N64       1.0  0.91793  0.75891  0.05356  1.0000
  H   H1519     1.0  0.97808  0.89298  0.30718  1.0000
  H   H1520     1.0  0.93444  0.75108  0.99255  1.0000
  C   C889      1.0  0.95604  0.75890  0.04693  1.0000
  C   C890      1.0  0.92549  0.74574  0.40066  1.0000
  H   H1521     1.0  0.93358  0.76005  0.10360  1.0000
  H   H1522     1.0  0.89955  0.76041  0.11643  1.0000
  H   H1523     1.0  0.80963  0.97143  0.42260  1.0000
  C   C891      1.0  0.98467  0.79769  0.17043  1.0000
  C   C892      1.0  0.94236  0.98015  0.59388  1.0000
  H   H1524     1.0  0.96811  0.75415  0.06668  1.0000
  H   H1525     1.0  0.96976  0.73834  0.37155  1.0000
  H   H1526     1.0  0.95465  0.97563  0.56755  1.0000
  H   H1527     1.0  0.98288  0.77607  0.27457  1.0000
  C   C893      1.0  0.90375  0.75021  0.99340  1.0000
  H   H1528     1.0  0.90466  0.76265  0.96619  1.0000
  H   H1529     1.0  0.76320  0.73964  0.73263  1.0000
  C   C894      1.0  0.98473  0.76740  0.30648  1.0000
  H   H1530     1.0  0.98691  0.85206  0.26624  1.0000
  Fe  Fe128     1.0  0.92921  0.98389  0.29528  1.0000
  H   H1531     1.0  0.88755  0.74161  0.44597  1.0000
  H   H1532     1.0  0.78316  0.74912  0.69712  1.0000
  H   H1533     1.0  0.96139  0.75096  0.01881  1.0000
  C   C895      1.0  0.91313  0.73614  0.33194  1.0000
  H   H1534     1.0  0.83013  0.98207  0.42934  1.0000
  C   C896      1.0  0.87356  0.73584  0.44801  1.0000
  H   H1535     1.0  0.90424  0.73611  0.98121  1.0000
  H   H1536     1.0  0.99046  0.78002  0.11954  1.0000
