data_image0
_chemical_formula_structural       HS2CHCHFeS2FeS2FeSFeS3FeS2FeS2FeSFeS3FeS2FeS2FeSFeS3H2C6H5C4H4C3H3C7H4C3NC2H5C4H2C5H3C6H4NHCHCHCH2CH10FeHNH2CH2NC6HCH16CH3CHCHC5H2C2H10CHCH3NC5H12CNC3H2CH4C6H2CH3C3HCH9NC2H5C2H2CH6C3H7CH3C3H3NC2H5C2H4C2H4CH5C3H6NHCH2CH2CHCH3CHCH3CH2SHCH5C3HCHNH5CH11CH4CSHCSFeS2FeSHFeSFeS3FeS2FeS2CHFeSHSHC2SH2NHSCH2FeC5H4C4SCH3NC6H6CFeHC6H6CHCSCHCH3CFeH4CH2CH7CHCH4CFeHSH3C2H2SHC2HCH2CFeCH4CH4SCH3SH2NC8H10CHSC3HCH3CH3CHSHCH3SCHFeCFeS2FeS2FeSHCS2FeSCH2C4NCHSHNHCH4CH2CH4CH2CFeCH4CH5CH4CH2SC2FeHC2HCH6CH3C2HCH4CHC4HCHFeSFeC2SFeS2FeSFeSFeS3HC3SHCH2C3SHCHC2HC6H6CHCH2CH3CH2NC8H30FeH2CHC2NHCHC2H2CSH2CH5CH2FeS2FeS2FeCFeHS2CH2SH4CSC2H3CHSHCH2CH4CH4CH2C4H2C2H3C2HSH9SH3CNCHCH2NHCHCHCH3CH3CHC2HC3H3C3HFeC2HCH2NHCH3C4H2CHNC2H4CHFeS2FeS2FeS2FeH2FeHFeCSHFeS2CFeSFeS2FeS2FeS2FeSFeS3FeS2FeS2FeSFeS3C3H5CH3C6H6C2HCH3C6H6C4H3C6H4CHC9H4C6H2CNC8H20NC5H5CH4CH4C2HCH8NCHC2HCHC2H7C2H9C4H4SNH2C3H9SHC2HCH3CH5CH2CFeHCH2CSHFeH3CSCS2CH2C2HC2H3CNCH6C3H2CHCH3CH3CHNHNCHCFeH2NH2C2NH2CH6SHCHCH8C2SCSH2CH8SCH2CHCHSCH9C2H4CH2SH2CH4CH2C2H2C3H11C2HC2HC3H3SHFeS2FeS2FeSFeCS2FeS2FeS2FeSFeHS2FeS2FeS2FeSFeS3C2HC2H4C6H6CHNHC6H4CNHCHC2H3C6H2C6H6CH8CH4CH2C4H3C3H3CH2NSHC2H3CH5CH8CHC2NC3HCH2C2H2CH6CH4SCH2C2H3CH8CH5CHCHCHC4NC8H20NC4HC3H6CH2C2H8CHCHCH2CH3CH3CHC2H5FeHNH5CH2NH2CHCH3SCHC2SH2CSHS2FeS2FeS2FeSFeS3FeSCFeSHFeSH2S4CHFeHFeS2FeCFeNHS2CHC3H5CHC6H4C3SC2H3C6H4C4H4C6NH2C2H2CH14NC5HC2H9C2SFeH6NC5H4CH4SH3CFeHCH3CH2NC5HC2H11CH8C2H4C2H2CHNC3HSH4C3H11SC2H4C3HC2HCHCHC2HC2HFeH2Fe2SH2CH2CHCSHSH9CHSC2NFeHCHCHSH2SH5CSH2CH6C2HCH4CHCHCHC3H2NHC2H4NHSFeHCSHCH2CH7SH2CNH5CH3C2HCHCHFeH2C2HSH4CH3CHCSH3SNHCHC4H3C5HCH6CFeHCHCNH5CSHC2HCH2CNH5CH6CH4CH2SCH3FeCS2FeS2FeS2FeHFeS3FeS2FeS2FeSFeS3H3CSCHC2HCHCHC2H2CH2FeCHSC6H3C6H5C4SH2C2H3C4HCH2CHCH8C2H4CH2CNCH7CHCH3CH8NHC3H3NC8H15CH8C3NCHCH3C2H4NC2HCH3FeCHCH9NH10CSC3HCH3CH2CHCHC3H2CHCH4C2FeS2CFeS2FeS2FeS2FeSFeS3FeS3FeCFeHSFeS2FeS2FeSFeS3FeS2FeSHFeHFeSHSCHC3HC2HC2HSHC6H4C2FeCHC6H4C6H4C2H6CH2SC6H4C6H5SCNC8H21CHCHNCH4SCSH2CH4C2HNC8H20NC4H10NHCHCH5SH2CH6C3H2SCH3C2HCHCH4C3H2FeCH6C2FeH5CHCH2NHSH5CH2CH6SHCH4CHCSC2H10C2H4C2HC2HCH2CH5CNHCH3C3H2SCH2CH3C2HC2H4C
_chemical_formula_sum              "H1536 S256 C896 Fe128 N64"
_cell_length_a       41.1262
_cell_length_b       40.4272
_cell_length_c       80.5689
_cell_angle_alpha    90.7989
_cell_angle_beta     89.8368
_cell_angle_gamma    87.0424

_space_group_name_H-M_alt    "P 1"
_space_group_IT_number       1

loop_
  _space_group_symop_operation_xyz
  'x, y, z'

loop_
  _atom_site_type_symbol
  _atom_site_label
  _atom_site_symmetry_multiplicity
  _atom_site_fract_x
  _atom_site_fract_y
  _atom_site_fract_z
  _atom_site_occupancy
  H   H1        1.0  0.08366  0.41243  0.18314  1.0000
  S   S1        1.0  0.22824  0.24167  0.32222  1.0000
  S   S2        1.0  0.43766  0.41442  0.33128  1.0000
  C   C1        1.0  0.04175  0.23734  0.34055  1.0000
  H   H2        1.0  0.12505  0.29530  0.33671  1.0000
  C   C2        1.0  0.08224  0.24284  0.02810  1.0000
  H   H3        1.0  0.03225  0.52291  0.18424  1.0000
  Fe  Fe1       1.0  0.16993  0.13422  0.24973  1.0000
  S   S3        1.0  0.15973  0.18658  0.24199  1.0000
  S   S4        1.0  0.19027  0.12273  0.27529  1.0000
  Fe  Fe2       1.0  0.14341  0.10630  0.21675  1.0000
  S   S5        1.0  0.13201  0.15738  0.20678  1.0000
  S   S6        1.0  0.12218  0.06138  0.20434  1.0000
  Fe  Fe3       1.0  0.18061  0.16904  0.21760  1.0000
  S   S7        1.0  0.21386  0.20455  0.20584  1.0000
  Fe  Fe4       1.0  0.11256  0.16970  0.23224  1.0000
  S   S8        1.0  0.06528  0.19672  0.23938  1.0000
  S   S9        1.0  0.19380  0.11700  0.22568  1.0000
  S   S10       1.0  0.12084  0.11831  0.24176  1.0000
  Fe  Fe5       1.0  0.16179  0.38874  0.14025  1.0000
  S   S11       1.0  0.20959  0.38538  0.12652  1.0000
  S   S12       1.0  0.13816  0.43361  0.15310  1.0000
  Fe  Fe6       1.0  0.14897  0.31626  0.13469  1.0000
  S   S13       1.0  0.19513  0.30736  0.12028  1.0000
  S   S14       1.0  0.12176  0.27091  0.14061  1.0000
  Fe  Fe7       1.0  0.21839  0.33745  0.14016  1.0000
  S   S15       1.0  0.26465  0.31227  0.15012  1.0000
  Fe  Fe8       1.0  0.18195  0.35556  0.10796  1.0000
  S   S16       1.0  0.19026  0.35890  0.08025  1.0000
  S   S17       1.0  0.17283  0.34331  0.15541  1.0000
  S   S18       1.0  0.13345  0.36211  0.12081  1.0000
  Fe  Fe9       1.0  0.39154  0.29142  0.26323  1.0000
  S   S19       1.0  0.42284  0.24919  0.25259  1.0000
  S   S20       1.0  0.38602  0.29260  0.29102  1.0000
  Fe  Fe10      1.0  0.36858  0.31487  0.22918  1.0000
  S   S21       1.0  0.39817  0.27450  0.21589  1.0000
  S   S22       1.0  0.33524  0.35312  0.21668  1.0000
  Fe  Fe11      1.0  0.38021  0.24188  0.23580  1.0000
  S   S23       1.0  0.35915  0.19225  0.23184  1.0000
  Fe  Fe12      1.0  0.43814  0.28607  0.23391  1.0000
  S   S24       1.0  0.48922  0.29478  0.22454  1.0000
  S   S25       1.0  0.34787  0.28135  0.24784  1.0000
  S   S26       1.0  0.40967  0.32923  0.24581  1.0000
  H   H4        1.0  0.09845  0.31985  0.21227  1.0000
  H   H5        1.0  0.08168  0.24076  0.04175  1.0000
  C   C3        1.0  0.28184  0.32335  0.16931  1.0000
  C   C4        1.0  0.27492  0.35435  0.17680  1.0000
  C   C5        1.0  0.29100  0.36308  0.19151  1.0000
  C   C6        1.0  0.31348  0.34063  0.19899  1.0000
  C   C7        1.0  0.31967  0.30935  0.19172  1.0000
  C   C8        1.0  0.30417  0.30090  0.17686  1.0000
  H   H6        1.0  0.25791  0.37191  0.17101  1.0000
  H   H7        1.0  0.28623  0.38741  0.19703  1.0000
  H   H8        1.0  0.33678  0.29180  0.19738  1.0000
  H   H9        1.0  0.30960  0.27685  0.17115  1.0000
  H   H10       1.0  0.27048  0.18116  0.29566  1.0000
  C   C9        1.0  0.14824  0.49643  0.05065  1.0000
  C   C10       1.0  0.06382  0.24147  0.13870  1.0000
  C   C11       1.0  0.08018  0.27034  0.13575  1.0000
  C   C12       1.0  0.06313  0.29803  0.12923  1.0000
  H   H11       1.0  0.26645  0.25061  0.28505  1.0000
  H   H12       1.0  0.30076  0.26183  0.27261  1.0000
  H   H13       1.0  0.07681  0.21991  0.14364  1.0000
  H   H14       1.0  0.07575  0.32016  0.12669  1.0000
  C   C13       1.0  0.16251  0.47664  0.13055  1.0000
  C   C14       1.0  0.13814  0.47093  0.14215  1.0000
  C   C15       1.0  0.05261  0.34722  0.03840  1.0000
  H   H15       1.0  0.13441  0.49266  0.09246  1.0000
  H   H16       1.0  0.18203  0.45813  0.12837  1.0000
  H   H17       1.0  0.09515  0.49191  0.15459  1.0000
  C   C16       1.0  0.23938  0.33982  0.33045  1.0000
  C   C17       1.0  0.25446  0.20080  0.21275  1.0000
  C   C18       1.0  0.27441  0.22776  0.21148  1.0000
  C   C19       1.0  0.30664  0.22527  0.21726  1.0000
  C   C20       1.0  0.31937  0.19548  0.22383  1.0000
  C   C21       1.0  0.29969  0.16828  0.22465  1.0000
  C   C22       1.0  0.26718  0.17110  0.21937  1.0000
  H   H18       1.0  0.26499  0.25071  0.20618  1.0000
  H   H19       1.0  0.32172  0.24632  0.21649  1.0000
  H   H20       1.0  0.30945  0.14506  0.22954  1.0000
  H   H21       1.0  0.25225  0.15002  0.22015  1.0000
  C   C23       1.0  0.05320  0.23216  0.22820  1.0000
  C   C24       1.0  0.06540  0.23738  0.21228  1.0000
  C   C25       1.0  0.05448  0.26548  0.20342  1.0000
  N   N1        1.0  0.09840  0.30446  0.02929  1.0000
  C   C26       1.0  0.14485  0.51992  0.03577  1.0000
  C   C27       1.0  0.14422  0.39934  0.04050  1.0000
  H   H22       1.0  0.08284  0.21957  0.20673  1.0000
  H   H23       1.0  0.38927  0.30850  0.18305  1.0000
  H   H24       1.0  0.39136  0.37400  0.15020  1.0000
  H   H25       1.0  0.19334  0.52284  0.06798  1.0000
  H   H26       1.0  0.12386  0.02991  0.06573  1.0000
  C   C28       1.0  0.10228  0.19549  0.34467  1.0000
  C   C29       1.0  0.16221  0.50692  0.12218  1.0000
  C   C30       1.0  0.16050  0.37869  0.06769  1.0000
  C   C31       1.0  0.13019  0.38973  0.07412  1.0000
  H   H27       1.0  0.49623  0.35129  0.16583  1.0000
  H   H28       1.0  0.12471  0.38631  0.08708  1.0000
  C   C32       1.0  0.21355  0.17668  0.31613  1.0000
  C   C33       1.0  0.20566  0.15042  0.30545  1.0000
  C   C34       1.0  0.19901  0.15616  0.28861  1.0000
  C   C35       1.0  0.20030  0.18830  0.28259  1.0000
  C   C36       1.0  0.20813  0.21447  0.29320  1.0000
  H   H29       1.0  0.21926  0.17192  0.32900  1.0000
  H   H30       1.0  0.20492  0.12556  0.31020  1.0000
  H   H31       1.0  0.19622  0.19299  0.26965  1.0000
  C   C37       1.0  0.42163  0.38144  0.32005  1.0000
  C   C38       1.0  0.41541  0.35195  0.32798  1.0000
  C   C39       1.0  0.40496  0.32480  0.31886  1.0000
  C   C40       1.0  0.39993  0.32714  0.30176  1.0000
  C   C41       1.0  0.40503  0.35698  0.29379  1.0000
  C   C42       1.0  0.41577  0.38419  0.30297  1.0000
  H   H32       1.0  0.41784  0.35021  0.34125  1.0000
  H   H33       1.0  0.40090  0.30188  0.32511  1.0000
  H   H34       1.0  0.40064  0.35916  0.28062  1.0000
  H   H35       1.0  0.42012  0.40715  0.29679  1.0000
  N   N2        1.0  0.10304  0.22558  0.33382  1.0000
  H   H36       1.0  0.05677  0.46237  0.12938  1.0000
  C   C43       1.0  0.13516  0.24140  0.33629  1.0000
  H   H37       1.0  0.05062  0.29470  0.03938  1.0000
  C   C44       1.0  0.09643  0.21669  0.31588  1.0000
  H   H38       1.0  0.47225  0.34189  0.26834  1.0000
  C   C45       1.0  0.13758  0.27601  0.32868  1.0000
  H   H39       1.0  0.07063  0.34964  0.17862  1.0000
  H   H40       1.0  0.03288  0.42747  0.12547  1.0000
  C   C46       1.0  0.04631  0.43563  0.15178  1.0000
  H   H41       1.0  0.07473  0.27231  0.33181  1.0000
  H   H42       1.0  0.15584  0.22566  0.33123  1.0000
  H   H43       1.0  0.13259  0.47533  0.04827  1.0000
  H   H44       1.0  0.40316  0.34337  0.20625  1.0000
  H   H45       1.0  0.47115  0.30846  0.31574  1.0000
  H   H46       1.0  0.50010  0.25095  0.25283  1.0000
  H   H47       1.0  0.35381  0.39172  0.15848  1.0000
  H   H48       1.0  0.14105  0.22769  0.30222  1.0000
  H   H49       1.0  0.50536  0.35259  0.32525  1.0000
  H   H50       1.0  0.10311  0.36147  0.20743  1.0000
  Fe  Fe13      1.0  0.22931  0.23623  0.35005  1.0000
  H   H51       1.0  0.02276  0.38396  0.18237  1.0000
  N   N3        1.0  0.03867  0.40243  0.15860  1.0000
  H   H52       1.0  0.20013  0.14177  0.16585  1.0000
  H   H53       1.0  0.07550  0.49058  0.07372  1.0000
  C   C47       1.0  0.37269  0.37129  0.15996  1.0000
  H   H54       1.0  0.31254  0.28969  0.30080  1.0000
  H   H55       1.0  0.48999  0.37776  0.18334  1.0000
  N   N4        1.0  0.19721  0.18863  0.15315  1.0000
  C   C48       1.0  0.16935  0.20007  0.16447  1.0000
  C   C49       1.0  0.22806  0.20065  0.16074  1.0000
  C   C50       1.0  0.19864  0.15125  0.15291  1.0000
  C   C51       1.0  0.19071  0.20234  0.13605  1.0000
  C   C52       1.0  0.13570  0.18699  0.16025  1.0000
  C   C53       1.0  0.22852  0.23837  0.16381  1.0000
  H   H56       1.0  0.14180  0.18629  0.31018  1.0000
  C   C54       1.0  0.22051  0.20591  0.12454  1.0000
  H   H57       1.0  0.17469  0.19315  0.17755  1.0000
  H   H58       1.0  0.16589  0.22750  0.16448  1.0000
  H   H59       1.0  0.24988  0.19364  0.15318  1.0000
  H   H60       1.0  0.23295  0.18839  0.17284  1.0000
  H   H61       1.0  0.07928  0.19629  0.31508  1.0000
  H   H62       1.0  0.17603  0.14168  0.14751  1.0000
  H   H63       1.0  0.17294  0.18730  0.12929  1.0000
  H   H64       1.0  0.17902  0.22776  0.13715  1.0000
  H   H65       1.0  0.13422  0.16060  0.16367  1.0000
  H   H66       1.0  0.11676  0.20118  0.16767  1.0000
  H   H67       1.0  0.12940  0.19028  0.14699  1.0000
  H   H68       1.0  0.22086  0.25280  0.15277  1.0000
  H   H69       1.0  0.21296  0.24625  0.17453  1.0000
  H   H70       1.0  0.25367  0.24495  0.16701  1.0000
  H   H71       1.0  0.39104  0.39988  0.18008  1.0000
  H   H72       1.0  0.48601  0.27844  0.30091  1.0000
  C   C55       1.0  0.16737  0.38338  0.05084  1.0000
  H   H73       1.0  0.21294  0.20170  0.11149  1.0000
  H   H74       1.0  0.24155  0.18854  0.12681  1.0000
  H   H75       1.0  0.22852  0.23177  0.12498  1.0000
  C   C56       1.0  0.10437  0.26993  0.02205  1.0000
  H   H76       1.0  0.11744  0.19709  0.29267  1.0000
  C   C57       1.0  0.11206  0.52480  0.13614  1.0000
  H   H77       1.0  0.03895  0.22029  0.35109  1.0000
  C   C58       1.0  0.11676  0.30843  0.04532  1.0000
  C   C59       1.0  0.17469  0.46287  0.08207  1.0000
  C   C60       1.0  0.11344  0.49547  0.14524  1.0000
  C   C61       1.0  0.04616  0.09968  0.20803  1.0000
  C   C62       1.0  0.10558  0.28884  0.06039  1.0000
  H   H78       1.0  0.06345  0.05449  0.14377  1.0000
  H   H79       1.0  0.33679  0.39374  0.32284  1.0000
  C   C63       1.0  0.29368  0.30955  0.30377  1.0000
  C   C64       1.0  0.11557  0.07360  0.03488  1.0000
  H   H80       1.0  0.05712  0.24689  0.02327  1.0000
  H   H81       1.0  0.16383  0.03241  0.02811  1.0000
  H   H82       1.0  0.14294  0.30079  0.04358  1.0000
  H   H83       1.0  0.11754  0.33490  0.04915  1.0000
  H   H84       1.0  0.26951  0.38065  0.33283  1.0000
  H   H85       1.0  0.07882  0.18322  0.34337  1.0000
  H   H86       1.0  0.07719  0.04080  0.03975  1.0000
  H   H87       1.0  0.06815  0.44491  0.15801  1.0000
  H   H88       1.0  0.23659  0.31400  0.33442  1.0000
  H   H89       1.0  0.14997  0.40342  0.02761  1.0000
  C   C65       1.0  0.30322  0.30251  0.33977  1.0000
  H   H90       1.0  0.18158  0.05811  0.18381  1.0000
  C   C66       1.0  0.12609  0.20635  0.30486  1.0000
  H   H91       1.0  0.11754  0.26357  0.06044  1.0000
  H   H92       1.0  0.06355  0.26932  0.19101  1.0000
  H   H93       1.0  0.11257  0.30207  0.07194  1.0000
  N   N5        1.0  0.16440  0.29968  0.21079  1.0000
  C   C67       1.0  0.19776  0.29922  0.20282  1.0000
  C   C68       1.0  0.14468  0.27582  0.20101  1.0000
  C   C69       1.0  0.16856  0.28772  0.22839  1.0000
  C   C70       1.0  0.22381  0.31831  0.21215  1.0000
  C   C71       1.0  0.13805  0.27591  0.23732  1.0000
  H   H94       1.0  0.20794  0.27338  0.20122  1.0000
  H   H95       1.0  0.19656  0.30965  0.19011  1.0000
  H   H96       1.0  0.12081  0.27241  0.20681  1.0000
  H   H97       1.0  0.15694  0.25058  0.20092  1.0000
  H   H98       1.0  0.18680  0.26628  0.22875  1.0000
  H   H99       1.0  0.17843  0.30740  0.23644  1.0000
  H   H100      1.0  0.16362  0.35085  0.21910  1.0000
  H   H101      1.0  0.22942  0.30779  0.22452  1.0000
  H   H102      1.0  0.24686  0.31586  0.20493  1.0000
  H   H103      1.0  0.21715  0.34516  0.21329  1.0000
  H   H104      1.0  0.07615  0.42191  0.12976  1.0000
  H   H105      1.0  0.11747  0.29454  0.23754  1.0000
  C   C72       1.0  0.03256  0.12334  0.18126  1.0000
  N   N6        1.0  0.30245  0.33697  0.33282  1.0000
  C   C73       1.0  0.03130  0.40695  0.17682  1.0000
  C   C74       1.0  0.30848  0.33729  0.31433  1.0000
  C   C75       1.0  0.48011  0.35612  0.17678  1.0000
  H   H106      1.0  0.08764  0.32896  0.16068  1.0000
  H   H107      1.0  0.35300  0.34248  0.33943  1.0000
  C   C76       1.0  0.05896  0.41997  0.18768  1.0000
  H   H108      1.0  0.27210  0.29848  0.30913  1.0000
  H   H109      1.0  0.29983  0.36152  0.30909  1.0000
  H   H110      1.0  0.33512  0.33509  0.31183  1.0000
  H   H111      1.0  0.05695  0.44748  0.18858  1.0000
  C   C77       1.0  0.42369  0.35373  0.19935  1.0000
  C   C78       1.0  0.02955  0.29705  0.12613  1.0000
  C   C79       1.0  0.15016  0.33484  0.21045  1.0000
  C   C80       1.0  0.12884  0.16783  0.34153  1.0000
  C   C81       1.0  0.03194  0.28868  0.21060  1.0000
  C   C82       1.0  0.42793  0.38872  0.20661  1.0000
  H   H112      1.0  0.19451  0.47816  0.08662  1.0000
  H   H113      1.0  0.12069  0.26742  0.17751  1.0000
  C   C83       1.0  0.06705  0.34561  0.16512  1.0000
  H   H114      1.0  0.26704  0.14703  0.26044  1.0000
  H   H115      1.0  0.15983  0.28375  0.17517  1.0000
  H   H116      1.0  0.15404  0.34627  0.19812  1.0000
  C   C84       1.0  0.11376  0.34085  0.21499  1.0000
  C   C85       1.0  0.13751  0.28527  0.18292  1.0000
  C   C86       1.0  0.21508  0.20872  0.30993  1.0000
  H   H117      1.0  0.19086  0.37496  0.04583  1.0000
  C   C87       1.0  0.41076  0.31675  0.17605  1.0000
  H   H118      1.0  0.02735  0.04439  0.08356  1.0000
  H   H119      1.0  0.16414  0.32552  0.02199  1.0000
  H   H120      1.0  0.21785  0.35444  0.33549  1.0000
  H   H121      1.0  0.34534  0.28299  0.32469  1.0000
  H   H122      1.0  0.44517  0.40290  0.19932  1.0000
  H   H123      1.0  0.12404  0.46507  0.07636  1.0000
  H   H124      1.0  0.12527  0.31020  0.18200  1.0000
  H   H125      1.0  0.06985  0.11171  0.20877  1.0000
  H   H126      1.0  0.13039  0.08130  0.02418  1.0000
  N   N7        1.0  0.51660  0.32039  0.30408  1.0000
  C   C88       1.0  0.49723  0.34198  0.29215  1.0000
  C   C89       1.0  0.16436  0.04162  0.17852  1.0000
  H   H127      1.0  0.22358  0.13752  0.12945  1.0000
  H   H128      1.0  0.25095  0.14052  0.14720  1.0000
  H   H129      1.0  0.28607  0.31986  0.29159  1.0000
  H   H130      1.0  0.29286  0.11159  0.26450  1.0000
  H   H131      1.0  0.42949  0.26560  0.17564  1.0000
  C   C90       1.0  0.22658  0.13361  0.14296  1.0000
  C   C91       1.0  0.28546  0.21070  0.26804  1.0000
  H   H132      1.0  0.40423  0.31484  0.16271  1.0000
  H   H133      1.0  0.33348  0.18474  0.31502  1.0000
  C   C92       1.0  0.10698  0.40554  0.06377  1.0000
  H   H134      1.0  0.33932  0.23091  0.28792  1.0000
  H   H135      1.0  0.33127  0.25529  0.33989  1.0000
  H   H136      1.0  0.29222  0.21531  0.30156  1.0000
  H   H137      1.0  0.26157  0.25889  0.26351  1.0000
  H   H138      1.0  0.22562  0.10648  0.14484  1.0000
  H   H139      1.0  0.44857  0.28960  0.19105  1.0000
  C   C93       1.0  0.44497  0.36454  0.17068  1.0000
  C   C94       1.0  0.27853  0.24754  0.27279  1.0000
  C   C95       1.0  0.11399  0.41046  0.04698  1.0000
  H   H140      1.0  0.08367  0.41430  0.06886  1.0000
  H   H141      1.0  0.33391  0.14224  0.27761  1.0000
  H   H142      1.0  0.34509  0.22089  0.26653  1.0000
  H   H143      1.0  0.05719  0.40977  0.20036  1.0000
  H   H144      1.0  0.45872  0.29382  0.16923  1.0000
  H   H145      1.0  0.36717  0.36710  0.18629  1.0000
  H   H146      1.0  0.29367  0.20997  0.25485  1.0000
  C   C96       1.0  0.29553  0.19004  0.29597  1.0000
  H   H147      1.0  0.17132  0.44365  0.09158  1.0000
  H   H148      1.0  0.37969  0.17269  0.27184  1.0000
  H   H149      1.0  0.20917  0.23919  0.28833  1.0000
  C   C97       1.0  0.37283  0.18947  0.28247  1.0000
  C   C98       1.0  0.34092  0.20977  0.27887  1.0000
  C   C99       1.0  0.14217  0.48323  0.07993  1.0000
  H   H150      1.0  0.37189  0.17513  0.29400  1.0000
  H   H151      1.0  0.39280  0.20680  0.28389  1.0000
  H   H152      1.0  0.03086  0.19333  0.03672  1.0000
  N   N8        1.0  0.30971  0.19154  0.27876  1.0000
  C   C100      1.0  0.31500  0.16963  0.30892  1.0000
  C   C101      1.0  0.31530  0.15760  0.27091  1.0000
  H   H153      1.0  0.29789  0.16149  0.31858  1.0000
  H   H154      1.0  0.26142  0.19940  0.26811  1.0000
  H   H155      1.0  0.32667  0.14641  0.30388  1.0000
  H   H156      1.0  0.03394  0.09809  0.17543  1.0000
  H   H157      1.0  0.32561  0.15983  0.25822  1.0000
  C   C102      1.0  0.07646  0.25010  0.33984  1.0000
  C   C103      1.0  0.38694  0.37325  0.17763  1.0000
  H   H158      1.0  0.49074  0.25310  0.32702  1.0000
  H   H159      1.0  0.18238  0.44949  0.07050  1.0000
  H   H160      1.0  0.27316  0.13291  0.28156  1.0000
  H   H161      1.0  0.44262  0.39209  0.17010  1.0000
  C   C104      1.0  0.05327  0.43635  0.13298  1.0000
  C   C105      1.0  0.28509  0.13658  0.26941  1.0000
  H   H162      1.0  0.17325  0.48470  0.04972  1.0000
  H   H163      1.0  0.12728  0.27734  0.31600  1.0000
  H   H164      1.0  0.36000  0.34795  0.15798  1.0000
  H   H165      1.0  0.03479  0.22520  0.32876  1.0000
  C   C106      1.0  0.03013  0.25502  0.23519  1.0000
  H   H166      1.0  0.08168  0.49950  0.05194  1.0000
  H   H167      1.0  0.26754  0.35653  0.35108  1.0000
  H   H168      1.0  0.15385  0.17669  0.34194  1.0000
  H   H169      1.0  0.05738  0.07363  0.23083  1.0000
  H   H170      1.0  0.48327  0.33413  0.18471  1.0000
  C   C107      1.0  0.07982  0.51024  0.06464  1.0000
  C   C108      1.0  0.06746  0.37842  0.15566  1.0000
  C   C109      1.0  0.27040  0.35475  0.33730  1.0000
  H   H171      1.0  0.23804  0.34168  0.31676  1.0000
  H   H172      1.0  0.12747  0.14936  0.35156  1.0000
  H   H173      1.0  0.04446  0.33241  0.16297  1.0000
  H   H174      1.0  0.09758  0.09440  0.03769  1.0000
  H   H175      1.0  0.28382  0.28754  0.33458  1.0000
  H   H176      1.0  0.14430  0.27057  0.25045  1.0000
  N   N9        1.0  0.41750  0.35192  0.18091  1.0000
  H   H177      1.0  0.05807  0.36696  0.02958  1.0000
  C   C110      1.0  0.09703  0.04252  0.03040  1.0000
  H   H178      1.0  0.44524  0.33818  0.20313  1.0000
  H   H179      1.0  0.12995  0.25234  0.23190  1.0000
  C   C111      1.0  0.33549  0.28170  0.33745  1.0000
  H   H180      1.0  0.11078  0.34808  0.22828  1.0000
  H   H181      1.0  0.40411  0.40288  0.20764  1.0000
  C   C112      1.0  0.43881  0.29045  0.17827  1.0000
  H   H182      1.0  0.13115  0.07047  0.04593  1.0000
  C   C113      1.0  0.49389  0.29559  0.31088  1.0000
  H   H183      1.0  0.06422  0.35200  0.05054  1.0000
  H   H184      1.0  0.09071  0.38972  0.15869  1.0000
  H   H185      1.0  0.06981  0.37180  0.14225  1.0000
  C   C114      1.0  0.32882  0.35519  0.34153  1.0000
  H   H186      1.0  0.07893  0.28728  0.06137  1.0000
  C   C115      1.0  0.03057  0.24019  0.13522  1.0000
  H   H187      1.0  0.49857  0.30587  0.27120  1.0000
  H   H188      1.0  0.43765  0.38649  0.21943  1.0000
  H   H189      1.0  0.08377  0.23779  0.30935  1.0000
  C   C116      1.0  0.06587  0.13823  0.17850  1.0000
  H   H190      1.0  0.08613  0.12156  0.18302  1.0000
  H   H191      1.0  0.04346  0.16475  0.20936  1.0000
  S   S27       1.0  0.08499  0.43192  0.03465  1.0000
  H   H192      1.0  0.16359  0.28210  0.32794  1.0000
  C   C117      1.0  0.33279  0.39142  0.33638  1.0000
  H   H193      1.0  0.44331  0.35555  0.15760  1.0000
  H   H194      1.0  0.47749  0.35645  0.29891  1.0000
  H   H195      1.0  0.06702  0.16330  0.18412  1.0000
  H   H196      1.0  0.05110  0.07581  0.20112  1.0000
  H   H197      1.0  0.50883  0.28718  0.33685  1.0000
  C   C118      1.0  0.50759  0.27326  0.32491  1.0000
  C   C119      1.0  0.03776  0.09095  0.22609  1.0000
  C   C120      1.0  0.03990  0.04481  0.14119  1.0000
  H   H198      1.0  0.12457  0.15428  0.32975  1.0000
  C   C121      1.0  0.06235  0.31251  0.03128  1.0000
  H   H199      1.0  0.45981  0.31037  0.28183  1.0000
  N   N10       1.0  0.14231  0.51127  0.06773  1.0000
  H   H200      1.0  0.06982  0.14072  0.16493  1.0000
  H   H201      1.0  0.51203  0.36103  0.28655  1.0000
  H   H202      1.0  0.06061  0.50909  0.02265  1.0000
  H   H203      1.0  0.35405  0.28925  0.34654  1.0000
  H   H204      1.0  0.13000  0.26072  0.02417  1.0000
  C   C122      1.0  0.13375  0.03931  0.18593  1.0000
  H   H205      1.0  0.18162  0.51167  0.11362  1.0000
  H   H206      1.0  0.10916  0.35439  0.02206  1.0000
  H   H207      1.0  0.02660  0.45472  0.15476  1.0000
  H   H208      1.0  0.35481  0.40060  0.34256  1.0000
  H   H209      1.0  0.13791  0.50541  0.02462  1.0000
  H   H210      1.0  0.02586  0.34917  0.04046  1.0000
  H   H211      1.0  0.03717  0.11305  0.23443  1.0000
  H   H212      1.0  0.09151  0.21848  0.02294  1.0000
  H   H213      1.0  0.08215  0.25960  0.35244  1.0000
  H   H214      1.0  0.31200  0.40804  0.34056  1.0000
  H   H215      1.0  0.14051  0.24402  0.34980  1.0000
  C   C123      1.0  0.48127  0.32358  0.27763  1.0000
  H   H216      1.0  0.02339  0.15377  0.04486  1.0000
  H   H217      1.0  0.02411  0.25871  0.34286  1.0000
  H   H218      1.0  0.02430  0.47444  0.03435  1.0000
  H   H219      1.0  0.29804  0.30382  0.35333  1.0000
  C   C124      1.0  0.04453  0.29255  0.38114  1.0000
  S   S28       1.0  0.50530  0.36610  0.39483  1.0000
  H   H220      1.0  0.42285  0.25861  0.44771  1.0000
  C   C125      1.0  0.39692  0.22717  0.59219  1.0000
  S   S29       1.0  0.42401  0.31769  0.39638  1.0000
  Fe  Fe14      1.0  0.46379  0.14016  0.46729  1.0000
  S   S30       1.0  0.42367  0.14428  0.48623  1.0000
  S   S31       1.0  0.44021  0.40914  0.38100  1.0000
  Fe  Fe15      1.0  0.46975  0.21483  0.46551  1.0000
  S   S32       1.0  0.42933  0.22505  0.48376  1.0000
  H   H221      1.0  0.39527  0.15946  0.58624  1.0000
  Fe  Fe16      1.0  0.45347  0.18327  0.49800  1.0000
  S   S33       1.0  0.46570  0.19337  0.52472  1.0000
  Fe  Fe17      1.0  0.40356  0.18540  0.47001  1.0000
  S   S34       1.0  0.34998  0.19123  0.46390  1.0000
  S   S35       1.0  0.51072  0.41379  0.36231  1.0000
  S   S36       1.0  0.44194  0.17895  0.45042  1.0000
  Fe  Fe18      1.0  0.18808  0.23658  0.38127  1.0000
  S   S37       1.0  0.21314  0.19538  0.36612  1.0000
  S   S38       1.0  0.13657  0.22517  0.38871  1.0000
  Fe  Fe19      1.0  0.24750  0.27912  0.37959  1.0000
  S   S39       1.0  0.27555  0.24134  0.36409  1.0000
  S   S40       1.0  0.27139  0.32722  0.38527  1.0000
  C   C126      1.0  0.45236  0.24340  0.58790  1.0000
  H   H222      1.0  0.37759  0.21002  0.58926  1.0000
  Fe  Fe20      1.0  0.25691  0.20484  0.38194  1.0000
  S   S41       1.0  0.29539  0.16770  0.39126  1.0000
  H   H223      1.0  0.41144  0.16596  0.55911  1.0000
  S   S42       1.0  0.23093  0.24289  0.39839  1.0000
  H   H224      1.0  0.02356  0.32310  0.42039  1.0000
  C   C127      1.0  0.51173  0.03263  0.46324  1.0000
  C   C128      1.0  0.48585  0.24013  0.57911  1.0000
  S   S43       1.0  0.48629  0.12371  0.61516  1.0000
  H   H225      1.0  0.37506  0.37242  0.44070  1.0000
  H   H226      1.0  0.35985  0.31046  0.48640  1.0000
  N   N11       1.0  0.38409  0.07276  0.43702  1.0000
  H   H227      1.0  0.32154  0.25284  0.41884  1.0000
  S   S44       1.0  0.47142  0.07161  0.65425  1.0000
  C   C129      1.0  0.50501  0.13842  0.56161  1.0000
  H   H228      1.0  0.30355  0.29492  0.41961  1.0000
  H   H229      1.0  0.40531  0.03645  0.46707  1.0000
  Fe  Fe21      1.0  0.45545  0.35567  0.38522  1.0000
  C   C130      1.0  0.04225  0.25891  0.38447  1.0000
  C   C131      1.0  0.07070  0.23872  0.38695  1.0000
  C   C132      1.0  0.10165  0.25181  0.38584  1.0000
  C   C133      1.0  0.10395  0.28539  0.38233  1.0000
  C   C134      1.0  0.07546  0.30572  0.38015  1.0000
  H   H230      1.0  0.39908  0.34014  0.44968  1.0000
  H   H231      1.0  0.06874  0.21278  0.38972  1.0000
  H   H232      1.0  0.43319  0.11695  0.41030  1.0000
  H   H233      1.0  0.45560  0.18737  0.60172  1.0000
  C   C135      1.0  0.47738  0.15929  0.53696  1.0000
  C   C136      1.0  0.46504  0.12814  0.53410  1.0000
  C   C137      1.0  0.47226  0.10230  0.54521  1.0000
  C   C138      1.0  0.49203  0.10752  0.55907  1.0000
  S   S45       1.0  0.49482  0.25676  0.45359  1.0000
  C   C139      1.0  0.49772  0.16420  0.55057  1.0000
  H   H234      1.0  0.44922  0.12423  0.52362  1.0000
  H   H235      1.0  0.46227  0.07834  0.54314  1.0000
  H   H236      1.0  0.44150  0.26853  0.58509  1.0000
  N   N12       1.0  0.42876  0.21702  0.58377  1.0000
  C   C140      1.0  0.31059  0.17615  0.41121  1.0000
  C   C141      1.0  0.34418  0.17260  0.41414  1.0000
  C   C142      1.0  0.35663  0.17745  0.43018  1.0000
  C   C143      1.0  0.33550  0.18511  0.44349  1.0000
  C   C144      1.0  0.30192  0.18871  0.44052  1.0000
  C   C145      1.0  0.28952  0.18457  0.42443  1.0000
  H   H237      1.0  0.36058  0.16636  0.40392  1.0000
  H   H238      1.0  0.38256  0.17529  0.43216  1.0000
  H   H239      1.0  0.28535  0.19479  0.45071  1.0000
  H   H240      1.0  0.26354  0.18708  0.42230  1.0000
  H   H241      1.0  0.44998  0.07338  0.48450  1.0000
  H   H242      1.0  0.41574  0.15162  0.60563  1.0000
  C   C146      1.0  0.48993  0.51051  0.64071  1.0000
  Fe  Fe22      1.0  0.50639  0.09068  0.63523  1.0000
  H   H243      1.0  0.48412  0.24673  0.56580  1.0000
  C   C147      1.0  0.38240  0.32100  0.39120  1.0000
  C   C148      1.0  0.36527  0.35182  0.39095  1.0000
  C   C149      1.0  0.33121  0.35353  0.38911  1.0000
  C   C150      1.0  0.31419  0.32452  0.38718  1.0000
  C   C151      1.0  0.33152  0.29383  0.38698  1.0000
  C   C152      1.0  0.36545  0.29210  0.38896  1.0000
  H   H244      1.0  0.37809  0.37425  0.39282  1.0000
  H   H245      1.0  0.49603  0.47034  0.47566  1.0000
  H   H246      1.0  0.31876  0.27126  0.38589  1.0000
  H   H247      1.0  0.37852  0.26817  0.38918  1.0000
  H   H248      1.0  0.51800  0.48859  0.59346  1.0000
  H   H249      1.0  0.45525  0.46649  0.42219  1.0000
  C   C153      1.0  0.47315  0.48173  0.42785  1.0000
  H   H250      1.0  0.30020  0.07761  0.42929  1.0000
  C   C154      1.0  0.39828  0.23031  0.61130  1.0000
  S   S46       1.0  0.20200  0.27695  0.36422  1.0000
  C   C155      1.0  0.38458  0.09753  0.45126  1.0000
  H   H251      1.0  0.44022  0.50274  0.44663  1.0000
  C   C156      1.0  0.47867  0.03280  0.66381  1.0000
  H   H252      1.0  0.44266  0.52381  0.63061  1.0000
  H   H253      1.0  0.48604  0.36820  0.43087  1.0000
  H   H254      1.0  0.31799  0.37738  0.38930  1.0000
  C   C157      1.0  0.46560  0.48625  0.59220  1.0000
  Fe  Fe23      1.0  0.51835  0.09334  0.59775  1.0000
  H   H255      1.0  0.49107  0.14121  0.42820  1.0000
  H   H256      1.0  0.35206  0.03983  0.42439  1.0000
  H   H257      1.0  0.44842  0.08023  0.42022  1.0000
  H   H258      1.0  0.33454  0.10018  0.46153  1.0000
  C   C158      1.0  0.35067  0.06035  0.43381  1.0000
  H   H259      1.0  0.37898  0.11124  0.41855  1.0000
  H   H260      1.0  0.47078  0.33717  0.44380  1.0000
  C   C159      1.0  0.50933  0.15850  0.42395  1.0000
  H   H261      1.0  0.46003  0.37977  0.44842  1.0000
  H   H262      1.0  0.37609  0.19429  0.56315  1.0000
  H   H263      1.0  0.36498  0.11149  0.47566  1.0000
  H   H264      1.0  0.36088  0.06872  0.47091  1.0000
  H   H265      1.0  0.50238  0.47989  0.57394  1.0000
  H   H266      1.0  0.50227  0.25778  0.58497  1.0000
  H   H267      1.0  0.47069  0.52017  0.55848  1.0000
  C   C160      1.0  0.48852  0.05785  0.46750  1.0000
  H   H268      1.0  0.07740  0.33176  0.37763  1.0000
  C   C161      1.0  0.51014  0.36300  0.45529  1.0000
  H   H269      1.0  0.49782  0.21512  0.58044  1.0000
  H   H270      1.0  0.39869  0.19594  0.54435  1.0000
  H   H271      1.0  0.46235  0.17445  0.58094  1.0000
  H   H272      1.0  0.39867  0.34438  0.42748  1.0000
  C   C162      1.0  0.46470  0.50230  0.44165  1.0000
  Fe  Fe24      1.0  0.49178  0.41903  0.38849  1.0000
  H   H273      1.0  0.28269  0.26155  0.42806  1.0000
  S   S47       1.0  0.49076  0.46962  0.63292  1.0000
  H   H274      1.0  0.42368  0.29413  0.43423  1.0000
  H   H275      1.0  0.34577  0.33756  0.47030  1.0000
  H   H276      1.0  0.42746  0.25334  0.42588  1.0000
  C   C163      1.0  0.51902  0.52239  0.44217  1.0000
  C   C164      1.0  0.40761  0.04360  0.44012  1.0000
  H   H277      1.0  0.39280  0.07196  0.41039  1.0000
  H   H278      1.0  0.37306  0.23300  0.61631  1.0000
  S   S48       1.0  0.51654  0.20976  0.61675  1.0000
  H   H279      1.0  0.12763  0.29575  0.38149  1.0000
  C   C165      1.0  0.46801  0.05404  0.48116  1.0000
  C   C166      1.0  0.44304  0.18409  0.58962  1.0000
  H   H280      1.0  0.45785  0.24374  0.60143  1.0000
  C   C167      1.0  0.32504  0.08658  0.42752  1.0000
  H   H281      1.0  0.40926  0.09748  0.45693  1.0000
  H   H282      1.0  0.32806  0.09080  0.41401  1.0000
  C   C168      1.0  0.39495  0.08900  0.42130  1.0000
  Fe  Fe25      1.0  0.46089  0.39849  0.35544  1.0000
  C   C169      1.0  0.50181  0.42075  0.46478  1.0000
  H   H283      1.0  0.38002  0.12322  0.44683  1.0000
  H   H284      1.0  0.50401  0.27988  0.61451  1.0000
  H   H285      1.0  0.43276  0.05181  0.44200  1.0000
  H   H286      1.0  0.41526  0.24195  0.56099  1.0000
  C   C170      1.0  0.42989  0.10111  0.42127  1.0000
  H   H287      1.0  0.43469  0.11631  0.43242  1.0000
  H   H288      1.0  0.43062  0.13247  0.58700  1.0000
  H   H289      1.0  0.41033  0.20824  0.61711  1.0000
  H   H290      1.0  0.41072  0.25279  0.61530  1.0000
  S   S49       1.0  0.48570  0.09363  0.45540  1.0000
  C   C171      1.0  0.48007  0.36253  0.44390  1.0000
  H   H291      1.0  0.32615  0.11070  0.43415  1.0000
  H   H292      1.0  0.48806  0.40972  0.47506  1.0000
  H   H293      1.0  0.32503  0.35524  0.35521  1.0000
  S   S50       1.0  0.47339  0.34462  0.35936  1.0000
  H   H294      1.0  0.46994  0.46270  0.59898  1.0000
  H   H295      1.0  0.48272  0.42886  0.45570  1.0000
  N   N13       1.0  0.35602  0.29018  0.44399  1.0000
  C   C172      1.0  0.32225  0.27701  0.44374  1.0000
  C   C173      1.0  0.36753  0.28912  0.46174  1.0000
  C   C174      1.0  0.37782  0.26738  0.43333  1.0000
  C   C175      1.0  0.35360  0.32471  0.43707  1.0000
  C   C176      1.0  0.30719  0.27146  0.42646  1.0000
  C   C177      1.0  0.34752  0.31131  0.47415  1.0000
  C   C178      1.0  0.41489  0.26900  0.43563  1.0000
  C   C179      1.0  0.38350  0.34606  0.43890  1.0000
  H   H296      1.0  0.32194  0.25307  0.45035  1.0000
  H   H297      1.0  0.30455  0.29402  0.45052  1.0000
  H   H298      1.0  0.39314  0.29591  0.46300  1.0000
  H   H299      1.0  0.36765  0.26321  0.46635  1.0000
  H   H300      1.0  0.37249  0.24115  0.43557  1.0000
  H   H301      1.0  0.37298  0.27156  0.41998  1.0000
  H   H302      1.0  0.34830  0.32370  0.42354  1.0000
  H   H303      1.0  0.33213  0.33935  0.44224  1.0000
  H   H304      1.0  0.43266  0.03571  0.67678  1.0000
  H   H305      1.0  0.34035  0.04922  0.44504  1.0000
  C   C180      1.0  0.50452  0.48191  0.42110  1.0000
  H   H306      1.0  0.32284  0.30221  0.47613  1.0000
  S   S51       1.0  0.49554  0.17523  0.48043  1.0000
  C   C181      1.0  0.40101  0.19168  0.55791  1.0000
  C   C182      1.0  0.35982  0.09370  0.46550  1.0000
  C   C183      1.0  0.41930  0.15601  0.59217  1.0000
  H   H307      1.0  0.38728  0.25151  0.58743  1.0000
  C   C184      1.0  0.42403  0.21691  0.56520  1.0000
  H   H308      1.0  0.44746  0.21134  0.55868  1.0000
  H   H309      1.0  0.45546  0.50392  0.60168  1.0000
  H   H310      1.0  0.10390  0.20296  0.35800  1.0000
  C   C185      1.0  0.49806  0.49657  0.58488  1.0000
  H   H311      1.0  0.44742  0.48224  0.58232  1.0000
  H   H312      1.0  0.51329  0.41565  0.43271  1.0000
  H   H313      1.0  0.49558  0.18247  0.42188  1.0000
  C   C186      1.0  0.51626  0.52172  0.64970  1.0000
  H   H314      1.0  0.51867  0.14830  0.41199  1.0000
  S   S52       1.0  0.50118  0.07512  0.57286  1.0000
  H   H315      1.0  0.50502  0.12949  0.67487  1.0000
  C   C187      1.0  0.48753  0.52309  0.44866  1.0000
  H   H316      1.0  0.50219  0.35435  0.46764  1.0000
  H   H317      1.0  0.50765  0.18815  0.55266  1.0000
  H   H318      1.0  0.51025  0.07196  0.50847  1.0000
  S   S53       1.0  0.51618  0.45946  0.40295  1.0000
  C   C188      1.0  0.51620  0.45263  0.47165  1.0000
  H   H319      1.0  0.52047  0.14263  0.57215  1.0000
  Fe  Fe26      1.0  0.52138  0.36065  0.36834  1.0000
  C   C189      1.0  0.15447  0.39133  0.93698  1.0000
  Fe  Fe27      1.0  0.11689  0.44905  0.97345  1.0000
  S   S54       1.0  0.07977  0.42224  0.95887  1.0000
  S   S55       1.0  0.15574  0.47872  0.96149  1.0000
  Fe  Fe28      1.0  0.08935  0.42731  0.00681  1.0000
  S   S56       1.0  0.05008  0.39922  0.99466  1.0000
  S   S57       1.0  0.03870  0.12034  0.96923  1.0000
  Fe  Fe29      1.0  0.08916  0.38061  0.97688  1.0000
  S   S58       1.0  0.10053  0.32708  0.96882  1.0000
  H   H320      1.0  0.03829  0.32586  0.98618  1.0000
  C   C190      1.0  0.14459  0.50486  0.94477  1.0000
  S   S59       1.0  0.12924  0.40601  0.99020  1.0000
  S   S60       1.0  0.08109  0.47274  0.99151  1.0000
  Fe  Fe30      1.0  0.06818  0.08909  0.98720  1.0000
  S   S61       1.0  0.11923  0.06780  0.98271  1.0000
  C   C191      1.0  0.02962  0.27414  0.98972  1.0000
  H   H321      1.0  0.09309  0.38514  0.90448  1.0000
  H   H322      1.0  0.11558  0.44220  0.92676  1.0000
  C   C192      1.0  0.11113  0.32865  0.01702  1.0000
  C   C193      1.0  0.07692  0.29431  0.97563  1.0000
  C   C194      1.0  0.17899  0.43255  0.91997  1.0000
  C   C195      1.0  0.07029  0.23472  0.97847  1.0000
  N   N14       1.0  0.08746  0.04250  0.91909  1.0000
  C   C196      1.0  0.18740  0.37526  0.94254  1.0000
  H   H323      1.0  0.09212  0.08664  0.90455  1.0000
  S   S62       1.0  0.05880  0.12439  0.00863  1.0000
  H   H324      1.0  0.12057  0.43664  0.90499  1.0000
  N   N15       1.0  0.15411  0.40625  0.91990  1.0000
  H   H325      1.0  0.11089  0.25612  0.96622  1.0000
  C   C197      1.0  0.04088  0.24110  0.98697  1.0000
  H   H326      1.0  0.08927  0.38534  0.92699  1.0000
  H   H327      1.0  0.12829  0.34452  0.91600  1.0000
  H   H328      1.0  0.13611  0.37250  0.93845  1.0000
  H   H329      1.0  0.16939  0.32843  0.91217  1.0000
  C   C198      1.0  0.03050  0.07116  0.92459  1.0000
  H   H330      1.0  0.51936  0.03339  0.69514  1.0000
  H   H331      1.0  0.06922  0.41684  0.91507  1.0000
  C   C199      1.0  0.16293  0.38138  0.90625  1.0000
  H   H332      1.0  0.09476  0.49142  0.94410  1.0000
  H   H333      1.0  0.19850  0.35815  0.93302  1.0000
  H   H334      1.0  0.07927  0.20940  0.97628  1.0000
  H   H335      1.0  0.15488  0.39123  0.89400  1.0000
  C   C200      1.0  0.09194  0.40081  0.91589  1.0000
  H   H336      1.0  0.16247  0.06518  0.93543  1.0000
  H   H337      1.0  0.05187  0.50331  0.96186  1.0000
  C   C201      1.0  0.12111  0.42315  0.91691  1.0000
  Fe  Fe31      1.0  0.02550  0.15306  0.99145  1.0000
  C   C202      1.0  0.08817  0.26125  0.97278  1.0000
  H   H338      1.0  0.14742  0.41068  0.94650  1.0000
  H   H339      1.0  0.06350  0.05046  0.94291  1.0000
  H   H340      1.0  0.20475  0.39440  0.94591  1.0000
  H   H341      1.0  0.20410  0.42121  0.92112  1.0000
  C   C203      1.0  0.04749  0.30060  0.98411  1.0000
  H   H342      1.0  0.13581  0.08962  0.92237  1.0000
  H   H343      1.0  0.17564  0.44916  0.93100  1.0000
  H   H344      1.0  0.20183  0.46945  0.90506  1.0000
  H   H345      1.0  0.17991  0.44083  0.89281  1.0000
  H   H346      1.0  0.14269  0.33718  0.89545  1.0000
  C   C204      1.0  0.14983  0.34630  0.90793  1.0000
  H   H347      1.0  0.18991  0.37754  0.90528  1.0000
  H   H348      1.0  0.06003  0.07657  0.88224  1.0000
  H   H349      1.0  0.18351  0.36071  0.95392  1.0000
  H   H350      1.0  0.48864  0.10060  0.70899  1.0000
  C   C205      1.0  0.17951  0.45508  0.90466  1.0000
  H   H351      1.0  0.15159  0.29777  0.00549  1.0000
  H   H352      1.0  0.49073  0.05138  0.72123  1.0000
  S   S63       1.0  0.02839  0.05605  0.99400  1.0000
  C   C206      1.0  0.13651  0.07101  0.93235  1.0000
  C   C207      1.0  0.14701  0.32236  0.01156  1.0000
  Fe  Fe32      1.0  0.04466  0.44329  0.97807  1.0000
  H   H353      1.0  0.04063  0.04682  0.89421  1.0000
  C   C208      1.0  0.11291  0.50619  0.93856  1.0000
  C   C209      1.0  0.09098  0.05938  0.90262  1.0000
  H   H354      1.0  0.04995  0.31010  0.01909  1.0000
  C   C210      1.0  0.06454  0.05347  0.88938  1.0000
  H   H355      1.0  0.15869  0.47373  0.90486  1.0000
  H   H356      1.0  0.09614  0.32908  0.00554  1.0000
  H   H357      1.0  0.11454  0.05107  0.89665  1.0000
  H   H358      1.0  0.10127  0.27011  0.00830  1.0000
  H   H359      1.0  0.08458  0.04864  0.01846  1.0000
  H   H360      1.0  0.15292  0.34089  0.00213  1.0000
  C   C211      1.0  0.49695  0.13102  0.68803  1.0000
  H   H361      1.0  0.12511  0.08182  0.94385  1.0000
  H   H362      1.0  0.07341  0.03445  0.88012  1.0000
  H   H363      1.0  0.03028  0.08862  0.91410  1.0000
  C   C212      1.0  0.03158  0.52116  0.96297  1.0000
  C   C213      1.0  0.51692  0.04334  0.72134  1.0000
  H   H364      1.0  0.50965  0.15073  0.69467  1.0000
  C   C214      1.0  0.06535  0.06292  0.93070  1.0000
  H   H365      1.0  0.14576  0.02705  0.00863  1.0000
  H   H366      1.0  0.07523  0.08746  0.93343  1.0000
  H   H367      1.0  0.47066  0.13887  0.68779  1.0000
  H   H368      1.0  0.19266  0.52308  0.94200  1.0000
  C   C215      1.0  0.16801  0.52403  0.93730  1.0000
  H   H369      1.0  0.48589  0.07983  0.68960  1.0000
  C   C216      1.0  0.50091  0.09720  0.69671  1.0000
  C   C217      1.0  0.12065  0.03873  0.92709  1.0000
  C   C218      1.0  0.10466  0.52631  0.92498  1.0000
  C   C219      1.0  0.12338  0.02736  0.97430  1.0000
  H   H370      1.0  0.17177  0.53477  0.08635  1.0000
  C   C220      1.0  0.03708  0.01053  0.13939  1.0000
  H   H371      1.0  0.16824  0.53142  0.03316  1.0000
  Fe  Fe33      1.0  0.08330  0.58915  0.11188  1.0000
  S   S64       1.0  0.13453  0.56707  0.11297  1.0000
  Fe  Fe34      1.0  0.03470  0.64789  0.11568  1.0000
  C   C221      1.0  0.03395  0.76645  0.12342  1.0000
  C   C222      1.0  0.16938  0.53337  0.07259  1.0000
  S   S65       1.0  0.07113  0.63300  0.09585  1.0000
  Fe  Fe35      1.0  0.10050  0.87153  0.12566  1.0000
  S   S66       1.0  0.13858  0.89834  0.11174  1.0000
  S   S67       1.0  0.11406  0.81874  0.13333  1.0000
  Fe  Fe36      1.0  0.05332  0.93205  0.12566  1.0000
  S   S68       1.0  0.08776  0.96289  0.11190  1.0000
  Fe  Fe37      1.0  0.09695  0.91752  0.09600  1.0000
  S   S69       1.0  0.09008  0.92209  0.06832  1.0000
  Fe  Fe38      1.0  0.12542  0.94123  0.12914  1.0000
  S   S70       1.0  0.16321  0.97334  0.14080  1.0000
  S   S71       1.0  0.05989  0.88777  0.10868  1.0000
  S   S72       1.0  0.09019  0.91321  0.14413  1.0000
  H   H372      1.0  0.02398  0.60402  0.16930  1.0000
  C   C223      1.0  0.08776  0.78632  0.12898  1.0000
  C   C224      1.0  0.10002  0.75323  0.12952  1.0000
  C   C225      1.0  0.07943  0.72685  0.12686  1.0000
  S   S73       1.0  0.04702  0.55702  0.10004  1.0000
  H   H373      1.0  0.06294  0.78060  0.07129  1.0000
  C   C226      1.0  0.13650  0.53064  0.12464  1.0000
  H   H374      1.0  0.12556  0.74796  0.13207  1.0000
  H   H375      1.0  0.08914  0.70151  0.12742  1.0000
  C   C227      1.0  0.12014  0.99349  0.04542  1.0000
  C   C228      1.0  0.04619  0.73338  0.12402  1.0000
  C   C229      1.0  0.03886  0.77214  0.06727  1.0000
  S   S74       1.0  0.05034  0.60648  0.13295  1.0000
  H   H376      1.0  0.14892  0.99226  0.06793  1.0000
  C   C230      1.0  0.15107  0.99966  0.15773  1.0000
  H   H377      1.0  0.06080  0.02231  0.09289  1.0000
  C   C231      1.0  0.11180  0.01749  0.17904  1.0000
  C   C232      1.0  0.02610  0.62949  0.17425  1.0000
  H   H378      1.0  0.02543  0.96033  0.06004  1.0000
  C   C233      1.0  0.17419  0.89346  0.03292  1.0000
  C   C234      1.0  0.18038  0.89846  0.04987  1.0000
  C   C235      1.0  0.15458  0.90560  0.06108  1.0000
  C   C236      1.0  0.12249  0.90802  0.05533  1.0000
  C   C237      1.0  0.11631  0.90283  0.03843  1.0000
  C   C238      1.0  0.14204  0.89562  0.02729  1.0000
  H   H379      1.0  0.20520  0.89703  0.05433  1.0000
  H   H380      1.0  0.15959  0.91010  0.07407  1.0000
  H   H381      1.0  0.09159  0.90502  0.03388  1.0000
  H   H382      1.0  0.03113  0.70600  0.08131  1.0000
  H   H383      1.0  0.06184  0.96674  0.03386  1.0000
  H   H384      1.0  0.04826  0.54931  0.03139  1.0000
  C   C239      1.0  0.16619  0.56977  0.06706  1.0000
  H   H385      1.0  0.09243  0.54317  0.13831  1.0000
  C   C240      1.0  0.12030  0.99795  0.16496  1.0000
  H   H386      1.0  0.08808  0.01552  0.18467  1.0000
  H   H387      1.0  0.16159  0.02232  0.05419  1.0000
  C   C241      1.0  0.05467  0.79281  0.12570  1.0000
  H   H388      1.0  0.05809  0.75466  0.04382  1.0000
  H   H389      1.0  0.06129  0.72471  0.05956  1.0000
  H   H390      1.0  0.04487  0.81814  0.12539  1.0000
  C   C242      1.0  0.10971  0.52998  0.06922  1.0000
  H   H391      1.0  0.16158  0.57235  0.05364  1.0000
  H   H392      1.0  0.09584  0.99022  0.05105  1.0000
  N   N16       1.0  0.17453  0.88130  0.17508  1.0000
  C   C243      1.0  0.17315  0.86645  0.15777  1.0000
  C   C244      1.0  0.15129  0.86296  0.18568  1.0000
  C   C245      1.0  0.20879  0.87506  0.18137  1.0000
  C   C246      1.0  0.16584  0.91799  0.17418  1.0000
  C   C247      1.0  0.19804  0.87843  0.14510  1.0000
  C   C248      1.0  0.11535  0.86531  0.18017  1.0000
  C   C249      1.0  0.21580  0.88666  0.19923  1.0000
  C   C250      1.0  0.15360  0.93590  0.19033  1.0000
  H   H393      1.0  0.17625  0.83888  0.15806  1.0000
  H   H394      1.0  0.14889  0.87179  0.15209  1.0000
  H   H395      1.0  0.15148  0.87118  0.19881  1.0000
  H   H396      1.0  0.15896  0.83611  0.18601  1.0000
  H   H397      1.0  0.21598  0.84810  0.18048  1.0000
  H   H398      1.0  0.22644  0.88792  0.17357  1.0000
  H   H399      1.0  0.18689  0.93144  0.16947  1.0000
  H   H400      1.0  0.14625  0.92265  0.16490  1.0000
  H   H401      1.0  0.22314  0.86870  0.14778  1.0000
  H   H402      1.0  0.19201  0.86848  0.13262  1.0000
  H   H403      1.0  0.19724  0.90580  0.14422  1.0000
  H   H404      1.0  0.10610  0.89126  0.17854  1.0000
  H   H405      1.0  0.11156  0.85082  0.16860  1.0000
  H   H406      1.0  0.10009  0.85441  0.18987  1.0000
  H   H407      1.0  0.21410  0.91407  0.20036  1.0000
  H   H408      1.0  0.24136  0.87890  0.20232  1.0000
  H   H409      1.0  0.20030  0.87534  0.20862  1.0000
  H   H410      1.0  0.16477  0.96033  0.19130  1.0000
  H   H411      1.0  0.15918  0.92294  0.20201  1.0000
  H   H412      1.0  0.12694  0.94179  0.18968  1.0000
  H   H413      1.0  0.13064  0.96786  0.04405  1.0000
  H   H414      1.0  0.10620  0.53958  0.08215  1.0000
  H   H415      1.0  0.02759  0.54694  0.15606  1.0000
  H   H416      1.0  0.18927  0.58180  0.06987  1.0000
  H   H417      1.0  0.10815  0.55252  0.06154  1.0000
  H   H418      1.0  0.04767  0.00470  0.02372  1.0000
  H   H419      1.0  0.03891  0.68152  0.04282  1.0000
  H   H420      1.0  0.05217  0.63506  0.17295  1.0000
  H   H421      1.0  0.10318  0.98112  0.15991  1.0000
  H   H422      1.0  0.05834  0.99402  0.14074  1.0000
  Fe  Fe39      1.0  0.03220  0.60208  0.08548  1.0000
  H   H423      1.0  0.14678  0.58383  0.07425  1.0000
  H   H424      1.0  0.02636  0.76397  0.07860  1.0000
  C   C251      1.0  0.13957  0.01105  0.05893  1.0000
  H   H425      1.0  0.17682  0.96988  0.02955  1.0000
  C   C252      1.0  0.14933  0.01502  0.02086  1.0000
  C   C253      1.0  0.06301  0.98143  0.02237  1.0000
  N   N17       1.0  0.11672  0.00997  0.02883  1.0000
  H   H426      1.0  0.03616  0.96895  0.08848  1.0000
  C   C254      1.0  0.04360  0.70947  0.02077  1.0000
  H   H427      1.0  0.19697  0.02302  0.15904  1.0000
  C   C255      1.0  0.04426  0.74404  0.05422  1.0000
  C   C256      1.0  0.17305  0.02166  0.16452  1.0000
  H   H428      1.0  0.12518  0.53941  0.03716  1.0000
  H   H429      1.0  0.07004  0.70887  0.02360  1.0000
  C   C257      1.0  0.02363  0.70065  0.03625  1.0000
  S   S75       1.0  0.02993  0.59794  0.05757  1.0000
  H   H430      1.0  0.05328  0.01586  0.07129  1.0000
  H   H431      1.0  0.02523  0.79396  0.06205  1.0000
  C   C258      1.0  0.04126  0.02030  0.08350  1.0000
  H   H432      1.0  0.02361  0.67057  0.06815  1.0000
  H   H433      1.0  0.05784  0.52737  0.06495  1.0000
  H   H434      1.0  0.45781  0.68312  0.39810  1.0000
  H   H435      1.0  0.51564  0.77635  0.47124  1.0000
  H   H436      1.0  0.47932  0.55002  0.41461  1.0000
  C   C259      1.0  0.51592  0.55462  0.65552  1.0000
  H   H437      1.0  0.43238  0.63421  0.54845  1.0000
  H   H438      1.0  0.51691  0.00910  0.53067  1.0000
  Fe  Fe40      1.0  0.43943  0.67354  0.60877  1.0000
  S   S76       1.0  0.48945  0.67430  0.61987  1.0000
  S   S77       1.0  0.43011  0.65796  0.58213  1.0000
  Fe  Fe41      1.0  0.40606  0.70350  0.64019  1.0000
  S   S78       1.0  0.45383  0.70644  0.65327  1.0000
  S   S79       1.0  0.36260  0.73037  0.65271  1.0000
  Fe  Fe42      1.0  0.47342  0.72486  0.62937  1.0000
  C   C260      1.0  0.46062  0.63005  0.40269  1.0000
  Fe  Fe43      1.0  0.46479  0.65562  0.64255  1.0000
  H   H439      1.0  0.44933  0.72679  0.49269  1.0000
  S   S80       1.0  0.42493  0.72560  0.61682  1.0000
  S   S81       1.0  0.41559  0.65110  0.63097  1.0000
  C   C261      1.0  0.33641  0.67978  0.67065  1.0000
  H   H440      1.0  0.49558  0.75159  0.50478  1.0000
  H   H441      1.0  0.51068  0.95923  0.57894  1.0000
  S   S82       1.0  0.50150  0.62500  0.49355  1.0000
  H   H442      1.0  0.41321  0.81910  0.62961  1.0000
  H   H443      1.0  0.50740  0.68916  0.68241  1.0000
  H   H444      1.0  0.48989  0.77633  0.54145  1.0000
  H   H445      1.0  0.49362  0.66240  0.38972  1.0000
  C   C262      1.0  0.46381  0.57099  0.40980  1.0000
  S   S83       1.0  0.50034  0.77205  0.62794  1.0000
  C   C263      1.0  0.49209  0.97518  0.68257  1.0000
  C   C264      1.0  0.38606  0.86373  0.65464  1.0000
  H   H446      1.0  0.33868  0.79699  0.64993  1.0000
  H   H447      1.0  0.35426  0.86807  0.60522  1.0000
  H   H448      1.0  0.49561  0.00128  0.57820  1.0000
  C   C265      1.0  0.47413  0.71167  0.54057  1.0000
  H   H449      1.0  0.42907  0.53747  0.58194  1.0000
  S   S84       1.0  0.49959  0.96456  0.49870  1.0000
  H   H450      1.0  0.42812  0.74150  0.53656  1.0000
  C   C266      1.0  0.33634  0.71373  0.66752  1.0000
  H   H451      1.0  0.45147  0.62252  0.39024  1.0000
  H   H452      1.0  0.43375  0.81523  0.65904  1.0000
  C   C267      1.0  0.46340  0.56571  0.64273  1.0000
  H   H453      1.0  0.37868  0.83088  0.60802  1.0000
  H   H454      1.0  0.41391  0.59040  0.41646  1.0000
  H   H455      1.0  0.35248  0.66268  0.66368  1.0000
  H   H456      1.0  0.32464  0.86188  0.67007  1.0000
  C   C268      1.0  0.51488  0.98587  0.67105  1.0000
  H   H457      1.0  0.36053  0.80989  0.66761  1.0000
  H   H458      1.0  0.42963  0.86614  0.63826  1.0000
  H   H459      1.0  0.39211  0.87012  0.61582  1.0000
  H   H460      1.0  0.45030  0.75297  0.55509  1.0000
  C   C269      1.0  0.47448  0.54147  0.56705  1.0000
  H   H461      1.0  0.39543  0.85512  0.66684  1.0000
  H   H462      1.0  0.30226  0.84918  0.65186  1.0000
  C   C270      1.0  0.35212  0.84925  0.63033  1.0000
  C   C271      1.0  0.48293  0.62180  0.54274  1.0000
  C   C272      1.0  0.45708  0.63341  0.55309  1.0000
  C   C273      1.0  0.46303  0.64388  0.56943  1.0000
  H   H463      1.0  0.51617  0.62545  0.42624  1.0000
  H   H464      1.0  0.47563  0.69393  0.50008  1.0000
  C   C274      1.0  0.44379  0.73221  0.54682  1.0000
  C   C275      1.0  0.31799  0.84053  0.66224  1.0000
  H   H465      1.0  0.46538  0.68876  0.53469  1.0000
  H   H466      1.0  0.49027  0.67082  0.41181  1.0000
  H   H467      1.0  0.43769  0.57321  0.43370  1.0000
  C   C276      1.0  0.45951  0.71531  0.50414  1.0000
  C   C277      1.0  0.51470  0.61978  0.54889  1.0000
  H   H468      1.0  0.31539  0.64162  0.68516  1.0000
  S   S85       1.0  0.47591  0.55095  0.46492  1.0000
  H   H469      1.0  0.43873  0.70656  0.51137  1.0000
  H   H470      1.0  0.44287  0.58253  0.64006  1.0000
  H   H471      1.0  0.42122  0.54692  0.41845  1.0000
  H   H472      1.0  0.46096  0.76239  0.51705  1.0000
  H   H473      1.0  0.43774  0.77793  0.64709  1.0000
  H   H474      1.0  0.47312  0.55317  0.60135  1.0000
  H   H475      1.0  0.44430  0.62817  0.43633  1.0000
  H   H476      1.0  0.36700  0.88312  0.65811  1.0000
  H   H477      1.0  0.47809  0.61338  0.53023  1.0000
  S   S86       1.0  0.49033  0.61817  0.65895  1.0000
  H   H478      1.0  0.48751  0.70313  0.55183  1.0000
  H   H479      1.0  0.51277  0.67963  0.52016  1.0000
  H   H480      1.0  0.45740  0.56377  0.39685  1.0000
  C   C278      1.0  0.41969  0.79585  0.65292  1.0000
  N   N18       1.0  0.49639  0.72877  0.52893  1.0000
  C   C279      1.0  0.49424  0.61047  0.42708  1.0000
  H   H481      1.0  0.45511  0.02201  0.50113  1.0000
  C   C280      1.0  0.49462  0.00003  0.48644  1.0000
  H   H482      1.0  0.50254  0.58738  0.43349  1.0000
  H   H483      1.0  0.49987  0.65054  0.58786  1.0000
  N   N19       1.0  0.37148  0.83601  0.64495  1.0000
  H   H484      1.0  0.40463  0.70168  0.68174  1.0000
  C   C281      1.0  0.47836  0.74127  0.51382  1.0000
  H   H485      1.0  0.40289  0.90324  0.63878  1.0000
  C   C282      1.0  0.49647  0.55565  0.59467  1.0000
  H   H486      1.0  0.40639  0.78203  0.66229  1.0000
  C   C283      1.0  0.39690  0.80995  0.63929  1.0000
  H   H487      1.0  0.42879  0.71596  0.55443  1.0000
  H   H488      1.0  0.30288  0.82509  0.67020  1.0000
  H   H489      1.0  0.33888  0.87315  0.63370  1.0000
  C   C284      1.0  0.34815  0.81922  0.65623  1.0000
  H   H490      1.0  0.49574  0.58174  0.59041  1.0000
  H   H491      1.0  0.44171  0.57917  0.57953  1.0000
  H   H492      1.0  0.42939  0.89224  0.65584  1.0000
  C   C285      1.0  0.41326  0.88223  0.64614  1.0000
  H   H493      1.0  0.41853  0.00080  0.45542  1.0000
  C   C286      1.0  0.48970  0.57682  0.65188  1.0000
  C   C287      1.0  0.44059  0.55449  0.57339  1.0000
  H   H494      1.0  0.47412  0.62071  0.45178  1.0000
  C   C288      1.0  0.47043  0.63011  0.43899  1.0000
  C   C289      1.0  0.37085  0.85486  0.61407  1.0000
  C   C290      1.0  0.51390  0.98419  0.58422  1.0000
  H   H495      1.0  0.38501  0.78873  0.63327  1.0000
  H   H496      1.0  0.31442  0.76173  0.67400  1.0000
  H   H497      1.0  0.33289  0.83196  0.62680  1.0000
  C   C291      1.0  0.43241  0.57115  0.42025  1.0000
  C   C292      1.0  0.46327  0.53244  0.63742  1.0000
  C   C293      1.0  0.31531  0.66790  0.68279  1.0000
  H   H498      1.0  0.42406  0.55799  0.56260  1.0000
  Fe  Fe44      1.0  0.51476  0.58242  0.47603  1.0000
  C   C294      1.0  0.31501  0.73554  0.67653  1.0000
  C   C295      1.0  0.49495  0.64263  0.57535  1.0000
  H   H499      1.0  0.48290  0.56163  0.55909  1.0000
  C   C296      1.0  0.47688  0.66332  0.40057  1.0000
  H   H500      1.0  0.44213  0.75867  0.68510  1.0000
  H   H501      1.0  0.37622  0.01278  0.45539  1.0000
  N   N20       1.0  0.48202  0.60245  0.40989  1.0000
  H   H502      1.0  0.51716  0.57002  0.61827  1.0000
  C   C297      1.0  0.45549  0.02156  0.67498  1.0000
  H   H503      1.0  0.50792  0.98469  0.59768  1.0000
  H   H504      1.0  0.47638  0.65658  0.43974  1.0000
  H   H505      1.0  0.43828  0.63542  0.41012  1.0000
  C   C298      1.0  0.52064  0.63025  0.56519  1.0000
  C   C299      1.0  0.51502  0.00395  0.47278  1.0000
  C   C300      1.0  0.40086  0.02257  0.45541  1.0000
  C   C301      1.0  0.50987  0.75800  0.53787  1.0000
  H   H506      1.0  0.50359  0.74789  0.67643  1.0000
  H   H507      1.0  0.51752  0.87471  0.67490  1.0000
  C   C302      1.0  0.50812  0.01439  0.66159  1.0000
  H   H508      1.0  0.43416  0.64796  0.68377  1.0000
  N   N21       1.0  0.49995  0.53225  0.57993  1.0000
  C   C303      1.0  0.46206  0.99272  0.68427  1.0000
  C   C304      1.0  0.47085  0.02495  0.49053  1.0000
  H   H509      1.0  0.40891  0.02662  0.42909  1.0000
  H   H510      1.0  0.52227  0.52741  0.54566  1.0000
  H   H511      1.0  0.50279  0.59326  0.38531  1.0000
  H   H512      1.0  0.52101  0.75086  0.54997  1.0000
  C   C305      1.0  0.51096  0.59685  0.39837  1.0000
  H   H513      1.0  0.52122  0.79788  0.52073  1.0000
  Fe  Fe45      1.0  0.24035  0.72117  0.76397  1.0000
  S   S87       1.0  0.20059  0.76068  0.76210  1.0000
  S   S88       1.0  0.26387  0.71472  0.78901  1.0000
  Fe  Fe46      1.0  0.22817  0.77759  0.74008  1.0000
  S   S89       1.0  0.24117  0.83089  0.73960  1.0000
  S   S90       1.0  0.26985  0.74062  0.74330  1.0000
  Fe  Fe47      1.0  0.44933  0.87932  0.74226  1.0000
  S   S91       1.0  0.43514  0.83131  0.73075  1.0000
  S   S92       1.0  0.44352  0.88984  0.76972  1.0000
  Fe  Fe48      1.0  0.47236  0.90743  0.70947  1.0000
  H   H514      1.0  0.09794  0.99735  0.00457  1.0000
  H   H515      1.0  0.11101  0.96243  0.01647  1.0000
  Fe  Fe49      1.0  0.41406  0.86371  0.71085  1.0000
  H   H516      1.0  0.34901  0.85949  0.95454  1.0000
  Fe  Fe50      1.0  0.48175  0.83336  0.71655  1.0000
  C   C306      1.0  0.29456  0.68990  0.69210  1.0000
  S   S93       1.0  0.42444  0.91224  0.72322  1.0000
  H   H517      1.0  0.03617  0.79405  0.93185  1.0000
  Fe  Fe51      1.0  0.22601  0.84173  0.96055  1.0000
  S   S94       1.0  0.17769  0.83821  0.94810  1.0000
  S   S95       1.0  0.27204  0.81620  0.95010  1.0000
  C   C307      1.0  0.09642  0.98300  0.90724  1.0000
  Fe  Fe52      1.0  0.16078  0.81763  0.97215  1.0000
  S   S96       1.0  0.13544  0.76947  0.97170  1.0000
  Fe  Fe53      1.0  0.16574  0.88800  0.95997  1.0000
  S   S97       1.0  0.13684  0.92818  0.94672  1.0000
  S   S98       1.0  0.21565  0.89349  0.97057  1.0000
  Fe  Fe54      1.0  0.41487  0.77148  0.84167  1.0000
  S   S99       1.0  0.44171  0.73097  0.85546  1.0000
  S   S100      1.0  0.42056  0.76538  0.81390  1.0000
  Fe  Fe55      1.0  0.38369  0.80128  0.87350  1.0000
  S   S101      1.0  0.40864  0.76285  0.88963  1.0000
  S   S102      1.0  0.34623  0.84090  0.88247  1.0000
  Fe  Fe56      1.0  0.45301  0.77071  0.87383  1.0000
  S   S103      1.0  0.50311  0.77530  0.88505  1.0000
  Fe  Fe57      1.0  0.39511  0.72702  0.86959  1.0000
  S   S104      1.0  0.37281  0.67751  0.87100  1.0000
  S   S105      1.0  0.42914  0.81209  0.85906  1.0000
  S   S106      1.0  0.36734  0.76473  0.85449  1.0000
  Fe  Fe58      1.0  0.13941  0.67051  0.86818  1.0000
  S   S107      1.0  0.13736  0.61736  0.86033  1.0000
  S   S108      1.0  0.10734  0.71010  0.85597  1.0000
  Fe  Fe59      1.0  0.19934  0.65570  0.88944  1.0000
  S   S109      1.0  0.20232  0.60132  0.88313  1.0000
  S   S110      1.0  0.23468  0.68042  0.90609  1.0000
  Fe  Fe60      1.0  0.19153  0.61858  0.85713  1.0000
  S   S111      1.0  0.21480  0.59904  0.83322  1.0000
  Fe  Fe61      1.0  0.14809  0.60539  0.88706  1.0000
  S   S112      1.0  0.11619  0.56976  0.90022  1.0000
  S   S113      1.0  0.19279  0.67256  0.86329  1.0000
  S   S114      1.0  0.14585  0.65895  0.89513  1.0000
  C   C308      1.0  0.07930  0.73251  0.86884  1.0000
  C   C309      1.0  0.07428  0.72323  0.88526  1.0000
  C   C310      1.0  0.05152  0.74132  0.89525  1.0000
  H   H518      1.0  0.33205  0.59806  0.83383  1.0000
  H   H519      1.0  0.25143  0.80334  0.77668  1.0000
  H   H520      1.0  0.44471  0.70504  0.68973  1.0000
  H   H521      1.0  0.08755  0.70184  0.89020  1.0000
  H   H522      1.0  0.16958  0.64571  0.77211  1.0000
  C   C311      1.0  0.29439  0.72376  0.68884  1.0000
  H   H523      1.0  0.09877  0.83245  0.95379  1.0000
  H   H524      1.0  0.07829  0.66254  0.80763  1.0000
  H   H525      1.0  0.06070  0.71989  0.80600  1.0000
  C   C312      1.0  0.33454  0.67886  0.88090  1.0000
  C   C313      1.0  0.32814  0.69926  0.89482  1.0000
  C   C314      1.0  0.29783  0.69889  0.90294  1.0000
  C   C315      1.0  0.27335  0.67938  0.89665  1.0000
  C   C316      1.0  0.27962  0.65944  0.88259  1.0000
  C   C317      1.0  0.31031  0.65866  0.87496  1.0000
  H   H526      1.0  0.34685  0.71465  0.89960  1.0000
  H   H527      1.0  0.29337  0.71399  0.91398  1.0000
  H   H528      1.0  0.26102  0.64408  0.87773  1.0000
  H   H529      1.0  0.31501  0.64244  0.86440  1.0000
  H   H530      1.0  0.05930  0.56217  0.95541  1.0000
  H   H531      1.0  0.34900  0.80460  0.81499  1.0000
  C   C318      1.0  0.13171  0.96459  0.95885  1.0000
  C   C319      1.0  0.10043  0.97905  0.96154  1.0000
  H   H532      1.0  0.28032  0.78582  0.79026  1.0000
  C   C320      1.0  0.15878  0.98089  0.96456  1.0000
  H   H533      1.0  0.07949  0.96627  0.95732  1.0000
  H   H534      1.0  0.43425  0.68978  0.72576  1.0000
  H   H535      1.0  0.18302  0.96989  0.96248  1.0000
  C   C321      1.0  0.29256  0.82451  0.93148  1.0000
  C   C322      1.0  0.31536  0.80045  0.92526  1.0000
  C   C323      1.0  0.33180  0.80528  0.91027  1.0000
  C   C324      1.0  0.32602  0.83450  0.90146  1.0000
  C   C325      1.0  0.30325  0.85873  0.90770  1.0000
  C   C326      1.0  0.28642  0.85372  0.92266  1.0000
  H   H536      1.0  0.32003  0.77764  0.93192  1.0000
  H   H537      1.0  0.34883  0.78624  0.90551  1.0000
  H   H538      1.0  0.29864  0.88140  0.90093  1.0000
  H   H539      1.0  0.26895  0.87246  0.92738  1.0000
  H   H540      1.0  0.15310  0.55908  0.97139  1.0000
  H   H541      1.0  0.27292  0.78989  0.71429  1.0000
  C   C327      1.0  0.06161  0.77325  0.72365  1.0000
  C   C328      1.0  0.35026  0.87735  0.76634  1.0000
  C   C329      1.0  0.09369  0.77137  0.97634  1.0000
  C   C330      1.0  0.07524  0.74462  0.97174  1.0000
  H   H542      1.0  0.34014  0.88651  0.72479  1.0000
  H   H543      1.0  0.08687  0.72314  0.96572  1.0000
  H   H544      1.0  0.26693  0.93042  0.00646  1.0000
  C   C331      1.0  0.43898  0.85525  0.78231  1.0000
  C   C332      1.0  0.44485  0.82314  0.77595  1.0000
  C   C333      1.0  0.43957  0.79576  0.78588  1.0000
  C   C334      1.0  0.42902  0.80030  0.80233  1.0000
  C   C335      1.0  0.42400  0.83233  0.80891  1.0000
  C   C336      1.0  0.42893  0.85981  0.79887  1.0000
  H   H545      1.0  0.45358  0.81935  0.76342  1.0000
  H   H546      1.0  0.44364  0.77097  0.78079  1.0000
  H   H547      1.0  0.41572  0.83597  0.82160  1.0000
  H   H548      1.0  0.42455  0.88463  0.80388  1.0000
  C   C337      1.0  0.27225  0.80961  0.78467  1.0000
  H   H549      1.0  0.17572  0.02526  0.97609  1.0000
  C   C338      1.0  0.09623  0.01034  0.96929  1.0000
  C   C339      1.0  0.34871  0.76665  0.76626  1.0000
  C   C340      1.0  0.11110  0.62400  0.93914  1.0000
  C   C341      1.0  0.25154  0.68161  0.80102  1.0000
  C   C342      1.0  0.25351  0.68401  0.81834  1.0000
  C   C343      1.0  0.24345  0.65820  0.82828  1.0000
  C   C344      1.0  0.23147  0.62976  0.82096  1.0000
  C   C345      1.0  0.23146  0.62648  0.80359  1.0000
  C   C346      1.0  0.24103  0.65257  0.79362  1.0000
  H   H550      1.0  0.26225  0.70613  0.82414  1.0000
  H   H551      1.0  0.24527  0.66022  0.84161  1.0000
  H   H552      1.0  0.22287  0.60422  0.79784  1.0000
  H   H553      1.0  0.24022  0.65021  0.78024  1.0000
  C   C347      1.0  0.27742  0.83493  0.72845  1.0000
  C   C348      1.0  0.29643  0.86218  0.73141  1.0000
  C   C349      1.0  0.32575  0.86520  0.72269  1.0000
  C   C350      1.0  0.33538  0.84151  0.71060  1.0000
  C   C351      1.0  0.31632  0.81440  0.70762  1.0000
  C   C352      1.0  0.28768  0.81078  0.71673  1.0000
  H   H554      1.0  0.28828  0.88108  0.74033  1.0000
  H   H555      1.0  0.10071  0.73325  0.80234  1.0000
  C   C353      1.0  0.03002  0.73870  0.74107  1.0000
  N   N22       1.0  0.21883  0.78596  0.89337  1.0000
  C   C354      1.0  0.24768  0.79693  0.88358  1.0000
  C   C355      1.0  0.19531  0.81568  0.89532  1.0000
  C   C356      1.0  0.20335  0.75892  0.88346  1.0000
  C   C357      1.0  0.23115  0.77310  0.90979  1.0000
  C   C358      1.0  0.27443  0.76989  0.87937  1.0000
  C   C359      1.0  0.20809  0.84550  0.90502  1.0000
  C   C360      1.0  0.16736  0.75274  0.88726  1.0000
  C   C361      1.0  0.20576  0.76455  0.92297  1.0000
  H   H556      1.0  0.23957  0.80825  0.87165  1.0000
  H   H557      1.0  0.26046  0.81644  0.89042  1.0000
  H   H558      1.0  0.17251  0.80946  0.90161  1.0000
  H   H559      1.0  0.18740  0.82466  0.88287  1.0000
  H   H560      1.0  0.20425  0.76412  0.86992  1.0000
  H   H561      1.0  0.21728  0.73481  0.88494  1.0000
  H   H562      1.0  0.24664  0.75009  0.90787  1.0000
  H   H563      1.0  0.24821  0.79010  0.91562  1.0000
  H   H564      1.0  0.26505  0.74805  0.87284  1.0000
  H   H565      1.0  0.29274  0.78050  0.87108  1.0000
  H   H566      1.0  0.28783  0.76198  0.89067  1.0000
  H   H567      1.0  0.22666  0.85829  0.89785  1.0000
  H   H568      1.0  0.18762  0.86400  0.90738  1.0000
  H   H569      1.0  0.21811  0.83832  0.91727  1.0000
  H   H570      1.0  0.16025  0.73060  0.88013  1.0000
  H   H571      1.0  0.15081  0.77353  0.88309  1.0000
  H   H572      1.0  0.16295  0.74757  0.90046  1.0000
  H   H573      1.0  0.19939  0.73829  0.92172  1.0000
  H   H574      1.0  0.18334  0.78067  0.92295  1.0000
  H   H575      1.0  0.21637  0.76811  0.93551  1.0000
  N   N23       1.0  0.12912  0.66520  0.80090  1.0000
  C   C362      1.0  0.12124  0.64978  0.78433  1.0000
  C   C363      1.0  0.14323  0.63970  0.81266  1.0000
  C   C364      1.0  0.15390  0.69083  0.79825  1.0000
  C   C365      1.0  0.14944  0.62987  0.77549  1.0000
  C   C366      1.0  0.03114  0.76378  0.72933  1.0000
  H   H576      1.0  0.38231  0.75273  0.69091  1.0000
  H   H577      1.0  0.10055  0.63325  0.78539  1.0000
  H   H578      1.0  0.11260  0.66910  0.77550  1.0000
  H   H579      1.0  0.29654  0.86851  0.96933  1.0000
  H   H580      1.0  0.14798  0.65112  0.82503  1.0000
  C   C367      1.0  0.16391  0.71038  0.81388  1.0000
  H   H581      1.0  0.14644  0.70853  0.78831  1.0000
  H   H582      1.0  0.11951  0.58275  0.98036  1.0000
  H   H583      1.0  0.45560  0.72133  0.71695  1.0000
  H   H584      1.0  0.14024  0.61964  0.76362  1.0000
  C   C368      1.0  0.49981  0.82954  0.82944  1.0000
  H   H585      1.0  0.44756  0.77284  0.70633  1.0000
  H   H586      1.0  0.18363  0.69659  0.82066  1.0000
  H   H587      1.0  0.33930  0.82258  0.96464  1.0000
  H   H588      1.0  0.32487  0.61394  0.80221  1.0000
  C   C369      1.0  0.37478  0.70284  0.71278  1.0000
  C   C370      1.0  0.13316  0.57778  0.96863  1.0000
  H   H589      1.0  0.28119  0.78368  0.00719  1.0000
  C   C371      1.0  0.42993  0.77057  0.69607  1.0000
  H   H590      1.0  0.40841  0.64212  0.84171  1.0000
  H   H591      1.0  0.27823  0.74084  0.69576  1.0000
  H   H592      1.0  0.14358  0.71605  0.82263  1.0000
  H   H593      1.0  0.11886  0.80971  0.76431  1.0000
  H   H594      1.0  0.11404  0.76592  0.72553  1.0000
  H   H595      1.0  0.17993  0.69161  0.94146  1.0000
  H   H596      1.0  0.44611  0.74257  0.74332  1.0000
  H   H597      1.0  0.32644  0.64417  0.78589  1.0000
  N   N24       1.0  0.12388  0.63565  0.95566  1.0000
  C   C372      1.0  0.28642  0.88016  0.00208  1.0000
  H   H598      1.0  0.36077  0.88955  0.77737  1.0000
  C   C373      1.0  0.14082  0.66764  0.95405  1.0000
  C   C374      1.0  0.09557  0.64142  0.96743  1.0000
  H   H599      1.0  0.07204  0.99732  0.92993  1.0000
  C   C375      1.0  0.39219  0.67878  0.82311  1.0000
  H   H600      1.0  0.16523  0.60082  0.95186  1.0000
  C   C376      1.0  0.10399  0.65248  0.98529  1.0000
  C   C377      1.0  0.29831  0.82472  0.77379  1.0000
  H   H601      1.0  0.17260  0.73474  0.81011  1.0000
  H   H602      1.0  0.07576  0.80498  0.91066  1.0000
  H   H603      1.0  0.37972  0.68051  0.72051  1.0000
  H   H604      1.0  0.15009  0.67597  0.96630  1.0000
  H   H605      1.0  0.07816  0.66103  0.96272  1.0000
  H   H606      1.0  0.08063  0.61931  0.96810  1.0000
  H   H607      1.0  0.35022  0.60619  0.78439  1.0000
  C   C378      1.0  0.09848  0.80356  0.77263  1.0000
  C   C379      1.0  0.37024  0.64137  0.80184  1.0000
  H   H608      1.0  0.03931  0.69133  0.01063  1.0000
  H   H609      1.0  0.33833  0.74466  0.71394  1.0000
  H   H610      1.0  0.35432  0.70347  0.79746  1.0000
  H   H611      1.0  0.09643  0.60187  0.94072  1.0000
  H   H612      1.0  0.31567  0.64887  0.82529  1.0000
  H   H613      1.0  0.05770  0.86398  0.96794  1.0000
  H   H614      1.0  0.10293  0.67994  0.98643  1.0000
  H   H615      1.0  0.12827  0.64299  0.98944  1.0000
  H   H616      1.0  0.08621  0.64258  0.99411  1.0000
  C   C380      1.0  0.51462  0.83435  0.81202  1.0000
  C   C381      1.0  0.28629  0.91764  0.99871  1.0000
  C   C382      1.0  0.06151  0.75999  0.86246  1.0000
  C   C383      1.0  0.07839  0.79935  0.98396  1.0000
  H   H617      1.0  0.11709  0.56640  0.95941  1.0000
  H   H618      1.0  0.08704  0.89379  0.96295  1.0000
  H   H619      1.0  0.37987  0.83278  0.76958  1.0000
  H   H620      1.0  0.31433  0.73989  0.81432  1.0000
  S   S115      1.0  0.20142  0.74682  0.72153  1.0000
  N   N25       1.0  0.40615  0.71762  0.70756  1.0000
  H   H621      1.0  0.08788  0.76737  0.93595  1.0000
  H   H622      1.0  0.11851  0.76777  0.92036  1.0000
  C   C384      1.0  0.12799  0.54537  0.91744  1.0000
  C   C385      1.0  0.04153  0.74598  0.97438  1.0000
  C   C386      1.0  0.36228  0.88955  0.00592  1.0000
  H   H623      1.0  0.06547  0.81958  0.80782  1.0000
  H   H624      1.0  0.05242  0.80254  0.95148  1.0000
  H   H625      1.0  0.38725  0.76885  0.71105  1.0000
  H   H626      1.0  0.19040  0.64960  0.94654  1.0000
  H   H627      1.0  0.40486  0.69309  0.81352  1.0000
  H   H628      1.0  0.40812  0.72301  0.74596  1.0000
  H   H629      1.0  0.38846  0.88295  0.00813  1.0000
  H   H630      1.0  0.29672  0.81375  0.76111  1.0000
  H   H631      1.0  0.32357  0.79627  0.69817  1.0000
  S   S116      1.0  0.21539  0.68524  0.74766  1.0000
  H   H632      1.0  0.13579  0.59262  0.82428  1.0000
  C   C387      1.0  0.09802  0.68036  0.80831  1.0000
  C   C388      1.0  0.08452  0.71251  0.80019  1.0000
  H   H633      1.0  0.10069  0.68554  0.82183  1.0000
  C   C389      1.0  0.08925  0.64926  0.92952  1.0000
  H   H634      1.0  0.06272  0.79257  0.71453  1.0000
  H   H635      1.0  0.26328  0.82739  0.79447  1.0000
  H   H636      1.0  0.13135  0.61549  0.93067  1.0000
  C   C390      1.0  0.43081  0.71567  0.72137  1.0000
  H   H637      1.0  0.08063  0.85737  0.79964  1.0000
  H   H638      1.0  0.08521  0.90193  0.92247  1.0000
  H   H639      1.0  0.05784  0.70409  0.75621  1.0000
  H   H640      1.0  0.32428  0.71667  0.83240  1.0000
  H   H641      1.0  0.07106  0.84604  0.76313  1.0000
  C   C391      1.0  0.34596  0.78801  0.78221  1.0000
  H   H642      1.0  0.17698  0.67901  0.79333  1.0000
  H   H643      1.0  0.32873  0.84121  0.82318  1.0000
  C   C392      1.0  0.05850  0.84459  0.80331  1.0000
  Fe  Fe62      1.0  0.17704  0.72651  0.74417  1.0000
  H   H644      1.0  0.07207  0.02165  0.97088  1.0000
  C   C393      1.0  0.03340  0.84518  0.78913  1.0000
  H   H645      1.0  0.03755  0.76419  0.77414  1.0000
  H   H646      1.0  0.44448  0.98492  0.69323  1.0000
  C   C394      1.0  0.09072  0.75823  0.72988  1.0000
  S   S117      1.0  0.12502  0.71464  0.75063  1.0000
  H   H647      1.0  0.51111  0.84242  0.77720  1.0000
  Fe  Fe63      1.0  0.19452  0.86934  0.99290  1.0000
  H   H648      1.0  0.32627  0.89503  0.97607  1.0000
  H   H649      1.0  0.06644  0.65648  0.93629  1.0000
  H   H650      1.0  0.42667  0.63466  0.82124  1.0000
  C   C395      1.0  0.34101  0.62579  0.79326  1.0000
  S   S118      1.0  0.50422  0.94290  0.69612  1.0000
  C   C396      1.0  0.35367  0.83916  0.76734  1.0000
  S   S119      1.0  0.14391  0.86707  0.98282  1.0000
  S   S120      1.0  0.20974  0.81810  0.98403  1.0000
  C   C397      1.0  0.42336  0.65949  0.69527  1.0000
  H   H651      1.0  0.36729  0.77564  0.75766  1.0000
  H   H652      1.0  0.10219  0.67156  0.92612  1.0000
  C   C398      1.0  0.41759  0.65368  0.83034  1.0000
  C   C399      1.0  0.04456  0.80077  0.98661  1.0000
  H   H653      1.0  0.38614  0.69659  0.83347  1.0000
  C   C400      1.0  0.30159  0.82342  0.99330  1.0000
  C   C401      1.0  0.05903  0.72354  0.74719  1.0000
  H   H654      1.0  0.10863  0.86374  0.94030  1.0000
  H   H655      1.0  0.28139  0.82197  0.98423  1.0000
  H   H656      1.0  0.32505  0.76550  0.75988  1.0000
  C   C402      1.0  0.08948  0.73336  0.74173  1.0000
  N   N26       1.0  0.03613  0.81751  0.77636  1.0000
  C   C403      1.0  0.07372  0.88587  0.91313  1.0000
  H   H657      1.0  0.05921  0.90249  0.90483  1.0000
  H   H658      1.0  0.33137  0.77427  0.79110  1.0000
  H   H659      1.0  0.36018  0.85121  0.79793  1.0000
  H   H660      1.0  0.49465  0.77278  0.74195  1.0000
  H   H661      1.0  0.05132  0.89350  0.95134  1.0000
  H   H662      1.0  0.08216  0.96102  0.90438  1.0000
  C   C404      1.0  0.05081  0.86176  0.92134  1.0000
  C   C405      1.0  0.34608  0.84841  0.96698  1.0000
  C   C406      1.0  0.14795  0.60926  0.96192  1.0000
  H   H663      1.0  0.31827  0.68537  0.80407  1.0000
  H   H664      1.0  0.41081  0.76106  0.73454  1.0000
  C   C407      1.0  0.03889  0.77825  0.87249  1.0000
  H   H665      1.0  0.32477  0.88677  0.76462  1.0000
  C   C408      1.0  0.39964  0.75255  0.70155  1.0000
  H   H666      1.0  0.35659  0.74089  0.76957  1.0000
  H   H667      1.0  0.30545  0.81144  0.81267  1.0000
  H   H668      1.0  0.03266  0.82261  0.99229  1.0000
  C   C409      1.0  0.33522  0.84223  0.79636  1.0000
  H   H669      1.0  0.34859  0.82953  0.75462  1.0000
  H   H670      1.0  0.37070  0.78785  0.78772  1.0000
  H   H671      1.0  0.02598  0.84910  0.74397  1.0000
  C   C410      1.0  0.31944  0.86895  0.97667  1.0000
  H   H672      1.0  0.31856  0.86487  0.79637  1.0000
  N   N27       1.0  0.06704  0.83619  0.93249  1.0000
  H   H673      1.0  0.37004  0.84860  0.97323  1.0000
  N   N28       1.0  0.33278  0.82322  0.78015  1.0000
  C   C411      1.0  0.32898  0.82340  0.81254  1.0000
  H   H674      1.0  0.09254  0.81993  0.98773  1.0000
  C   C412      1.0  0.34189  0.69376  0.80857  1.0000
  Fe  Fe64      1.0  0.24184  0.70818  0.72643  1.0000
  H   H675      1.0  0.35927  0.73741  0.73332  1.0000
  H   H676      1.0  0.30944  0.92872  0.00192  1.0000
  N   N29       1.0  0.31328  0.85825  0.99423  1.0000
  H   H677      1.0  0.16359  0.65925  0.92936  1.0000
  H   H678      1.0  0.10972  0.82789  0.91666  1.0000
  C   C413      1.0  0.33367  0.72377  0.82012  1.0000
  C   C414      1.0  0.08927  0.81409  0.92165  1.0000
  N   N30       1.0  0.36167  0.66515  0.81598  1.0000
  H   H679      1.0  0.04747  0.73385  0.90791  1.0000
  H   H680      1.0  0.39945  0.64845  0.69700  1.0000
  C   C415      1.0  0.51871  0.76161  0.73963  1.0000
  H   H681      1.0  0.10447  0.81235  0.78523  1.0000
  H   H682      1.0  0.09797  0.77610  0.77241  1.0000
  H   H683      1.0  0.11770  0.59556  0.80430  1.0000
  H   H684      1.0  0.48726  0.80597  0.83027  1.0000
  H   H685      1.0  0.16736  0.62979  0.80827  1.0000
  H   H686      1.0  0.05676  0.77844  0.79211  1.0000
  S   S121      1.0  0.49811  0.87859  0.72970  1.0000
  H   H687      1.0  0.43910  0.66728  0.83431  1.0000
  C   C416      1.0  0.08733  0.85180  0.94570  1.0000
  H   H688      1.0  0.28941  0.85082  0.77193  1.0000
  C   C417      1.0  0.34946  0.72549  0.72218  1.0000
  H   H689      1.0  0.11792  0.97396  0.91452  1.0000
  H   H690      1.0  0.33766  0.85132  0.01774  1.0000
  H   H691      1.0  0.36443  0.88535  0.75546  1.0000
  H   H692      1.0  0.27991  0.92305  0.98560  1.0000
  H   H693      1.0  0.05188  0.96657  0.01238  1.0000
  H   H694      1.0  0.35816  0.61587  0.84875  1.0000
  H   H695      1.0  0.32113  0.80551  0.98871  1.0000
  H   H696      1.0  0.36161  0.69397  0.70172  1.0000
  C   C418      1.0  0.42300  0.73671  0.73711  1.0000
  C   C419      1.0  0.17025  0.66650  0.94212  1.0000
  S   S122      1.0  0.36966  0.84644  0.69809  1.0000
  C   C420      1.0  0.35236  0.61495  0.83529  1.0000
  S   S123      1.0  0.27022  0.67438  0.70808  1.0000
  H   H697      1.0  0.06530  0.76721  0.84975  1.0000
  H   H698      1.0  0.26225  0.87246  0.99768  1.0000
  C   C421      1.0  0.06647  0.81974  0.76586  1.0000
  H   H699      1.0  0.06313  0.80750  0.75357  1.0000
  H   H700      1.0  0.15895  0.60853  0.78284  1.0000
  H   H701      1.0  0.35517  0.73893  0.82168  1.0000
  H   H702      1.0  0.51585  0.79767  0.77471  1.0000
  H   H703      1.0  0.38414  0.65401  0.79210  1.0000
  H   H704      1.0  0.38695  0.62060  0.80561  1.0000
  H   H705      1.0  0.37393  0.60318  0.82907  1.0000
  H   H706      1.0  0.32929  0.71023  0.72627  1.0000
  S   S124      1.0  0.20699  0.88607  0.01894  1.0000
  C   C422      1.0  0.06939  0.87683  0.95759  1.0000
  H   H707      1.0  0.03554  0.86952  0.78308  1.0000
  H   H708      1.0  0.09895  0.61753  0.82203  1.0000
  C   C423      1.0  0.10550  0.78334  0.92998  1.0000
  H   H709      1.0  0.09249  0.87323  0.90509  1.0000
  C   C424      1.0  0.12228  0.60987  0.81581  1.0000
  H   H710      1.0  0.12398  0.79057  0.93910  1.0000
  S   S125      1.0  0.45954  0.86169  0.69549  1.0000
  C   C425      1.0  0.34148  0.65007  0.82930  1.0000
  H   H711      1.0  0.03016  0.96985  0.94343  1.0000
  H   H712      1.0  0.13692  0.89247  0.01432  1.0000
  H   H713      1.0  0.08184  0.63738  0.91768  1.0000
  H   H714      1.0  0.17794  0.55888  0.91796  1.0000
  H   H715      1.0  0.16377  0.61915  0.97180  1.0000
  H   H716      1.0  0.08044  0.70927  0.78668  1.0000
  H   H717      1.0  0.12355  0.68811  0.95016  1.0000
  H   H718      1.0  0.34009  0.66651  0.84047  1.0000
  H   H719      1.0  0.36116  0.83691  0.00080  1.0000
  C   C426      1.0  0.41995  0.69741  0.69300  1.0000
  C   C427      1.0  0.34360  0.85749  0.00471  1.0000
  H   H720      1.0  0.51349  0.74838  0.85167  1.0000
  H   H721      1.0  0.36200  0.90409  0.99443  1.0000
  H   H722      1.0  0.49389  0.83422  0.80325  1.0000
  H   H723      1.0  0.03193  0.87756  0.92792  1.0000
  C   C428      1.0  0.28899  0.80919  0.00969  1.0000
  H   H724      1.0  0.03735  0.84936  0.91127  1.0000
  H   H725      1.0  0.43994  0.65232  0.70557  1.0000
  S   S126      1.0  0.51562  0.79052  0.70891  1.0000
  H   H726      1.0  0.06363  0.54572  0.01074  1.0000
  H   H727      1.0  0.48098  0.84974  0.83189  1.0000
  C   C429      1.0  0.03552  0.78374  0.78402  1.0000
  H   H728      1.0  0.42225  0.79613  0.69240  1.0000
  H   H729      1.0  0.26722  0.82355  0.01461  1.0000
  H   H730      1.0  0.28605  0.87725  0.01581  1.0000
  H   H731      1.0  0.50250  0.77682  0.80008  1.0000
  C   C430      1.0  0.15462  0.01229  0.97217  1.0000
  H   H732      1.0  0.04740  0.85776  0.81431  1.0000
  H   H733      1.0  0.52008  0.73334  0.76217  1.0000
  C   C431      1.0  0.15974  0.54432  0.92370  1.0000
  C   C432      1.0  0.09853  0.98745  0.01742  1.0000
  H   H734      1.0  0.35297  0.90548  0.01642  1.0000
  H   H735      1.0  0.16174  0.96668  0.00844  1.0000
  C   C433      1.0  0.03578  0.55456  0.95942  1.0000
  C   C434      1.0  0.04219  0.81483  0.94030  1.0000
  C   C435      1.0  0.03387  0.76883  0.88888  1.0000
  H   H736      1.0  0.07999  0.52713  0.92028  1.0000
  H   H737      1.0  0.19542  0.99089  0.01301  1.0000
  H   H738      1.0  0.11973  0.02325  0.93831  1.0000
  H   H739      1.0  0.52152  0.76723  0.81881  1.0000
  H   H740      1.0  0.13843  0.02525  0.91865  1.0000
  H   H741      1.0  0.51802  0.01651  0.72431  1.0000
  H   H742      1.0  0.10450  0.99312  0.89531  1.0000
  H   H743      1.0  0.03633  0.73394  0.01559  1.0000
  H   H744      1.0  0.51803  0.83102  0.83951  1.0000
  H   H745      1.0  0.02523  0.79943  0.86751  1.0000
  H   H746      1.0  0.02744  0.72543  0.97046  1.0000
  C   C436      1.0  0.02610  0.77420  0.98165  1.0000
  C   C437      1.0  0.07488  0.00820  0.91744  1.0000
  H   H747      1.0  0.05013  0.00833  0.91209  1.0000
  C   C438      1.0  0.17164  0.98353  0.01794  1.0000
  C   C439      1.0  0.04842  0.53352  0.02003  1.0000
  H   H748      1.0  0.30811  0.80722  0.01933  1.0000
  C   C440      1.0  0.96409  0.11326  0.18582  1.0000
  C   C441      1.0  0.56402  0.32019  0.28246  1.0000
  C   C442      1.0  0.95812  0.03330  0.09281  1.0000
  H   H749      1.0  0.87756  0.27225  0.14660  1.0000
  H   H750      1.0  0.96645  0.45163  0.03703  1.0000
  H   H751      1.0  0.66096  0.12381  0.29060  1.0000
  S   S127      1.0  0.70546  0.10455  0.33789  1.0000
  H   H752      1.0  0.89593  0.34661  0.17399  1.0000
  Fe  Fe65      1.0  0.95678  0.39479  0.24322  1.0000
  S   S128      1.0  0.94218  0.34957  0.22910  1.0000
  S   S129      1.0  0.95961  0.40019  0.27112  1.0000
  Fe  Fe66      1.0  0.96819  0.43468  0.21173  1.0000
  S   S130      1.0  0.95365  0.39299  0.19529  1.0000
  S   S131      1.0  0.99198  0.48061  0.20261  1.0000
  Fe  Fe67      1.0  0.91346  0.38627  0.21365  1.0000
  S   S132      1.0  0.86422  0.37435  0.20367  1.0000
  Fe  Fe68      1.0  0.98366  0.36007  0.21212  1.0000
  C   C443      1.0  0.79414  0.41389  0.28589  1.0000
  S   S133      1.0  0.92503  0.43121  0.22883  1.0000
  S   S134      1.0  0.00096  0.40199  0.22750  1.0000
  Fe  Fe69      1.0  0.91914  0.16105  0.11251  1.0000
  S   S135      1.0  0.97144  0.17371  0.11357  1.0000
  S   S136      1.0  0.90125  0.14724  0.08687  1.0000
  Fe  Fe70      1.0  0.90840  0.17350  0.14993  1.0000
  S   S137      1.0  0.96076  0.18609  0.15298  1.0000
  S   S138      1.0  0.88578  0.17621  0.17584  1.0000
  Fe  Fe71      1.0  0.95379  0.21572  0.12991  1.0000
  S   S139      1.0  0.97122  0.26695  0.12565  1.0000
  Fe  Fe72      1.0  0.97278  0.14266  0.13628  1.0000
  H   H753      1.0  0.66509  0.21371  0.32988  1.0000
  S   S140      1.0  0.90082  0.20593  0.12753  1.0000
  S   S141      1.0  0.92128  0.12745  0.13462  1.0000
  Fe  Fe73      1.0  0.72849  0.28896  0.24776  1.0000
  S   S142      1.0  0.76516  0.24665  0.24441  1.0000
  S   S143      1.0  0.74257  0.34224  0.24724  1.0000
  Fe  Fe74      1.0  0.67103  0.24373  0.25175  1.0000
  S   S144      1.0  0.70392  0.19760  0.24817  1.0000
  S   S145      1.0  0.61850  0.23946  0.26061  1.0000
  Fe  Fe75      1.0  0.73833  0.22312  0.26516  1.0000
  S   S146      1.0  0.76627  0.20378  0.28745  1.0000
  Fe  Fe76      1.0  0.72792  0.22546  0.22765  1.0000
  S   S147      1.0  0.74036  0.20925  0.20107  1.0000
  S   S148      1.0  0.70451  0.26744  0.26989  1.0000
  S   S149      1.0  0.69199  0.26941  0.22993  1.0000
  C   C444      1.0  0.58302  0.25429  0.25002  1.0000
  C   C445      1.0  0.55237  0.24587  0.25595  1.0000
  H   H754      1.0  0.79691  0.42081  0.29916  1.0000
  C   C446      1.0  0.55561  0.28702  0.22858  1.0000
  C   C447      1.0  0.58453  0.27490  0.23627  1.0000
  H   H755      1.0  0.55094  0.22977  0.26650  1.0000
  H   H756      1.0  0.86403  0.24919  0.16367  1.0000
  H   H757      1.0  0.60794  0.28162  0.23160  1.0000
  H   H758      1.0  0.93877  0.49754  0.14848  1.0000
  C   C448      1.0  0.84501  0.18507  0.18238  1.0000
  C   C449      1.0  0.83864  0.18925  0.19946  1.0000
  C   C450      1.0  0.80676  0.19645  0.20536  1.0000
  C   C451      1.0  0.78078  0.19916  0.19423  1.0000
  C   C452      1.0  0.78711  0.19485  0.17713  1.0000
  C   C453      1.0  0.81912  0.18815  0.17120  1.0000
  H   H759      1.0  0.85849  0.18679  0.20821  1.0000
  H   H760      1.0  0.80227  0.19958  0.21853  1.0000
  H   H761      1.0  0.76714  0.19674  0.16843  1.0000
  H   H762      1.0  0.82366  0.18477  0.15804  1.0000
  H   H763      1.0  0.91648  0.23163  0.04115  1.0000
  H   H764      1.0  0.97981  0.28906  0.02309  1.0000
  C   C454      1.0  0.98213  0.05365  0.13639  1.0000
  H   H765      1.0  0.86840  0.29300  0.16573  1.0000
  N   N31       1.0  0.83248  0.36039  0.28498  1.0000
  H   H766      1.0  0.96087  0.07003  0.13513  1.0000
  C   C455      1.0  0.83434  0.36679  0.21857  1.0000
  C   C456      1.0  0.81024  0.39142  0.22238  1.0000
  C   C457      1.0  0.78269  0.38378  0.23162  1.0000
  C   C458      1.0  0.77850  0.35124  0.23662  1.0000
  C   C459      1.0  0.80286  0.32669  0.23303  1.0000
  C   C460      1.0  0.83093  0.33459  0.22425  1.0000
  H   H767      1.0  0.81241  0.41624  0.21778  1.0000
  H   H768      1.0  0.76402  0.40293  0.23438  1.0000
  H   H769      1.0  0.80026  0.30168  0.23705  1.0000
  H   H770      1.0  0.84940  0.31545  0.22130  1.0000
  C   C461      1.0  0.98843  0.49607  0.18225  1.0000
  N   N32       1.0  0.96664  0.22201  0.04914  1.0000
  H   H771      1.0  0.58995  0.31093  0.28249  1.0000
  C   C462      1.0  0.93542  0.21096  0.04159  1.0000
  H   H772      1.0  0.56089  0.19218  0.31458  1.0000
  C   C463      1.0  0.96171  0.11727  0.08042  1.0000
  C   C464      1.0  0.93149  0.12775  0.07393  1.0000
  H   H773      1.0  0.00966  0.09605  0.07517  1.0000
  H   H774      1.0  0.96602  0.11896  0.09358  1.0000
  H   H775      1.0  0.90234  0.13109  0.05176  1.0000
  C   C465      1.0  0.92526  0.31449  0.28808  1.0000
  C   C466      1.0  0.93733  0.33834  0.27748  1.0000
  C   C467      1.0  0.94811  0.36801  0.28406  1.0000
  C   C468      1.0  0.94829  0.37295  0.30133  1.0000
  C   C469      1.0  0.93655  0.34896  0.31195  1.0000
  C   C470      1.0  0.96038  0.26406  0.18475  1.0000
  H   H776      1.0  0.93749  0.33413  0.26423  1.0000
  H   H777      1.0  0.95684  0.39578  0.30648  1.0000
  C   C471      1.0  0.72188  0.13261  0.32386  1.0000
  C   C472      1.0  0.72686  0.12307  0.30719  1.0000
  C   C473      1.0  0.73936  0.14521  0.29576  1.0000
  C   C474      1.0  0.74660  0.17720  0.30089  1.0000
  C   C475      1.0  0.74151  0.18679  0.31751  1.0000
  C   C476      1.0  0.72963  0.16448  0.32898  1.0000
  H   H778      1.0  0.72129  0.09836  0.30315  1.0000
  H   H779      1.0  0.74393  0.13733  0.28303  1.0000
  H   H780      1.0  0.74767  0.21125  0.32163  1.0000
  H   H781      1.0  0.72742  0.17172  0.34187  1.0000
  H   H782      1.0  0.91596  0.29206  0.28288  1.0000
  H   H783      1.0  0.63198  0.13428  0.31318  1.0000
  C   C477      1.0  0.83444  0.14412  0.30326  1.0000
  H   H784      1.0  0.83158  0.14139  0.32993  1.0000
  H   H785      1.0  0.80864  0.27804  0.28393  1.0000
  H   H786      1.0  0.00432  0.20639  0.20407  1.0000
  H   H787      1.0  0.78869  0.37060  0.27059  1.0000
  H   H788      1.0  0.92039  0.30599  0.20208  1.0000
  H   H789      1.0  0.99768  0.18227  0.18627  1.0000
  H   H790      1.0  0.91630  0.23518  0.16896  1.0000
  H   H791      1.0  0.80435  0.17087  0.32057  1.0000
  C   C478      1.0  0.92427  0.32004  0.30530  1.0000
  H   H792      1.0  0.93753  0.18602  0.32838  1.0000
  H   H793      1.0  0.85295  0.39322  0.32382  1.0000
  H   H794      1.0  0.00180  0.36620  0.15668  1.0000
  H   H795      1.0  0.97435  0.49008  0.05848  1.0000
  C   C479      1.0  0.92579  0.12342  0.05687  1.0000
  H   H796      1.0  0.88593  0.30504  0.18955  1.0000
  H   H797      1.0  0.94130  0.26302  0.06241  1.0000
  C   C480      1.0  0.90818  0.29014  0.19283  1.0000
  C   C481      1.0  0.86020  0.39283  0.26158  1.0000
  C   C482      1.0  0.98066  0.09899  0.05299  1.0000
  C   C483      1.0  0.01327  0.26808  0.12915  1.0000
  H   H798      1.0  0.81693  0.12414  0.30222  1.0000
  H   H799      1.0  0.85443  0.31333  0.29304  1.0000
  H   H800      1.0  0.90251  0.32915  0.15318  1.0000
  C   C484      1.0  0.91528  0.26143  0.16505  1.0000
  C   C485      1.0  0.89694  0.25947  0.20202  1.0000
  C   C486      1.0  0.82989  0.32488  0.29028  1.0000
  H   H801      1.0  0.92569  0.36202  0.16064  1.0000
  H   H802      1.0  0.89547  0.16315  0.31311  1.0000
  H   H803      1.0  0.85349  0.40461  0.29529  1.0000
  C   C487      1.0  0.98876  0.19251  0.05376  1.0000
  H   H804      1.0  0.88594  0.24157  0.19348  1.0000
  H   H805      1.0  0.93585  0.35350  0.32520  1.0000
  N   N33       1.0  0.85260  0.18814  0.32459  1.0000
  S   S150      1.0  0.01131  0.07854  0.04073  1.0000
  H   H806      1.0  0.91036  0.22147  0.32541  1.0000
  C   C488      1.0  0.82996  0.16111  0.32037  1.0000
  C   C489      1.0  0.84850  0.21662  0.31268  1.0000
  H   H807      1.0  0.55508  0.31392  0.26987  1.0000
  H   H808      1.0  0.91584  0.21653  0.07507  1.0000
  H   H809      1.0  0.53710  0.27900  0.28961  1.0000
  C   C490      1.0  0.52496  0.27863  0.23452  1.0000
  H   H810      1.0  0.83867  0.40776  0.25720  1.0000
  H   H811      1.0  0.93944  0.23734  0.09012  1.0000
  H   H812      1.0  0.57385  0.36004  0.31062  1.0000
  H   H813      1.0  0.97229  0.10217  0.17372  1.0000
  H   H814      1.0  0.97642  0.11060  0.21177  1.0000
  C   C491      1.0  0.84383  0.20074  0.34186  1.0000
  H   H815      1.0  0.82240  0.22084  0.30925  1.0000
  H   H816      1.0  0.99788  0.16986  0.02879  1.0000
  H   H817      1.0  0.99290  0.07745  0.19907  1.0000
  H   H818      1.0  0.94256  0.26877  0.02493  1.0000
  H   H819      1.0  0.85553  0.24002  0.31888  1.0000
  H   H820      1.0  0.95472  0.19862  0.08170  1.0000
  H   H821      1.0  0.54430  0.18720  0.29431  1.0000
  H   H822      1.0  0.95747  0.30949  0.16002  1.0000
  C   C492      1.0  0.98443  0.24475  0.03800  1.0000
  H   H823      1.0  0.94397  0.47270  0.17647  1.0000
  C   C493      1.0  0.84116  0.37450  0.31596  1.0000
  C   C494      1.0  0.95942  0.50280  0.15619  1.0000
  N   N34       1.0  0.93039  0.28272  0.17816  1.0000
  C   C495      1.0  0.96456  0.27558  0.03186  1.0000
  C   C496      1.0  0.93764  0.19422  0.02428  1.0000
  C   C497      1.0  0.01120  0.17686  0.04007  1.0000
  H   H824      1.0  0.81568  0.32358  0.30201  1.0000
  C   C498      1.0  0.01253  0.06651  0.13943  1.0000
  H   H825      1.0  0.01044  0.52553  0.04654  1.0000
  H   H826      1.0  0.65624  0.19863  0.28264  1.0000
  C   C499      1.0  0.80831  0.21419  0.34447  1.0000
  C   C500      1.0  0.88700  0.17333  0.32527  1.0000
  H   H827      1.0  0.56548  0.22349  0.29901  1.0000
  H   H828      1.0  0.98033  0.25131  0.07057  1.0000
  C   C501      1.0  0.98271  0.52417  0.15041  1.0000
  H   H829      1.0  0.76899  0.42216  0.28226  1.0000
  H   H830      1.0  0.87509  0.18867  0.29189  1.0000
  H   H831      1.0  0.78116  0.36506  0.29187  1.0000
  H   H832      1.0  0.98043  0.03658  0.06873  1.0000
  H   H833      1.0  0.89061  0.22853  0.29738  1.0000
  H   H834      1.0  0.85930  0.22133  0.34559  1.0000
  C   C502      1.0  0.98896  0.10496  0.19971  1.0000
  H   H835      1.0  0.95562  0.32803  0.18017  1.0000
  H   H836      1.0  0.87322  0.34351  0.26949  1.0000
  H   H837      1.0  0.55703  0.30299  0.21798  1.0000
  H   H838      1.0  0.96942  0.41995  0.16142  1.0000
  S   S151      1.0  0.90404  0.29244  0.31792  1.0000
  C   C503      1.0  0.87939  0.26992  0.16029  1.0000
  H   H839      1.0  0.67936  0.14459  0.27398  1.0000
  H   H840      1.0  0.81441  0.37837  0.31735  1.0000
  C   C504      1.0  0.94111  0.22197  0.07857  1.0000
  C   C505      1.0  0.01190  0.51718  0.17640  1.0000
  H   H841      1.0  0.56336  0.29321  0.30546  1.0000
  H   H842      1.0  0.91718  0.24687  0.20894  1.0000
  H   H843      1.0  0.00532  0.19902  0.06412  1.0000
  C   C506      1.0  0.95036  0.10911  0.04640  1.0000
  H   H844      1.0  0.95779  0.29327  0.04207  1.0000
  H   H845      1.0  0.95933  0.39904  0.14267  1.0000
  H   H846      1.0  0.99389  0.23181  0.02666  1.0000
  H   H847      1.0  0.85374  0.22604  0.28632  1.0000
  H   H848      1.0  0.82952  0.29541  0.26701  1.0000
  H   H849      1.0  0.98239  0.24998  0.16053  1.0000
  H   H850      1.0  0.63627  0.14256  0.27421  1.0000
  H   H851      1.0  0.92987  0.26130  0.15344  1.0000
  C   C507      1.0  0.85052  0.35953  0.26863  1.0000
  H   H852      1.0  0.79987  0.23135  0.33461  1.0000
  H   H853      1.0  0.83597  0.34804  0.25881  1.0000
  H   H854      1.0  0.87806  0.26726  0.21134  1.0000
  H   H855      1.0  0.78967  0.31248  0.27338  1.0000
  H   H856      1.0  0.87513  0.40715  0.27025  1.0000
  C   C508      1.0  0.79851  0.37606  0.28312  1.0000
  H   H857      1.0  0.81096  0.42798  0.27837  1.0000
  C   C509      1.0  0.85237  0.37779  0.29779  1.0000
  H   H858      1.0  0.84904  0.34983  0.32088  1.0000
  C   C510      1.0  0.91426  0.33900  0.16444  1.0000
  H   H859      1.0  0.02052  0.25093  0.24747  1.0000
  C   C511      1.0  0.81342  0.30177  0.27778  1.0000
  C   C512      1.0  0.96235  0.48863  0.17201  1.0000
  C   C513      1.0  0.86844  0.21405  0.29634  1.0000
  C   C514      1.0  0.91284  0.19695  0.33134  1.0000
  N   N35       1.0  0.75724  0.31495  0.18275  1.0000
  C   C515      1.0  0.73351  0.31765  0.16854  1.0000
  C   C516      1.0  0.77615  0.34591  0.18339  1.0000
  C   C517      1.0  0.73979  0.31165  0.19906  1.0000
  C   C518      1.0  0.77929  0.28444  0.18000  1.0000
  C   C519      1.0  0.70827  0.29066  0.16755  1.0000
  C   C520      1.0  0.80077  0.34981  0.16917  1.0000
  C   C521      1.0  0.71481  0.34019  0.20358  1.0000
  C   C522      1.0  0.80713  0.27886  0.19260  1.0000
  H   H860      1.0  0.71976  0.34211  0.16876  1.0000
  H   H861      1.0  0.74672  0.31661  0.15646  1.0000
  H   H862      1.0  0.78944  0.34795  0.19530  1.0000
  H   H863      1.0  0.75942  0.36844  0.18322  1.0000
  H   H864      1.0  0.72740  0.28785  0.19956  1.0000
  H   H865      1.0  0.75743  0.31015  0.20946  1.0000
  H   H866      1.0  0.76504  0.26195  0.18068  1.0000
  H   H867      1.0  0.78969  0.28292  0.16722  1.0000
  H   H868      1.0  0.71983  0.26535  0.16633  1.0000
  H   H869      1.0  0.69141  0.29175  0.17833  1.0000
  H   H870      1.0  0.69305  0.29477  0.15632  1.0000
  H   H871      1.0  0.81248  0.37380  0.17091  1.0000
  H   H872      1.0  0.82062  0.33026  0.16930  1.0000
  H   H873      1.0  0.78882  0.35027  0.15686  1.0000
  H   H874      1.0  0.72674  0.36389  0.20562  1.0000
  H   H875      1.0  0.70287  0.33460  0.21552  1.0000
  H   H876      1.0  0.69524  0.34331  0.19424  1.0000
  H   H877      1.0  0.79809  0.26907  0.20447  1.0000
  H   H878      1.0  0.82040  0.30143  0.19508  1.0000
  H   H879      1.0  0.82565  0.26082  0.18725  1.0000
  N   N36       1.0  0.62804  0.18439  0.30398  1.0000
  C   C523      1.0  0.65617  0.17865  0.29202  1.0000
  C   C524      1.0  0.62838  0.21995  0.30995  1.0000
  C   C525      1.0  0.59692  0.17858  0.29467  1.0000
  C   C526      1.0  0.63281  0.16016  0.31794  1.0000
  H   H880      1.0  0.59256  0.15162  0.29391  1.0000
  C   C527      1.0  0.65943  0.22974  0.31912  1.0000
  C   C528      1.0  0.56533  0.19648  0.30128  1.0000
  C   C529      1.0  0.60792  0.16269  0.33227  1.0000
  H   H881      1.0  0.67969  0.17979  0.29861  1.0000
  H   H882      1.0  0.87814  0.36832  0.29714  1.0000
  H   H883      1.0  0.60780  0.22668  0.31845  1.0000
  H   H884      1.0  0.62496  0.23693  0.29922  1.0000
  H   H885      1.0  0.59889  0.18668  0.28154  1.0000
  H   H886      1.0  0.85907  0.13225  0.30144  1.0000
  C   C530      1.0  0.97890  0.41223  0.14902  1.0000
  H   H887      1.0  0.65764  0.16061  0.32333  1.0000
  H   H888      1.0  0.94562  0.10528  0.03333  1.0000
  C   C531      1.0  0.00629  0.47592  0.02405  1.0000
  C   C532      1.0  0.52349  0.25787  0.24823  1.0000
  H   H889      1.0  0.68075  0.22974  0.31064  1.0000
  H   H890      1.0  0.65559  0.25545  0.32404  1.0000
  H   H891      1.0  0.56390  0.34735  0.28402  1.0000
  H   H892      1.0  0.94063  0.10223  0.18886  1.0000
  H   H893      1.0  0.98315  0.43445  0.14156  1.0000
  H   H894      1.0  0.87567  0.38767  0.25041  1.0000
  H   H895      1.0  0.58601  0.14886  0.32926  1.0000
  H   H896      1.0  0.60060  0.18837  0.33600  1.0000
  C   C533      1.0  0.94109  0.31457  0.17088  1.0000
  H   H897      1.0  0.01832  0.21763  0.13742  1.0000
  C   C534      1.0  0.65774  0.14536  0.28231  1.0000
  H   H898      1.0  0.00200  0.28307  0.17104  1.0000
  C   C535      1.0  0.54535  0.30177  0.29593  1.0000
  H   H899      1.0  0.00649  0.25337  0.04439  1.0000
  H   H900      1.0  0.97432  0.17228  0.05858  1.0000
  C   C536      1.0  0.95809  0.24126  0.06492  1.0000
  H   H901      1.0  0.94015  0.50364  0.04565  1.0000
  H   H902      1.0  0.61932  0.15174  0.34355  1.0000
  H   H903      1.0  0.92413  0.19270  0.04975  1.0000
  C   C537      1.0  0.98627  0.10347  0.06998  1.0000
  H   H904      1.0  0.91160  0.20023  0.34504  1.0000
  H   H905      1.0  0.99827  0.42429  0.02888  1.0000
  H   H906      1.0  0.95458  0.23868  0.18855  1.0000
  C   C538      1.0  0.99636  0.18178  0.19994  1.0000
  H   H907      1.0  0.01626  0.31858  0.12131  1.0000
  C   C539      1.0  0.98964  0.25961  0.17275  1.0000
  C   C540      1.0  0.98333  0.44740  0.02643  1.0000
  H   H908      1.0  0.00809  0.24166  0.17795  1.0000
  H   H909      1.0  0.96936  0.27631  0.19620  1.0000
  H   H910      1.0  0.97076  0.17942  0.20400  1.0000
  H   H911      1.0  0.82820  0.16153  0.29310  1.0000
  H   H912      1.0  0.95874  0.14010  0.18436  1.0000
  Fe  Fe77      1.0  0.91099  0.29702  0.34563  1.0000
  H   H913      1.0  0.84875  0.18096  0.35116  1.0000
  N   N37       1.0  0.02119  0.12134  0.19900  1.0000
  H   H914      1.0  0.54085  0.32597  0.32774  1.0000
  H   H915      1.0  0.88829  0.15162  0.33368  1.0000
  H   H916      1.0  0.94047  0.05439  0.09038  1.0000
  H   H917      1.0  0.55312  0.38396  0.32638  1.0000
  H   H918      1.0  0.94247  0.16707  0.02534  1.0000
  C   C541      1.0  0.54936  0.36970  0.31469  1.0000
  H   H919      1.0  0.01006  0.15239  0.22057  1.0000
  H   H920      1.0  0.97873  0.04363  0.09965  1.0000
  N   N38       1.0  0.99092  0.51064  0.02285  1.0000
  H   H921      1.0  0.61938  0.28773  0.35180  1.0000
  H   H922      1.0  0.00231  0.30119  0.23208  1.0000
  C   C542      1.0  0.96261  0.51129  0.05175  1.0000
  H   H923      1.0  0.79152  0.19369  0.34559  1.0000
  C   C543      1.0  0.00949  0.38862  0.15016  1.0000
  H   H924      1.0  0.01038  0.42510  0.17873  1.0000
  H   H925      1.0  0.01502  0.13803  0.17358  1.0000
  H   H926      1.0  0.01468  0.07814  0.22709  1.0000
  S   S152      1.0  0.01721  0.10946  0.14092  1.0000
  C   C544      1.0  0.01901  0.15470  0.20762  1.0000
  H   H927      1.0  0.01563  0.37992  0.13730  1.0000
  C   C545      1.0  0.01973  0.28342  0.22648  1.0000
  C   C546      1.0  0.52711  0.34136  0.31855  1.0000
  S   S153      1.0  0.01900  0.32370  0.19931  1.0000
  H   H928      1.0  0.53853  0.38755  0.30571  1.0000
  H   H929      1.0  0.53181  0.26148  0.32184  1.0000
  C   C547      1.0  0.98687  0.52646  0.03981  1.0000
  S   S154      1.0  0.67596  0.17906  0.36365  1.0000
  H   H930      1.0  0.52799  0.34341  0.45084  1.0000
  S   S155      1.0  0.67101  0.09457  0.42613  1.0000
  S   S156      1.0  0.65981  0.17045  0.40275  1.0000
  Fe  Fe78      1.0  0.66303  0.38452  0.46450  1.0000
  S   S157      1.0  0.71227  0.39305  0.47543  1.0000
  S   S158      1.0  0.63045  0.42036  0.45037  1.0000
  Fe  Fe79      1.0  0.66181  0.31439  0.47701  1.0000
  S   S159      1.0  0.71034  0.31752  0.48903  1.0000
  S   S160      1.0  0.63779  0.26639  0.48029  1.0000
  Fe  Fe80      1.0  0.69211  0.36794  0.49783  1.0000
  S   S161      1.0  0.70064  0.38328  0.52462  1.0000
  Fe  Fe81      1.0  0.72551  0.34160  0.46547  1.0000
  S   S162      1.0  0.77121  0.31669  0.45415  1.0000
  S   S163      1.0  0.64214  0.36290  0.48744  1.0000
  S   S164      1.0  0.67756  0.33517  0.45290  1.0000
  Fe  Fe82      1.0  0.90453  0.25293  0.37538  1.0000
  S   S165      1.0  0.86895  0.28688  0.36217  1.0000
  C   C548      1.0  0.61978  0.36961  0.39553  1.0000
  Fe  Fe83      1.0  0.95838  0.30184  0.37436  1.0000
  S   S166      1.0  0.92575  0.33979  0.36140  1.0000
  H   H931      1.0  0.80657  0.22842  0.35635  1.0000
  Fe  Fe84      1.0  0.88697  0.32571  0.37941  1.0000
  S   S167      1.0  0.85175  0.36345  0.39190  1.0000
  H   H932      1.0  0.77526  0.16421  0.38507  1.0000
  H   H933      1.0  0.73147  0.15894  0.45393  1.0000
  S   S168      1.0  0.92057  0.29115  0.39371  1.0000
  S   S169      1.0  0.62581  0.07095  0.62286  1.0000
  S   S170      1.0  0.56050  0.12576  0.60047  1.0000
  S   S171      1.0  0.54742  0.12385  0.64106  1.0000
  C   C549      1.0  0.55619  0.39085  0.46718  1.0000
  H   H934      1.0  0.62921  0.44837  0.67304  1.0000
  Fe  Fe85      1.0  0.57444  0.09240  0.62164  1.0000
  H   H935      1.0  0.54066  0.49162  0.55618  1.0000
  Fe  Fe86      1.0  0.58677  0.43075  0.59951  1.0000
  S   S172      1.0  0.54832  0.40241  0.61190  1.0000
  S   S173      1.0  0.58276  0.43039  0.57152  1.0000
  Fe  Fe87      1.0  0.61342  0.45501  0.63281  1.0000
  C   C550      1.0  0.93031  0.38478  0.40729  1.0000
  Fe  Fe88      1.0  0.58767  0.38556  0.62947  1.0000
  N   N39       1.0  0.95323  0.37647  0.42142  1.0000
  H   H936      1.0  0.69252  0.46488  0.67680  1.0000
  S   S174      1.0  0.62696  0.41136  0.61601  1.0000
  S   S175      1.0  0.57696  0.47692  0.61487  1.0000
  C   C551      1.0  0.55120  0.37828  0.48499  1.0000
  H   H937      1.0  0.55065  0.11624  0.53464  1.0000
  C   C552      1.0  0.54649  0.30326  0.62363  1.0000
  C   C553      1.0  0.57749  0.29846  0.63054  1.0000
  C   C554      1.0  0.60343  0.24191  0.36162  1.0000
  H   H938      1.0  0.57440  0.20762  0.45002  1.0000
  H   H939      1.0  0.62144  0.37332  0.38194  1.0000
  H   H940      1.0  0.57082  0.09096  0.56058  1.0000
  H   H941      1.0  0.61255  0.09057  0.55305  1.0000
  H   H942      1.0  0.57541  0.23973  0.42698  1.0000
  C   C555      1.0  0.57807  0.22628  0.36940  1.0000
  H   H943      1.0  0.65670  0.03490  0.40690  1.0000
  C   C556      1.0  0.66738  0.39371  0.53790  1.0000
  C   C557      1.0  0.67307  0.40085  0.55472  1.0000
  C   C558      1.0  0.64717  0.41102  0.56538  1.0000
  C   C559      1.0  0.61550  0.41457  0.55917  1.0000
  C   C560      1.0  0.60974  0.40696  0.54245  1.0000
  C   C561      1.0  0.63553  0.39642  0.53188  1.0000
  H   H944      1.0  0.69769  0.39894  0.55946  1.0000
  H   H945      1.0  0.65190  0.41711  0.57824  1.0000
  H   H946      1.0  0.58528  0.40977  0.53756  1.0000
  H   H947      1.0  0.63083  0.39135  0.51897  1.0000
  C   C562      1.0  0.59731  0.26709  0.47365  1.0000
  C   C563      1.0  0.57491  0.24918  0.48245  1.0000
  C   C564      1.0  0.54290  0.24747  0.47677  1.0000
  S   S176      1.0  0.72071  0.12568  0.38634  1.0000
  C   C565      1.0  0.55578  0.28095  0.45324  1.0000
  C   C566      1.0  0.58759  0.28367  0.45922  1.0000
  H   H948      1.0  0.58231  0.23665  0.49371  1.0000
  H   H949      1.0  0.97122  0.33304  0.40758  1.0000
  H   H950      1.0  0.60496  0.29734  0.45233  1.0000
  C   C567      1.0  0.79213  0.33020  0.43648  1.0000
  C   C568      1.0  0.78496  0.36105  0.42931  1.0000
  C   C569      1.0  0.80297  0.37089  0.41545  1.0000
  C   C570      1.0  0.82798  0.34987  0.40861  1.0000
  C   C571      1.0  0.83482  0.31898  0.41573  1.0000
  C   C572      1.0  0.81713  0.30930  0.42963  1.0000
  H   H951      1.0  0.76591  0.37746  0.43456  1.0000
  H   H952      1.0  0.79770  0.39497  0.41010  1.0000
  H   H953      1.0  0.85443  0.30290  0.41085  1.0000
  H   H954      1.0  0.82312  0.28561  0.43519  1.0000
  C   C573      1.0  0.59034  0.26594  0.63285  1.0000
  C   C574      1.0  0.66264  0.47425  0.46184  1.0000
  C   C575      1.0  0.63315  0.46202  0.45651  1.0000
  C   C576      1.0  0.60526  0.48333  0.45598  1.0000
  H   H955      1.0  0.96319  0.38742  0.38559  1.0000
  H   H956      1.0  0.68442  0.45811  0.46198  1.0000
  H   H957      1.0  0.58264  0.47425  0.45152  1.0000
  H   H958      1.0  0.54861  0.43156  0.44146  1.0000
  C   C577      1.0  0.77593  0.21633  0.39082  1.0000
  C   C578      1.0  0.79575  0.24315  0.39307  1.0000
  C   C579      1.0  0.82953  0.23896  0.39074  1.0000
  C   C580      1.0  0.84378  0.20793  0.38632  1.0000
  C   C581      1.0  0.82411  0.18082  0.38465  1.0000
  C   C582      1.0  0.79020  0.18510  0.38672  1.0000
  N   N40       1.0  0.65004  0.51384  0.52276  1.0000
  H   H959      1.0  0.84459  0.25981  0.39233  1.0000
  H   H960      1.0  0.75313  0.12742  0.43005  1.0000
  C   C583      1.0  0.80900  0.21072  0.43979  1.0000
  C   C584      1.0  0.65694  0.05545  0.43167  1.0000
  H   H961      1.0  0.62399  0.50735  0.56429  1.0000
  H   H962      1.0  0.56914  0.38935  0.49343  1.0000
  C   C585      1.0  0.60510  0.05017  0.52587  1.0000
  H   H963      1.0  0.59866  0.35461  0.39831  1.0000
  H   H964      1.0  0.72979  0.33308  0.39095  1.0000
  H   H965      1.0  0.55569  0.04605  0.54741  1.0000
  H   H966      1.0  0.69388  0.44458  0.50572  1.0000
  H   H967      1.0  0.68334  0.34604  0.37523  1.0000
  H   H968      1.0  0.70740  0.26479  0.45725  1.0000
  H   H969      1.0  0.90865  0.40019  0.41150  1.0000
  H   H970      1.0  0.53032  0.46515  0.46213  1.0000
  H   H971      1.0  0.72514  0.18185  0.47898  1.0000
  H   H972      1.0  0.61316  0.48138  0.54739  1.0000
  H   H973      1.0  0.61145  0.45926  0.51882  1.0000
  H   H974      1.0  0.58227  0.21355  0.63051  1.0000
  H   H975      1.0  0.53435  0.07752  0.67178  1.0000
  H   H976      1.0  0.53616  0.32814  0.62197  1.0000
  N   N41       1.0  0.66293  0.32059  0.39621  1.0000
  C   C586      1.0  0.65191  0.35456  0.40279  1.0000
  C   C587      1.0  0.69254  0.30936  0.40603  1.0000
  C   C588      1.0  0.63561  0.29770  0.39920  1.0000
  C   C589      1.0  0.66990  0.32345  0.37790  1.0000
  C   C590      1.0  0.55185  0.08340  0.68180  1.0000
  H   H977      1.0  0.68703  0.51728  0.47047  1.0000
  C   C591      1.0  0.64453  0.26015  0.39922  1.0000
  C   C592      1.0  0.68834  0.29388  0.36909  1.0000
  H   H978      1.0  0.64881  0.35430  0.41655  1.0000
  H   H979      1.0  0.58945  0.49947  0.66031  1.0000
  H   H980      1.0  0.70077  0.28352  0.40300  1.0000
  H   H981      1.0  0.68643  0.30892  0.41946  1.0000
  H   H982      1.0  0.62381  0.30331  0.41147  1.0000
  H   H983      1.0  0.61597  0.30178  0.38986  1.0000
  H   H984      1.0  0.64679  0.32765  0.37089  1.0000
  H   H985      1.0  0.71911  0.35484  0.41027  1.0000
  H   H986      1.0  0.67141  0.27547  0.36441  1.0000
  C   C593      1.0  0.72265  0.33020  0.40411  1.0000
  C   C594      1.0  0.94472  0.40313  0.39254  1.0000
  S   S177      1.0  0.53466  0.05749  0.61737  1.0000
  Fe  Fe89      1.0  0.52969  0.15453  0.61934  1.0000
  H   H987      1.0  0.52694  0.38537  0.49025  1.0000
  H   H988      1.0  0.65791  0.25290  0.41066  1.0000
  H   H989      1.0  0.65894  0.25152  0.38828  1.0000
  H   H990      1.0  0.62178  0.24647  0.39912  1.0000
  H   H991      1.0  0.70731  0.28127  0.37671  1.0000
  H   H992      1.0  0.69414  0.48511  0.52899  1.0000
  N   N42       1.0  0.56951  0.16723  0.43231  1.0000
  C   C595      1.0  0.58732  0.18388  0.44625  1.0000
  C   C596      1.0  0.63896  0.51354  0.66086  1.0000
  C   C597      1.0  0.58758  0.13448  0.42866  1.0000
  C   C598      1.0  0.54588  0.27840  0.37002  1.0000
  C   C599      1.0  0.59174  0.16396  0.46237  1.0000
  H   H993      1.0  0.58136  0.37966  0.43455  1.0000
  H   H994      1.0  0.68517  0.41483  0.66822  1.0000
  H   H995      1.0  0.55197  0.50173  0.42350  1.0000
  H   H996      1.0  0.61203  0.19050  0.44210  1.0000
  C   C600      1.0  0.94317  0.43449  0.43503  1.0000
  H   H997      1.0  0.92034  0.36172  0.40216  1.0000
  H   H998      1.0  0.59663  0.19021  0.41297  1.0000
  H   H999      1.0  0.61387  0.13837  0.42657  1.0000
  H   H1000     1.0  0.56729  0.05274  0.49988  1.0000
  S   S178      1.0  0.94563  0.25987  0.35749  1.0000
  H   H1001     1.0  0.53170  0.44771  0.48268  1.0000
  H   H1002     1.0  0.62566  0.22802  0.35836  1.0000
  H   H1003     1.0  0.83499  0.15670  0.38131  1.0000
  C   C601      1.0  0.60674  0.51468  0.66639  1.0000
  Fe  Fe90      1.0  0.69000  0.12490  0.36317  1.0000
  H   H1004     1.0  0.72149  0.27077  0.43627  1.0000
  C   C602      1.0  0.53525  0.40847  0.44011  1.0000
  H   H1005     1.0  0.67058  0.37290  0.40040  1.0000
  H   H1006     1.0  0.65428  0.47943  0.55539  1.0000
  H   H1007     1.0  0.65952  0.46166  0.52856  1.0000
  C   C603      1.0  0.75409  0.21805  0.46577  1.0000
  H   H1008     1.0  0.65277  0.34224  0.60894  1.0000
  H   H1009     1.0  0.92903  0.42639  0.44580  1.0000
  N   N43       1.0  0.60644  0.31369  0.57550  1.0000
  C   C604      1.0  0.61574  0.33469  0.59024  1.0000
  C   C605      1.0  0.57567  0.32966  0.56836  1.0000
  C   C606      1.0  0.63398  0.31394  0.56300  1.0000
  C   C607      1.0  0.60180  0.27910  0.58157  1.0000
  C   C608      1.0  0.64845  0.32456  0.59861  1.0000
  H   H1010     1.0  0.61359  0.41032  0.67892  1.0000
  C   C609      1.0  0.62587  0.30654  0.54468  1.0000
  C   C610      1.0  0.58778  0.25424  0.56915  1.0000
  H   H1011     1.0  0.61690  0.36116  0.58666  1.0000
  H   H1012     1.0  0.59707  0.33444  0.60021  1.0000
  H   H1013     1.0  0.56884  0.31799  0.55645  1.0000
  H   H1014     1.0  0.57949  0.35593  0.56521  1.0000
  H   H1015     1.0  0.64481  0.33866  0.56290  1.0000
  H   H1016     1.0  0.65423  0.29607  0.56652  1.0000
  H   H1017     1.0  0.62542  0.26733  0.58566  1.0000
  H   H1018     1.0  0.58671  0.27936  0.59310  1.0000
  H   H1019     1.0  0.64800  0.29980  0.60434  1.0000
  H   H1020     1.0  0.66948  0.32559  0.59003  1.0000
  H   H1021     1.0  0.57359  0.37233  0.46120  1.0000
  C   C611      1.0  0.54814  0.05052  0.53438  1.0000
  H   H1022     1.0  0.52508  0.09411  0.49127  1.0000
  H   H1023     1.0  0.61127  0.04223  0.53869  1.0000
  H   H1024     1.0  0.61121  0.32743  0.53915  1.0000
  H   H1025     1.0  0.61338  0.28322  0.54291  1.0000
  H   H1026     1.0  0.64893  0.30417  0.53741  1.0000
  H   H1027     1.0  0.60760  0.24087  0.56197  1.0000
  H   H1028     1.0  0.56975  0.26543  0.56048  1.0000
  H   H1029     1.0  0.57424  0.23579  0.57615  1.0000
  C   C612      1.0  0.59991  0.27568  0.35795  1.0000
  C   C613      1.0  0.60651  0.51640  0.46130  1.0000
  H   H1030     1.0  0.92661  0.44377  0.42511  1.0000
  H   H1031     1.0  0.57983  0.09353  0.50181  1.0000
  H   H1032     1.0  0.52758  0.03540  0.45264  1.0000
  H   H1033     1.0  0.61455  0.39448  0.40127  1.0000
  C   C614      1.0  0.57599  0.11408  0.41375  1.0000
  C   C615      1.0  0.57223  0.23843  0.62851  1.0000
  H   H1034     1.0  0.57016  0.41370  0.46777  1.0000
  H   H1035     1.0  0.55478  0.35083  0.48531  1.0000
  C   C616      1.0  0.53498  0.16234  0.43780  1.0000
  H   H1036     1.0  0.88543  0.35590  0.42656  1.0000
  N   N44       1.0  0.57300  0.06985  0.52546  1.0000
  C   C617      1.0  0.72794  0.20892  0.47847  1.0000
  C   C618      1.0  0.59775  0.48242  0.51563  1.0000
  C   C619      1.0  0.64238  0.52372  0.54057  1.0000
  H   H1037     1.0  0.74362  0.31721  0.41034  1.0000
  S   S179      1.0  0.65193  0.48574  0.64476  1.0000
  H   H1038     1.0  0.61432  0.26198  0.63819  1.0000
  H   H1039     1.0  0.76745  0.21901  0.42394  1.0000
  H   H1040     1.0  0.73545  0.21723  0.49103  1.0000
  H   H1041     1.0  0.52455  0.06478  0.53574  1.0000
  C   C620      1.0  0.57155  0.29412  0.36260  1.0000
  C   C621      1.0  0.98091  0.35448  0.41445  1.0000
  C   C622      1.0  0.56362  0.07570  0.50760  1.0000
  H   H1042     1.0  0.58507  0.47651  0.50387  1.0000
  H   H1043     1.0  0.63143  0.07287  0.50537  1.0000
  H   H1044     1.0  0.75655  0.24536  0.46668  1.0000
  H   H1045     1.0  0.59043  0.11965  0.52678  1.0000
  H   H1046     1.0  0.77011  0.16279  0.42113  1.0000
  H   H1047     1.0  0.77765  0.20700  0.47037  1.0000
  H   H1048     1.0  0.93784  0.33009  0.43153  1.0000
  H   H1049     1.0  0.99548  0.36790  0.40531  1.0000
  H   H1050     1.0  0.65488  0.06830  0.45773  1.0000
  H   H1051     1.0  0.68036  0.26073  0.44024  1.0000
  H   H1052     1.0  0.59331  0.09228  0.41191  1.0000
  S   S180      1.0  0.00950  0.31918  0.37853  1.0000
  C   C623      1.0  0.00578  0.34013  0.42713  1.0000
  C   C624      1.0  0.67097  0.48206  0.52211  1.0000
  H   H1053     1.0  0.89279  0.39171  0.43912  1.0000
  H   H1054     1.0  0.57902  0.48853  0.52529  1.0000
  H   H1055     1.0  0.53413  0.14042  0.44596  1.0000
  H   H1056     1.0  0.98389  0.41820  0.41965  1.0000
  C   C625      1.0  0.75147  0.17001  0.44693  1.0000
  C   C626      1.0  0.61926  0.51194  0.51272  1.0000
  C   C627      1.0  0.93618  0.35716  0.43457  1.0000
  H   H1057     1.0  0.99437  0.32531  0.43682  1.0000
  C   C628      1.0  0.63453  0.06742  0.51874  1.0000
  C   C629      1.0  0.57507  0.10310  0.53402  1.0000
  H   H1058     1.0  0.55982  0.10869  0.67906  1.0000
  C   C630      1.0  0.71482  0.21854  0.44230  1.0000
  H   H1059     1.0  0.54879  0.29205  0.44156  1.0000
  C   C631      1.0  0.75024  0.15483  0.42924  1.0000
  H   H1060     1.0  0.71174  0.21266  0.42889  1.0000
  C   C632      1.0  0.55692  0.38474  0.42913  1.0000
  C   C633      1.0  0.89939  0.36511  0.43725  1.0000
  H   H1061     1.0  0.56081  0.39699  0.41708  1.0000
  C   C634      1.0  0.63591  0.42484  0.67943  1.0000
  C   C635      1.0  0.66412  0.50775  0.46659  1.0000
  H   H1062     1.0  0.55492  0.23715  0.40767  1.0000
  Fe  Fe91      1.0  0.54137  0.44716  0.62856  1.0000
  H   H1063     1.0  0.52557  0.23445  0.48391  1.0000
  H   H1064     1.0  0.94831  0.35967  0.44683  1.0000
  Fe  Fe92      1.0  0.63370  0.16449  0.37871  1.0000
  Fe  Fe93      1.0  0.70373  0.17918  0.38744  1.0000
  S   S181      1.0  0.73362  0.22239  0.39393  1.0000
  H   H1065     1.0  0.95690  0.45591  0.43938  1.0000
  H   H1066     1.0  0.89100  0.35186  0.44834  1.0000
  C   C636      1.0  0.67986  0.46864  0.50460  1.0000
  H   H1067     1.0  0.57592  0.12787  0.40196  1.0000
  H   H1068     1.0  0.53379  0.22671  0.42613  1.0000
  C   C637      1.0  0.57112  0.18914  0.41737  1.0000
  H   H1069     1.0  0.81778  0.21738  0.45233  1.0000
  C   C638      1.0  0.96754  0.40693  0.42879  1.0000
  S   S182      1.0  0.57709  0.42785  0.64760  1.0000
  H   H1070     1.0  0.77238  0.25010  0.43901  1.0000
  S   S183      1.0  0.58232  0.18443  0.37481  1.0000
  H   H1071     1.0  0.59370  0.06580  0.66705  1.0000
  H   H1072     1.0  0.92483  0.40921  0.38359  1.0000
  H   H1073     1.0  0.60124  0.18041  0.47220  1.0000
  H   H1074     1.0  0.78504  0.26731  0.39650  1.0000
  H   H1075     1.0  0.82439  0.22330  0.43069  1.0000
  H   H1076     1.0  0.55277  0.52615  0.58072  1.0000
  H   H1077     1.0  0.95496  0.42686  0.39636  1.0000
  H   H1078     1.0  0.53897  0.30377  0.58268  1.0000
  H   H1079     1.0  0.58647  0.11762  0.43943  1.0000
  C   C639      1.0  0.77319  0.22276  0.43720  1.0000
  H   H1080     1.0  0.56845  0.15488  0.46698  1.0000
  S   S184      1.0  0.60068  0.33230  0.63665  1.0000
  C   C640      1.0  0.54513  0.32927  0.57950  1.0000
  C   C641      1.0  0.70596  0.25588  0.44423  1.0000
  N   N45       1.0  0.74839  0.20733  0.44806  1.0000
  Fe  Fe94      1.0  0.67437  0.11626  0.40024  1.0000
  H   H1081     1.0  0.61003  0.14298  0.46076  1.0000
  C   C642      1.0  0.54895  0.24435  0.37314  1.0000
  H   H1082     1.0  0.70393  0.22165  0.47604  1.0000
  C   C643      1.0  0.55787  0.22517  0.41991  1.0000
  H   H1083     1.0  0.81319  0.18378  0.43742  1.0000
  S   S185      1.0  0.88568  0.20345  0.38179  1.0000
  H   H1084     1.0  0.63446  0.03533  0.58040  1.0000
  H   H1085     1.0  0.56413  0.52577  0.55090  1.0000
  S   S186      1.0  0.64513  0.10981  0.37687  1.0000
  H   H1086     1.0  0.72646  0.16033  0.42318  1.0000
  H   H1087     1.0  0.69575  0.20492  0.44877  1.0000
  H   H1088     1.0  0.77430  0.16025  0.45291  1.0000
  H   H1089     1.0  0.69579  0.48520  0.49784  1.0000
  H   H1090     1.0  0.98325  0.40037  0.43959  1.0000
  C   C644      1.0  0.63287  0.49610  0.55235  1.0000
  S   S187      1.0  0.56929  0.33697  0.35975  1.0000
  H   H1091     1.0  0.01858  0.24854  0.38535  1.0000
  H   H1092     1.0  0.66237  0.37845  0.67157  1.0000
  C   C645      1.0  0.62915  0.03069  0.63084  1.0000
  H   H1093     1.0  0.55791  0.17919  0.40667  1.0000
  H   H1094     1.0  0.63972  0.09031  0.52575  1.0000
  H   H1095     1.0  0.65793  0.46386  0.49714  1.0000
  H   H1096     1.0  0.58146  0.03338  0.64193  1.0000
  H   H1097     1.0  0.02001  0.35970  0.43296  1.0000
  H   H1098     1.0  0.58950  0.12860  0.55652  1.0000
  C   C646      1.0  0.66062  0.40501  0.66816  1.0000
  C   C647      1.0  0.58785  0.10264  0.55202  1.0000
  H   H1099     1.0  0.55192  0.10399  0.41624  1.0000
  C   C648      1.0  0.65125  0.04912  0.44853  1.0000
  H   H1100     1.0  0.53663  0.50478  0.65234  1.0000
  H   H1101     1.0  0.65184  0.40602  0.65513  1.0000
  H   H1102     1.0  0.65647  0.05030  0.51977  1.0000
  H   H1103     1.0  0.54544  0.36115  0.42631  1.0000
  C   C649      1.0  0.53352  0.26251  0.46192  1.0000
  H   H1104     1.0  0.70192  0.30316  0.35831  1.0000
  C   C650      1.0  0.54095  0.24328  0.62193  1.0000
  H   H1105     1.0  0.54763  0.34411  0.59099  1.0000
  C   C651      1.0  0.58153  0.05910  0.67878  1.0000
  H   H1106     1.0  0.62442  0.51270  0.49917  1.0000
  C   C652      1.0  0.52830  0.27581  0.61941  1.0000
  C   C653      1.0  0.53982  0.51900  0.55533  1.0000
  C   C654      1.0  0.65230  0.03039  0.41990  1.0000
  H   H1107     1.0  0.59307  0.03995  0.57413  1.0000
  H   H1108     1.0  0.57384  0.03332  0.67711  1.0000
  N   N46       1.0  0.52585  0.39573  0.45688  1.0000
  H   H1109     1.0  0.52907  0.23225  0.37895  1.0000
  C   C655      1.0  0.52753  0.50176  0.42854  1.0000
  C   C656      1.0  0.52851  0.08969  0.50474  1.0000
  H   H1110     1.0  0.52583  0.18401  0.44549  1.0000
  H   H1111     1.0  0.52336  0.11381  0.51116  1.0000
  H   H1112     1.0  0.52381  0.29250  0.37356  1.0000
  H   H1113     1.0  0.52404  0.34068  0.57270  1.0000
  N   N47       1.0  0.53539  0.08289  0.69860  1.0000
  H   H1114     1.0  0.65786  0.40381  0.73060  1.0000
  S   S188      1.0  0.98187  0.12424  0.99819  1.0000
  Fe  Fe95      1.0  0.99788  0.08907  0.97740  1.0000
  H   H1115     1.0  0.62042  0.43937  0.72088  1.0000
  C   C657      1.0  0.00107  0.51081  0.96773  1.0000
  S   S189      1.0  0.96197  0.06912  0.95892  1.0000
  H   H1116     1.0  0.52968  0.05624  0.73144  1.0000
  C   C658      1.0  0.58829  0.45944  0.70249  1.0000
  H   H1117     1.0  0.66400  0.47141  0.71223  1.0000
  H   H1118     1.0  0.55732  0.03422  0.70486  1.0000
  C   C659      1.0  0.53322  0.04769  0.70432  1.0000
  H   H1119     1.0  0.70339  0.49204  0.69314  1.0000
  H   H1120     1.0  0.56587  0.45590  0.70984  1.0000
  H   H1121     1.0  0.69605  0.38496  0.72441  1.0000
  H   H1122     1.0  0.01664  0.52035  0.00010  1.0000
  H   H1123     1.0  0.53727  0.10921  0.72235  1.0000
  H   H1124     1.0  0.59134  0.10217  0.72919  1.0000
  H   H1125     1.0  0.69112  0.42898  0.72439  1.0000
  S   S190      1.0  0.99622  0.46934  0.97321  1.0000
  H   H1126     1.0  0.55506  0.12945  0.70592  1.0000
  H   H1127     1.0  0.59554  0.48498  0.70529  1.0000
  C   C660      1.0  0.66118  0.46438  0.69893  1.0000
  N   N48       1.0  0.64562  0.43154  0.69725  1.0000
  H   H1128     1.0  0.71312  0.44884  0.69522  1.0000
  H   H1129     1.0  0.00669  0.27930  0.99606  1.0000
  H   H1130     1.0  0.60007  0.05982  0.68861  1.0000
  H   H1131     1.0  0.65516  0.37950  0.70206  1.0000
  H   H1132     1.0  0.60557  0.10152  0.70801  1.0000
  C   C661      1.0  0.55235  0.10428  0.71099  1.0000
  H   H1133     1.0  0.96331  0.49959  0.00088  1.0000
  H   H1134     1.0  0.69018  0.40013  0.69609  1.0000
  H   H1135     1.0  0.60376  0.40878  0.70773  1.0000
  C   C662      1.0  0.66746  0.40332  0.70353  1.0000
  C   C663      1.0  0.67839  0.40597  0.72180  1.0000
  H   H1136     1.0  0.64516  0.48449  0.69367  1.0000
  C   C664      1.0  0.58681  0.09235  0.71650  1.0000
  H   H1137     1.0  0.01729  0.04889  0.92125  1.0000
  C   C665      1.0  0.95916  0.51048  0.01350  1.0000
  H   H1138     1.0  0.91411  0.19862  0.01774  1.0000
  Fe  Fe96      1.0  0.01622  0.09382  0.01402  1.0000
  H   H1139     1.0  0.95594  0.20430  0.01596  1.0000
  H   H1140     1.0  0.96936  0.44282  0.01491  1.0000
  C   C666      1.0  0.61500  0.43331  0.70770  1.0000
  C   C667      1.0  0.97204  0.03257  0.94726  1.0000
  H   H1141     1.0  0.93116  0.03950  0.93076  1.0000
  S   S191      1.0  0.01781  0.20911  0.99507  1.0000
  H   H1142     1.0  0.58151  0.45740  0.68921  1.0000
  H   H1143     1.0  0.59021  0.06520  0.71762  1.0000
  H   H1144     1.0  0.02038  0.46898  0.01257  1.0000
  H   H1145     1.0  0.94164  0.49426  0.01933  1.0000
  C   C668      1.0  0.69448  0.46703  0.69047  1.0000
  H   H1146     1.0  0.01638  0.08399  0.93479  1.0000
  H   H1147     1.0  0.95104  0.52629  0.97267  1.0000
  H   H1148     1.0  0.01277  0.92186  0.07724  1.0000
  C   C669      1.0  0.00687  0.99773  0.13590  1.0000
  H   H1149     1.0  0.02057  0.63069  0.18772  1.0000
  C   C670      1.0  0.96410  0.61824  0.15448  1.0000
  S   S192      1.0  0.99449  0.61971  0.10409  1.0000
  H   H1150     1.0  0.95707  0.62765  0.20406  1.0000
  H   H1151     1.0  0.01174  0.99580  0.10130  1.0000
  H   H1152     1.0  0.98185  0.73662  0.06926  1.0000
  S   S193      1.0  0.00386  0.95523  0.13169  1.0000
  N   N49       1.0  0.99127  0.98645  0.07702  1.0000
  H   H1153     1.0  0.96370  0.67489  0.13963  1.0000
  C   C671      1.0  0.95471  0.67785  0.15268  1.0000
  H   H1154     1.0  0.94893  0.95633  0.07728  1.0000
  C   C672      1.0  0.99332  0.75541  0.03904  1.0000
  C   C673      1.0  0.95338  0.65286  0.18032  1.0000
  C   C674      1.0  0.97225  0.95897  0.08404  1.0000
  C   C675      1.0  0.99391  0.71600  0.06183  1.0000
  H   H1155     1.0  0.94542  0.73112  0.15073  1.0000
  H   H1156     1.0  0.92650  0.58476  0.14733  1.0000
  H   H1157     1.0  0.97173  0.93922  0.05139  1.0000
  C   C676      1.0  0.00926  0.53093  0.16047  1.0000
  C   C677      1.0  0.94302  0.64077  0.02813  1.0000
  C   C678      1.0  0.94150  0.64073  0.04554  1.0000
  C   C679      1.0  0.96818  0.62814  0.05487  1.0000
  C   C680      1.0  0.99654  0.61590  0.04677  1.0000
  H   H1158     1.0  0.97441  0.59657  0.16126  1.0000
  C   C681      1.0  0.96903  0.01723  0.07608  1.0000
  H   H1159     1.0  0.91966  0.65046  0.05181  1.0000
  H   H1160     1.0  0.96668  0.62770  0.06827  1.0000
  H   H1161     1.0  0.00990  0.67956  0.17108  1.0000
  H   H1162     1.0  0.96405  0.67268  0.18800  1.0000
  H   H1163     1.0  0.92779  0.67652  0.15194  1.0000
  H   H1164     1.0  0.92709  0.66048  0.17903  1.0000
  C   C682      1.0  0.95442  0.62086  0.19073  1.0000
  Fe  Fe97      1.0  0.01294  0.57716  0.11981  1.0000
  H   H1165     1.0  0.95027  0.76440  0.02375  1.0000
  C   C683      1.0  0.96087  0.71369  0.15824  1.0000
  H   H1166     1.0  0.95461  0.71845  0.17148  1.0000
  C   C684      1.0  0.99043  0.92456  0.08491  1.0000
  N   N50       1.0  0.96939  0.65059  0.16341  1.0000
  H   H1167     1.0  0.91907  0.62583  0.14002  1.0000
  H   H1168     1.0  0.01993  0.60687  0.02310  1.0000
  H   H1169     1.0  0.91207  0.61635  0.16163  1.0000
  H   H1170     1.0  0.95414  0.53057  0.06099  1.0000
  H   H1171     1.0  0.93091  0.60859  0.18988  1.0000
  C   C685      1.0  0.97926  0.01929  0.13476  1.0000
  S   S194      1.0  0.97701  0.54279  0.13084  1.0000
  H   H1172     1.0  0.96442  0.96513  0.09701  1.0000
  C   C686      1.0  0.96541  0.74285  0.02828  1.0000
  C   C687      1.0  0.99802  0.61611  0.02943  1.0000
  H   H1173     1.0  0.97359  0.70171  0.05686  1.0000
  C   C688      1.0  0.00386  0.97811  0.05976  1.0000
  H   H1174     1.0  0.97420  0.90507  0.08064  1.0000
  H   H1175     1.0  0.94637  0.01202  0.06923  1.0000
  C   C689      1.0  0.00539  0.65567  0.16470  1.0000
  N   N51       1.0  0.01384  0.72905  0.04783  1.0000
  H   H1176     1.0  0.99744  0.91924  0.09794  1.0000
  H   H1177     1.0  0.97453  0.60251  0.18782  1.0000
  H   H1178     1.0  0.99477  0.68463  0.08352  1.0000
  H   H1179     1.0  0.98056  0.55338  0.03902  1.0000
  H   H1180     1.0  0.95577  0.00950  0.13222  1.0000
  C   C690      1.0  0.92824  0.61131  0.15078  1.0000
  H   H1181     1.0  0.01621  0.65759  0.15208  1.0000
  H   H1182     1.0  0.00843  0.77073  0.03098  1.0000
  H   H1183     1.0  0.97737  0.61717  0.14239  1.0000
  H   H1184     1.0  0.95709  0.98102  0.04632  1.0000
  H   H1185     1.0  0.98187  0.77345  0.04815  1.0000
  H   H1186     1.0  0.01306  0.00052  0.05378  1.0000
  C   C691      1.0  0.97897  0.96409  0.04763  1.0000
  H   H1187     1.0  0.94541  0.01610  0.10085  1.0000
  H   H1188     1.0  0.94918  0.72689  0.03525  1.0000
  H   H1189     1.0  0.00826  0.77175  0.12132  1.0000
  H   H1190     1.0  0.98644  0.71990  0.15581  1.0000
  C   C692      1.0  0.01981  0.99170  0.08822  1.0000
  H   H1191     1.0  0.00223  0.68690  0.03215  1.0000
  H   H1192     1.0  0.99039  0.96114  0.03515  1.0000
  S   S195      1.0  0.01878  0.70114  0.12213  1.0000
  C   C693      1.0  0.01238  0.69310  0.07421  1.0000
  H   H1193     1.0  0.93531  0.55717  0.02349  1.0000
  H   H1194     1.0  0.55993  0.99691  0.53153  1.0000
  H   H1195     1.0  0.61107  0.93777  0.57518  1.0000
  Fe  Fe98      1.0  0.58687  0.59162  0.47948  1.0000
  C   C694      1.0  0.60514  0.99660  0.58987  1.0000
  S   S196      1.0  0.54976  0.61113  0.46115  1.0000
  S   S197      1.0  0.58014  0.63518  0.49692  1.0000
  Fe  Fe99      1.0  0.61661  0.94570  0.51164  1.0000
  S   S198      1.0  0.57477  0.91377  0.51618  1.0000
  S   S199      1.0  0.64003  0.96805  0.53417  1.0000
  Fe  Fe100     1.0  0.61055  0.94020  0.47388  1.0000
  S   S200      1.0  0.56834  0.90685  0.47558  1.0000
  S   S201      1.0  0.62734  0.95230  0.44786  1.0000
  Fe  Fe101     1.0  0.55056  0.94251  0.49564  1.0000
  H   H1196     1.0  0.63998  0.97962  0.41587  1.0000
  Fe  Fe102     1.0  0.59655  0.88087  0.49591  1.0000
  S   S202      1.0  0.60657  0.82586  0.50078  1.0000
  S   S203      1.0  0.59071  0.97737  0.49263  1.0000
  S   S204      1.0  0.64056  0.91130  0.49264  1.0000
  Fe  Fe103     1.0  0.67643  0.81491  0.63526  1.0000
  S   S205      1.0  0.72334  0.81500  0.62124  1.0000
  S   S206      1.0  0.65266  0.76662  0.63931  1.0000
  Fe  Fe104     1.0  0.67393  0.88918  0.64004  1.0000
  S   S207      1.0  0.72078  0.89596  0.62624  1.0000
  S   S208      1.0  0.63701  0.92581  0.65126  1.0000
  Fe  Fe105     1.0  0.70128  0.85916  0.60805  1.0000
  S   S209      1.0  0.70109  0.85516  0.58009  1.0000
  Fe  Fe106     1.0  0.73909  0.85116  0.64070  1.0000
  S   S210      1.0  0.79024  0.84123  0.65061  1.0000
  S   S211      1.0  0.65312  0.85621  0.62068  1.0000
  S   S212      1.0  0.69371  0.84732  0.65582  1.0000
  H   H1197     1.0  0.58913  0.91943  0.67473  1.0000
  H   H1198     1.0  0.57447  0.63420  0.64258  1.0000
  H   H1199     1.0  0.59076  0.72023  0.67742  1.0000
  C   C695      1.0  0.73908  0.77199  0.67135  1.0000
  S   S213      1.0  0.63711  0.56980  0.47381  1.0000
  C   C696      1.0  0.77896  0.85143  0.68442  1.0000
  H   H1200     1.0  0.79446  0.72169  0.64958  1.0000
  C   C697      1.0  0.63463  0.96602  0.64326  1.0000
  C   C698      1.0  0.66019  0.97825  0.63408  1.0000
  H   H1201     1.0  0.60354  0.02658  0.51871  1.0000
  C   C699      1.0  0.60626  0.98601  0.64605  1.0000
  H   H1202     1.0  0.68218  0.96296  0.63189  1.0000
  C   C700      1.0  0.82115  0.72370  0.67956  1.0000
  H   H1203     1.0  0.58640  0.97655  0.65306  1.0000
  C   C701      1.0  0.80126  0.84194  0.67186  1.0000
  C   C702      1.0  0.83309  0.83130  0.67625  1.0000
  H   H1204     1.0  0.52494  0.87663  0.65319  1.0000
  H   H1205     1.0  0.61830  0.85804  0.42568  1.0000
  C   C703      1.0  0.62001  0.85233  0.68142  1.0000
  H   H1206     1.0  0.62948  0.68074  0.66727  1.0000
  H   H1207     1.0  0.85055  0.82400  0.66664  1.0000
  Fe  Fe107     1.0  0.53973  0.65226  0.48002  1.0000
  C   C704      1.0  0.64907  0.78354  0.43402  1.0000
  H   H1208     1.0  0.62048  0.00882  0.56439  1.0000
  S   S214      1.0  0.52704  0.70586  0.47331  1.0000
  C   C705      1.0  0.74884  0.73278  0.63833  1.0000
  C   C706      1.0  0.55889  0.79938  0.63259  1.0000
  C   C707      1.0  0.59264  0.79851  0.63515  1.0000
  C   C708      1.0  0.61045  0.76816  0.63578  1.0000
  C   C709      1.0  0.59441  0.73867  0.63358  1.0000
  C   C710      1.0  0.56059  0.73954  0.63092  1.0000
  H   H1209     1.0  0.60469  0.82132  0.63707  1.0000
  H   H1210     1.0  0.60819  0.71515  0.63386  1.0000
  H   H1211     1.0  0.60123  0.91107  0.59939  1.0000
  C   C711      1.0  0.65793  0.93718  0.54695  1.0000
  C   C712      1.0  0.67031  0.94543  0.56262  1.0000
  C   C713      1.0  0.68272  0.92044  0.57323  1.0000
  C   C714      1.0  0.68427  0.88735  0.56780  1.0000
  C   C715      1.0  0.67277  0.87938  0.55196  1.0000
  C   C716      1.0  0.65900  0.90406  0.54173  1.0000
  H   H1212     1.0  0.67010  0.97107  0.56663  1.0000
  H   H1213     1.0  0.69209  0.92683  0.58533  1.0000
  H   H1214     1.0  0.67473  0.85405  0.54750  1.0000
  H   H1215     1.0  0.64983  0.89744  0.52964  1.0000
  H   H1216     1.0  0.55186  0.78900  0.53634  1.0000
  C   C717      1.0  0.57998  0.73345  0.48843  1.0000
  C   C718      1.0  0.59715  0.76039  0.49439  1.0000
  C   C719      1.0  0.58495  0.79312  0.49214  1.0000
  C   C720      1.0  0.55562  0.79877  0.48366  1.0000
  S   S215      1.0  0.55266  0.56008  0.49303  1.0000
  H   H1217     1.0  0.75443  0.85982  0.68120  1.0000
  H   H1218     1.0  0.62359  0.65201  0.68402  1.0000
  C   C721      1.0  0.53476  0.56727  0.40238  1.0000
  C   C722      1.0  0.67925  0.81934  0.47193  1.0000
  H   H1219     1.0  0.54532  0.93533  0.55821  1.0000
  H   H1220     1.0  0.59066  0.81063  0.44116  1.0000
  H   H1221     1.0  0.52423  0.54323  0.39923  1.0000
  C   C723      1.0  0.63754  0.99262  0.44191  1.0000
  C   C724      1.0  0.53031  0.70260  0.68367  1.0000
  C   C725      1.0  0.66145  0.53317  0.66897  1.0000
  C   C726      1.0  0.64758  0.83250  0.46355  1.0000
  H   H1222     1.0  0.54972  0.00270  0.56772  1.0000
  C   C727      1.0  0.55012  0.69616  0.53629  1.0000
  H   H1223     1.0  0.54882  0.76223  0.51899  1.0000
  H   H1224     1.0  0.56283  0.61546  0.66132  1.0000
  C   C728      1.0  0.79283  0.75035  0.67961  1.0000
  H   H1225     1.0  0.70358  0.71838  0.66031  1.0000
  C   C729      1.0  0.53413  0.77785  0.52784  1.0000
  H   H1226     1.0  0.54022  0.68903  0.54845  1.0000
  H   H1227     1.0  0.74949  0.79497  0.66669  1.0000
  H   H1228     1.0  0.56592  0.71734  0.53799  1.0000
  H   H1229     1.0  0.58951  0.92166  0.62022  1.0000
  H   H1230     1.0  0.54517  0.82294  0.63234  1.0000
  H   H1231     1.0  0.60312  0.53444  0.51498  1.0000
  H   H1232     1.0  0.69450  0.54044  0.52106  1.0000
  H   H1233     1.0  0.67400  0.53601  0.50186  1.0000
  C   C730      1.0  0.67320  0.87222  0.44605  1.0000
  C   C731      1.0  0.71409  0.70509  0.67108  1.0000
  H   H1234     1.0  0.69819  0.86398  0.44996  1.0000
  H   H1235     1.0  0.76519  0.68935  0.66917  1.0000
  H   H1236     1.0  0.65405  0.90011  0.42427  1.0000
  H   H1237     1.0  0.63752  0.01331  0.46665  1.0000
  C   C732      1.0  0.61803  0.85656  0.43947  1.0000
  H   H1238     1.0  0.62960  0.78374  0.42448  1.0000
  H   H1239     1.0  0.53663  0.53841  0.44741  1.0000
  C   C733      1.0  0.54274  0.76991  0.63065  1.0000
  N   N52       1.0  0.55943  0.67925  0.67999  1.0000
  C   C734      1.0  0.55041  0.73903  0.48014  1.0000
  H   H1240     1.0  0.69021  0.87364  0.41997  1.0000
  H   H1241     1.0  0.67080  0.59316  0.51027  1.0000
  H   H1242     1.0  0.66758  0.76350  0.43073  1.0000
  H   H1243     1.0  0.66562  0.82554  0.42153  1.0000
  H   H1244     1.0  0.67307  0.80942  0.48428  1.0000
  H   H1245     1.0  0.53555  0.63422  0.68544  1.0000
  H   H1246     1.0  0.60783  0.80540  0.66878  1.0000
  C   C735      1.0  0.77459  0.74106  0.65136  1.0000
  H   H1247     1.0  0.71703  0.76922  0.66373  1.0000
  C   C736      1.0  0.63592  0.52872  0.46653  1.0000
  H   H1248     1.0  0.63905  0.77602  0.44604  1.0000
  H   H1249     1.0  0.67750  0.02028  0.62108  1.0000
  H   H1250     1.0  0.69194  0.81190  0.43724  1.0000
  C   C737      1.0  0.65189  0.55302  0.68287  1.0000
  H   H1251     1.0  0.55881  0.74644  0.58581  1.0000
  H   H1252     1.0  0.55697  0.56856  0.39458  1.0000
  H   H1253     1.0  0.66469  0.89148  0.45535  1.0000
  H   H1254     1.0  0.53503  0.71137  0.51186  1.0000
  H   H1255     1.0  0.74147  0.70691  0.63952  1.0000
  H   H1256     1.0  0.61238  0.88241  0.44402  1.0000
  H   H1257     1.0  0.65355  0.58517  0.53008  1.0000
  H   H1258     1.0  0.53765  0.56289  0.57078  1.0000
  N   N53       1.0  0.58646  0.86886  0.68345  1.0000
  H   H1259     1.0  0.63058  0.57920  0.51119  1.0000
  C   C738      1.0  0.57574  0.63658  0.65631  1.0000
  C   C739      1.0  0.59708  0.93214  0.60821  1.0000
  C   C740      1.0  0.55920  0.67029  0.66170  1.0000
  H   H1260     1.0  0.59736  0.82760  0.60192  1.0000
  H   H1261     1.0  0.57065  0.68963  0.65439  1.0000
  H   H1262     1.0  0.58388  0.87161  0.65659  1.0000
  N   N54       1.0  0.62752  0.78763  0.57537  1.0000
  C   C741      1.0  0.65094  0.78488  0.56084  1.0000
  C   C742      1.0  0.64741  0.78282  0.59096  1.0000
  C   C743      1.0  0.61201  0.82230  0.57547  1.0000
  C   C744      1.0  0.60234  0.76202  0.57312  1.0000
  C   C745      1.0  0.63621  0.79147  0.54347  1.0000
  C   C746      1.0  0.66752  0.74966  0.59209  1.0000
  C   C747      1.0  0.58713  0.83109  0.58935  1.0000
  C   C748      1.0  0.58451  0.75103  0.58893  1.0000
  H   H1263     1.0  0.67109  0.80200  0.56259  1.0000
  H   H1264     1.0  0.66298  0.75964  0.55997  1.0000
  H   H1265     1.0  0.63236  0.78516  0.60235  1.0000
  H   H1266     1.0  0.66484  0.80283  0.59235  1.0000
  H   H1267     1.0  0.63115  0.84084  0.57617  1.0000
  H   H1268     1.0  0.59856  0.82733  0.56376  1.0000
  H   H1269     1.0  0.58345  0.77083  0.56411  1.0000
  H   H1270     1.0  0.61396  0.73890  0.56757  1.0000
  H   H1271     1.0  0.62910  0.81802  0.54168  1.0000
  H   H1272     1.0  0.65508  0.78510  0.53389  1.0000
  H   H1273     1.0  0.61530  0.77607  0.54077  1.0000
  H   H1274     1.0  0.68950  0.74960  0.58405  1.0000
  H   H1275     1.0  0.67643  0.74651  0.60501  1.0000
  H   H1276     1.0  0.65310  0.72807  0.58896  1.0000
  H   H1277     1.0  0.78501  0.76489  0.64770  1.0000
  C   C749      1.0  0.54174  0.01601  0.52707  1.0000
  H   H1278     1.0  0.69274  0.91147  0.43145  1.0000
  H   H1279     1.0  0.63222  0.86259  0.67044  1.0000
  H   H1280     1.0  0.58357  0.76907  0.59932  1.0000
  H   H1281     1.0  0.59519  0.72694  0.59335  1.0000
  H   H1282     1.0  0.54629  0.75084  0.67459  1.0000
  H   H1283     1.0  0.54831  0.71676  0.62911  1.0000
  H   H1284     1.0  0.56597  0.67491  0.53164  1.0000
  H   H1285     1.0  0.56484  0.97543  0.61249  1.0000
  C   C750      1.0  0.75042  0.71064  0.67468  1.0000
  C   C751      1.0  0.60338  0.01812  0.63970  1.0000
  C   C752      1.0  0.59711  0.53467  0.68010  1.0000
  N   N55       1.0  0.76344  0.74300  0.66922  1.0000
  C   C753      1.0  0.67745  0.88991  0.42935  1.0000
  H   H1286     1.0  0.61988  0.75581  0.50090  1.0000
  C   C754      1.0  0.58979  0.69680  0.68440  1.0000
  H   H1287     1.0  0.75973  0.73473  0.62577  1.0000
  H   H1288     1.0  0.54586  0.82387  0.48197  1.0000
  H   H1289     1.0  0.55001  0.91484  0.57802  1.0000
  C   C755      1.0  0.53849  0.77180  0.47765  1.0000
  C   C756      1.0  0.65493  0.57635  0.51699  1.0000
  H   H1290     1.0  0.54782  0.94282  0.60132  1.0000
  H   H1291     1.0  0.58957  0.70839  0.49033  1.0000
  H   H1292     1.0  0.54737  0.55968  0.60304  1.0000
  H   H1293     1.0  0.53830  0.97264  0.66984  1.0000
  N   N56       1.0  0.57713  0.97475  0.58633  1.0000
  C   C757      1.0  0.56306  0.92500  0.56740  1.0000
  C   C758      1.0  0.57004  0.95706  0.60223  1.0000
  H   H1294     1.0  0.81320  0.69904  0.68322  1.0000
  C   C759      1.0  0.58736  0.95098  0.57250  1.0000
  H   H1295     1.0  0.56473  0.81723  0.58784  1.0000
  H   H1296     1.0  0.53316  0.98468  0.46941  1.0000
  H   H1297     1.0  0.64725  0.80521  0.67764  1.0000
  Fe  Fe108     1.0  0.54287  0.60509  0.50916  1.0000
  C   C760      1.0  0.58803  0.83731  0.44426  1.0000
  H   H1298     1.0  0.62810  0.98161  0.59216  1.0000
  C   C761      1.0  0.66559  0.81694  0.43458  1.0000
  H   H1299     1.0  0.56648  0.84767  0.43743  1.0000
  H   H1300     1.0  0.63005  0.81279  0.46481  1.0000
  H   H1301     1.0  0.71130  0.67828  0.66862  1.0000
  H   H1302     1.0  0.59223  0.96464  0.56096  1.0000
  H   H1303     1.0  0.62040  0.94382  0.61056  1.0000
  H   H1304     1.0  0.63705  0.85325  0.47140  1.0000
  H   H1305     1.0  0.60167  0.63373  0.65973  1.0000
  H   H1306     1.0  0.56423  0.83732  0.66506  1.0000
  H   H1307     1.0  0.57949  0.85775  0.58848  1.0000
  N   N57       1.0  0.65079  0.84373  0.44588  1.0000
  H   H1308     1.0  0.69160  0.79873  0.46475  1.0000
  H   H1309     1.0  0.62231  0.54333  0.54116  1.0000
  H   H1310     1.0  0.69620  0.83933  0.47431  1.0000
  H   H1311     1.0  0.57215  0.53490  0.68443  1.0000
  H   H1312     1.0  0.58225  0.84057  0.45767  1.0000
  H   H1313     1.0  0.54519  0.62865  0.57003  1.0000
  H   H1314     1.0  0.58483  0.53255  0.46119  1.0000
  H   H1315     1.0  0.57676  0.90335  0.56161  1.0000
  H   H1316     1.0  0.53379  0.66966  0.65702  1.0000
  H   H1317     1.0  0.72723  0.75023  0.63871  1.0000
  C   C762      1.0  0.66981  0.54053  0.51537  1.0000
  S   S216      1.0  0.54722  0.60238  0.53698  1.0000
  C   C763      1.0  0.64289  0.99905  0.42503  1.0000
  C   C764      1.0  0.62153  0.81418  0.67961  1.0000
  C   C765      1.0  0.53521  0.88252  0.66556  1.0000
  H   H1318     1.0  0.53622  0.56294  0.66267  1.0000
  C   C766      1.0  0.53320  0.53617  0.57237  1.0000
  H   H1319     1.0  0.54164  0.01552  0.51337  1.0000
  H   H1320     1.0  0.53689  0.90978  0.66622  1.0000
  H   H1321     1.0  0.52550  0.52746  0.61304  1.0000
  C   C767      1.0  0.64140  0.01795  0.45363  1.0000
  H   H1322     1.0  0.80306  0.77391  0.67572  1.0000
  H   H1323     1.0  0.60027  0.01165  0.60138  1.0000
  C   C768      1.0  0.56875  0.86389  0.66725  1.0000
  H   H1324     1.0  0.52608  0.61891  0.39832  1.0000
  C   C769      1.0  0.65754  0.01069  0.62801  1.0000
  H   H1325     1.0  0.54276  0.56753  0.41551  1.0000
  C   C770      1.0  0.52304  0.70380  0.52348  1.0000
  C   C771      1.0  0.62275  0.67841  0.68055  1.0000
  C   C772      1.0  0.58833  0.90573  0.68658  1.0000
  H   H1326     1.0  0.52616  0.02280  0.65305  1.0000
  H   H1327     1.0  0.83417  0.72202  0.66750  1.0000
  C   C773      1.0  0.54815  0.99676  0.58114  1.0000
  H   H1328     1.0  0.66384  0.53483  0.54648  1.0000
  C   C774      1.0  0.61330  0.02136  0.57623  1.0000
  H   H1329     1.0  0.69896  0.71104  0.68226  1.0000
  H   H1330     1.0  0.68648  0.53240  0.66475  1.0000
  H   H1331     1.0  0.54804  0.02112  0.58772  1.0000
  H   H1332     1.0  0.52401  0.72742  0.65943  1.0000
  C   C775      1.0  0.52639  0.73371  0.67277  1.0000
  C   C776      1.0  0.52346  0.55260  0.60784  1.0000
  Fe  Fe109     1.0  0.90759  0.77304  0.76485  1.0000
  S   S217      1.0  0.93565  0.73406  0.74995  1.0000
  S   S218      1.0  0.91095  0.76793  0.79264  1.0000
  C   C777      1.0  0.55379  0.81998  0.79010  1.0000
  Fe  Fe110     1.0  0.88914  0.72927  0.73584  1.0000
  S   S219      1.0  0.86728  0.68022  0.73093  1.0000
  S   S220      1.0  0.86037  0.76501  0.75218  1.0000
  Fe  Fe111     1.0  0.68476  0.66063  0.72960  1.0000
  S   S221      1.0  0.69069  0.60499  0.72894  1.0000
  S   S222      1.0  0.71590  0.69830  0.71824  1.0000
  Fe  Fe112     1.0  0.62163  0.66265  0.74917  1.0000
  S   S223      1.0  0.62209  0.60733  0.75043  1.0000
  S   S224      1.0  0.58112  0.69444  0.76140  1.0000
  Fe  Fe113     1.0  0.67529  0.61008  0.75577  1.0000
  S   S225      1.0  0.69769  0.57674  0.77519  1.0000
  Fe  Fe114     1.0  0.63699  0.60664  0.72358  1.0000
  S   S226      1.0  0.60647  0.57571  0.70657  1.0000
  S   S227      1.0  0.67376  0.66552  0.75680  1.0000
  S   S228      1.0  0.63245  0.66191  0.72194  1.0000
  Fe  Fe115     1.0  0.91265  0.69484  0.95518  1.0000
  S   S229      1.0  0.96554  0.70448  0.95123  1.0000
  S   S230      1.0  0.88669  0.70605  0.93095  1.0000
  S   S231      1.0  0.00757  0.87875  0.87916  1.0000
  Fe  Fe116     1.0  0.96276  0.72875  0.97631  1.0000
  C   C778      1.0  0.58244  0.85369  0.71451  1.0000
  Fe  Fe117     1.0  0.97553  0.65676  0.96453  1.0000
  H   H1333     1.0  0.60194  0.77006  0.80982  1.0000
  S   S232      1.0  0.92303  0.64519  0.96693  1.0000
  Fe  Fe118     1.0  0.74105  0.68253  0.85038  1.0000
  S   S233      1.0  0.72206  0.72527  0.83545  1.0000
  S   S234      1.0  0.76209  0.63437  0.83979  1.0000
  Fe  Fe119     1.0  0.73123  0.72036  0.88322  1.0000
  S   S235      1.0  0.71051  0.76638  0.87075  1.0000
  S   S236      1.0  0.73817  0.71471  0.91100  1.0000
  Fe  Fe120     1.0  0.68266  0.73103  0.85494  1.0000
  S   S237      1.0  0.63164  0.73417  0.84406  1.0000
  Fe  Fe121     1.0  0.75151  0.75602  0.85250  1.0000
  S   S238      1.0  0.78672  0.79116  0.84200  1.0000
  S   S239      1.0  0.70015  0.68571  0.86885  1.0000
  S   S240      1.0  0.77375  0.71247  0.86592  1.0000
  Fe  Fe122     1.0  0.96401  0.88170  0.86232  1.0000
  S   S241      1.0  0.94162  0.83776  0.87331  1.0000
  S   S242      1.0  0.96820  0.88542  0.83434  1.0000
  Fe  Fe123     1.0  0.97746  0.91271  0.89637  1.0000
  S   S243      1.0  0.95561  0.87091  0.90959  1.0000
  H   H1334     1.0  0.56598  0.91590  0.69293  1.0000
  Fe  Fe124     1.0  0.98253  0.83766  0.89134  1.0000
  H   H1335     1.0  0.78110  0.66381  0.89563  1.0000
  Fe  Fe125     1.0  0.91637  0.87430  0.89046  1.0000
  S   S244      1.0  0.86600  0.86212  0.89833  1.0000
  H   H1336     1.0  0.57851  0.67228  0.84560  1.0000
  S   S245      1.0  0.93559  0.91934  0.87840  1.0000
  C   C779      1.0  0.99021  0.97758  0.92658  1.0000
  H   H1337     1.0  0.54177  0.82412  0.76387  1.0000
  C   C780      1.0  0.95269  0.02416  0.93363  1.0000
  C   C781      1.0  0.72732  0.77947  0.68929  1.0000
  C   C782      1.0  0.60207  0.79594  0.81435  1.0000
  H   H1338     1.0  0.98697  0.69426  0.90958  1.0000
  C   C783      1.0  0.59636  0.74462  0.85600  1.0000
  C   C784      1.0  0.56568  0.74146  0.84869  1.0000
  H   H1339     1.0  0.92522  0.72434  0.84969  1.0000
  C   C785      1.0  0.56934  0.76580  0.88111  1.0000
  C   C786      1.0  0.59812  0.75662  0.87230  1.0000
  H   H1340     1.0  0.56407  0.73206  0.83616  1.0000
  S   S246      1.0  0.91012  0.65766  0.01646  1.0000
  H   H1341     1.0  0.62160  0.75921  0.87808  1.0000
  C   C787      1.0  0.80958  0.80942  0.85780  1.0000
  C   C788      1.0  0.83688  0.82695  0.85364  1.0000
  C   C789      1.0  0.85451  0.84289  0.86604  1.0000
  C   C790      1.0  0.84488  0.84134  0.88268  1.0000
  C   C791      1.0  0.81798  0.82320  0.88688  1.0000
  C   C792      1.0  0.80046  0.80712  0.87447  1.0000
  H   H1342     1.0  0.84436  0.82833  0.84084  1.0000
  H   H1343     1.0  0.87501  0.85710  0.86266  1.0000
  H   H1344     1.0  0.81047  0.82178  0.89972  1.0000
  H   H1345     1.0  0.77946  0.79357  0.87781  1.0000
  C   C793      1.0  0.55592  0.64870  0.69027  1.0000
  C   C794      1.0  0.00967  0.57804  0.96104  1.0000
  Fe  Fe126     1.0  0.94502  0.77532  0.73254  1.0000
  C   C795      1.0  0.97918  0.56770  0.96595  1.0000
  H   H1346     1.0  0.95886  0.58541  0.96718  1.0000
  C   C796      1.0  0.84473  0.71188  0.92706  1.0000
  C   C797      1.0  0.83521  0.72604  0.91196  1.0000
  C   C798      1.0  0.80237  0.72879  0.90745  1.0000
  C   C799      1.0  0.77860  0.71728  0.91799  1.0000
  C   C800      1.0  0.78781  0.70506  0.93363  1.0000
  C   C801      1.0  0.82093  0.70198  0.93811  1.0000
  H   H1347     1.0  0.85328  0.73487  0.90361  1.0000
  H   H1348     1.0  0.79549  0.73983  0.89578  1.0000
  H   H1349     1.0  0.76942  0.69697  0.94207  1.0000
  H   H1350     1.0  0.82805  0.69140  0.94990  1.0000
  C   C802      1.0  0.71583  0.59423  0.79272  1.0000
  C   C803      1.0  0.73447  0.57339  0.80311  1.0000
  C   C804      1.0  0.74889  0.58613  0.81739  1.0000
  C   C805      1.0  0.74413  0.61967  0.82160  1.0000
  C   C806      1.0  0.72548  0.64066  0.81125  1.0000
  C   C807      1.0  0.71167  0.62803  0.79668  1.0000
  H   H1351     1.0  0.00392  0.55652  0.01135  1.0000
  H   H1352     1.0  0.76340  0.56980  0.82529  1.0000
  H   H1353     1.0  0.72198  0.66667  0.81433  1.0000
  H   H1354     1.0  0.69747  0.64432  0.78870  1.0000
  C   C808      1.0  0.56418  0.72448  0.74790  1.0000
  C   C809      1.0  0.58107  0.73286  0.73362  1.0000
  H   H1355     1.0  0.78610  0.75408  0.69286  1.0000
  H   H1356     1.0  0.98911  0.71851  0.88243  1.0000
  H   H1357     1.0  0.00839  0.75272  0.80036  1.0000
  H   H1358     1.0  0.57171  0.83645  0.82351  1.0000
  H   H1359     1.0  0.60560  0.72301  0.73152  1.0000
  H   H1360     1.0  0.84267  0.65435  0.89622  1.0000
  C   C810      1.0  0.53867  0.76298  0.87372  1.0000
  H   H1361     1.0  0.96347  0.73215  0.90933  1.0000
  H   H1362     1.0  0.57487  0.59916  0.79967  1.0000
  S   S247      1.0  0.99517  0.78507  0.72225  1.0000
  C   C811      1.0  0.92674  0.80094  0.80392  1.0000
  C   C812      1.0  0.93139  0.83152  0.79660  1.0000
  C   C813      1.0  0.94421  0.85735  0.80599  1.0000
  C   C814      1.0  0.95264  0.85260  0.82269  1.0000
  C   C815      1.0  0.94882  0.82165  0.82976  1.0000
  C   C816      1.0  0.93541  0.79611  0.82052  1.0000
  H   H1363     1.0  0.92481  0.83543  0.78378  1.0000
  H   H1364     1.0  0.94735  0.88115  0.80038  1.0000
  H   H1365     1.0  0.95692  0.81702  0.84222  1.0000
  H   H1366     1.0  0.93228  0.77237  0.82616  1.0000
  C   C817      1.0  0.82539  0.68502  0.72685  1.0000
  C   C818      1.0  0.80625  0.65732  0.72677  1.0000
  C   C819      1.0  0.77239  0.66119  0.72455  1.0000
  C   C820      1.0  0.75772  0.69277  0.72225  1.0000
  C   C821      1.0  0.77687  0.72039  0.72231  1.0000
  C   C822      1.0  0.81062  0.71655  0.72455  1.0000
  H   H1367     1.0  0.81760  0.63288  0.72855  1.0000
  H   H1368     1.0  0.75774  0.63972  0.72438  1.0000
  H   H1369     1.0  0.76557  0.74488  0.72065  1.0000
  H   H1370     1.0  0.82520  0.73803  0.72436  1.0000
  H   H1371     1.0  0.74592  0.79230  0.69656  1.0000
  S   S248      1.0  0.91934  0.81517  0.74840  1.0000
  C   C823      1.0  0.85626  0.84697  0.94344  1.0000
  N   N58       1.0  0.82080  0.67392  0.78388  1.0000
  C   C824      1.0  0.85170  0.65804  0.77642  1.0000
  C   C825      1.0  0.79675  0.64713  0.78516  1.0000
  C   C826      1.0  0.82888  0.68629  0.80107  1.0000
  C   C827      1.0  0.80905  0.70215  0.77296  1.0000
  C   C828      1.0  0.88145  0.67981  0.77597  1.0000
  C   C829      1.0  0.78800  0.63001  0.76865  1.0000
  C   C830      1.0  0.80055  0.70201  0.81151  1.0000
  C   C831      1.0  0.77242  0.71318  0.77387  1.0000
  H   H1372     1.0  0.85933  0.63500  0.78313  1.0000
  H   H1373     1.0  0.84771  0.65021  0.76330  1.0000
  H   H1374     1.0  0.77353  0.65651  0.79072  1.0000
  H   H1375     1.0  0.80593  0.62741  0.79376  1.0000
  H   H1376     1.0  0.84028  0.66571  0.80848  1.0000
  H   H1377     1.0  0.84708  0.70569  0.80051  1.0000
  H   H1378     1.0  0.82324  0.72433  0.77546  1.0000
  H   H1379     1.0  0.81386  0.69552  0.75972  1.0000
  H   H1380     1.0  0.87547  0.70440  0.77062  1.0000
  H   H1381     1.0  0.89237  0.68282  0.78844  1.0000
  H   H1382     1.0  0.90058  0.66753  0.76790  1.0000
  H   H1383     1.0  0.78013  0.64808  0.75911  1.0000
  H   H1384     1.0  0.80849  0.61372  0.76379  1.0000
  H   H1385     1.0  0.76739  0.61384  0.77076  1.0000
  H   H1386     1.0  0.80986  0.70859  0.82401  1.0000
  H   H1387     1.0  0.78092  0.68483  0.81361  1.0000
  H   H1388     1.0  0.79071  0.72551  0.80614  1.0000
  H   H1389     1.0  0.76989  0.74055  0.77275  1.0000
  H   H1390     1.0  0.75960  0.70699  0.78538  1.0000
  H   H1391     1.0  0.75923  0.70334  0.76298  1.0000
  H   H1392     1.0  0.87968  0.76655  0.95179  1.0000
  C   C832      1.0  0.93309  0.78780  0.93835  1.0000
  H   H1393     1.0  0.61293  0.80223  0.69101  1.0000
  C   C833      1.0  0.56804  0.81039  0.81950  1.0000
  H   H1394     1.0  0.61996  0.90509  0.70885  1.0000
  N   N59       1.0  0.77032  0.61247  0.89839  1.0000
  C   C834      1.0  0.89228  0.82491  0.96601  1.0000
  H   H1395     1.0  0.80058  0.55905  0.92834  1.0000
  H   H1396     1.0  0.80012  0.60293  0.92897  1.0000
  H   H1397     1.0  0.87464  0.89243  0.95454  1.0000
  H   H1398     1.0  0.55876  0.63683  0.85273  1.0000
  S   S249      1.0  0.98368  0.77684  0.98392  1.0000
  C   C835      1.0  0.82031  0.83909  0.70559  1.0000
  S   S250      1.0  0.00521  0.79053  0.90158  1.0000
  H   H1399     1.0  0.99441  0.83788  0.93429  1.0000
  H   H1400     1.0  0.57484  0.80402  0.78568  1.0000
  C   C836      1.0  0.00512  0.77727  0.79443  1.0000
  H   H1401     1.0  0.85713  0.78143  0.93441  1.0000
  H   H1402     1.0  0.59117  0.59984  0.83311  1.0000
  H   H1403     1.0  0.88950  0.88354  0.93345  1.0000
  H   H1404     1.0  0.64137  0.59553  0.84344  1.0000
  C   C837      1.0  0.76363  0.60891  0.88005  1.0000
  C   C838      1.0  0.52884  0.82091  0.77583  1.0000
  H   H1405     1.0  0.85578  0.70014  0.87598  1.0000
  N   N60       1.0  0.82399  0.85424  0.79563  1.0000
  C   C839      1.0  0.84035  0.82033  0.79796  1.0000
  C   C840      1.0  0.84958  0.87904  0.79880  1.0000
  C   C841      1.0  0.81322  0.85598  0.77773  1.0000
  C   C842      1.0  0.79539  0.85816  0.80739  1.0000
  C   C843      1.0  0.81918  0.79040  0.79499  1.0000
  C   C844      1.0  0.86288  0.88047  0.81671  1.0000
  C   C845      1.0  0.79784  0.88921  0.77176  1.0000
  C   C846      1.0  0.78147  0.89383  0.81114  1.0000
  H   H1406     1.0  0.86178  0.81695  0.78954  1.0000
  H   H1407     1.0  0.84983  0.81735  0.81078  1.0000
  H   H1408     1.0  0.84098  0.90460  0.79583  1.0000
  H   H1409     1.0  0.87081  0.87398  0.79033  1.0000
  H   H1410     1.0  0.83415  0.84934  0.76924  1.0000
  H   H1411     1.0  0.79465  0.83762  0.77506  1.0000
  H   H1412     1.0  0.77487  0.84365  0.80278  1.0000
  H   H1413     1.0  0.80192  0.84709  0.81962  1.0000
  H   H1414     1.0  0.83389  0.76761  0.79821  1.0000
  H   H1415     1.0  0.79731  0.79122  0.80309  1.0000
  H   H1416     1.0  0.81225  0.78757  0.78179  1.0000
  H   H1417     1.0  0.87804  0.85798  0.81984  1.0000
  H   H1418     1.0  0.87914  0.90151  0.81787  1.0000
  H   H1419     1.0  0.84334  0.88459  0.82611  1.0000
  H   H1420     1.0  0.77426  0.89553  0.77800  1.0000
  H   H1421     1.0  0.79239  0.88664  0.75830  1.0000
  H   H1422     1.0  0.81445  0.90983  0.77283  1.0000
  H   H1423     1.0  0.75475  0.89515  0.80900  1.0000
  H   H1424     1.0  0.79171  0.91350  0.80370  1.0000
  H   H1425     1.0  0.78484  0.90009  0.82449  1.0000
  N   N61       1.0  0.61562  0.63842  0.82008  1.0000
  C   C847      1.0  0.60480  0.67098  0.81242  1.0000
  C   C848      1.0  0.62437  0.61261  0.80693  1.0000
  C   C849      1.0  0.64522  0.64353  0.83058  1.0000
  C   C850      1.0  0.62887  0.68573  0.80015  1.0000
  H   H1426     1.0  0.86706  0.82119  0.69617  1.0000
  H   H1427     1.0  0.83563  0.84940  0.95239  1.0000
  H   H1428     1.0  0.64678  0.61864  0.80014  1.0000
  H   H1429     1.0  0.63061  0.58818  0.81264  1.0000
  H   H1430     1.0  0.66519  0.65253  0.82291  1.0000
  H   H1431     1.0  0.64098  0.66389  0.83989  1.0000
  H   H1432     1.0  0.61729  0.70861  0.79482  1.0000
  H   H1433     1.0  0.65141  0.69325  0.80636  1.0000
  H   H1434     1.0  0.63495  0.66886  0.78952  1.0000
  H   H1435     1.0  0.81142  0.80062  0.95209  1.0000
  N   N62       1.0  0.93803  0.71949  0.87573  1.0000
  H   H1436     1.0  0.56283  0.73354  0.80697  1.0000
  C   C851      1.0  0.90821  0.70085  0.87977  1.0000
  H   H1437     1.0  0.57912  0.75970  0.71071  1.0000
  C   C852      1.0  0.96443  0.70641  0.90440  1.0000
  H   H1438     1.0  0.01459  0.01848  0.96146  1.0000
  H   H1439     1.0  0.56457  0.62903  0.82338  1.0000
  H   H1440     1.0  0.63619  0.85768  0.69198  1.0000
  H   H1441     1.0  0.55296  0.63075  0.71557  1.0000
  H   H1442     1.0  0.57630  0.87760  0.72103  1.0000
  S   S251      1.0  0.83188  0.83811  0.72678  1.0000
  H   H1443     1.0  0.90214  0.70205  0.89316  1.0000
  H   H1444     1.0  0.91293  0.67387  0.87717  1.0000
  C   C853      1.0  0.94534  0.71364  0.85749  1.0000
  H   H1445     1.0  0.61816  0.79596  0.82541  1.0000
  H   H1446     1.0  0.95364  0.56102  0.00313  1.0000
  H   H1447     1.0  0.54300  0.86635  0.69846  1.0000
  H   H1448     1.0  0.74405  0.60302  0.93214  1.0000
  H   H1449     1.0  0.00680  0.73096  0.74543  1.0000
  H   H1450     1.0  0.52305  0.66294  0.71107  1.0000
  C   C854      1.0  0.73830  0.62205  0.90681  1.0000
  C   C855      1.0  0.97663  0.72850  0.85078  1.0000
  C   C856      1.0  0.00913  0.83162  0.94540  1.0000
  H   H1451     1.0  0.59283  0.62868  0.78605  1.0000
  H   H1452     1.0  0.67766  0.59856  0.83111  1.0000
  S   S252      1.0  0.90078  0.76670  0.71670  1.0000
  C   C857      1.0  0.59779  0.60669  0.79392  1.0000
  H   H1453     1.0  0.60655  0.58610  0.78550  1.0000
  H   H1454     1.0  0.58122  0.66907  0.80581  1.0000
  H   H1455     1.0  0.99902  0.71535  0.85549  1.0000
  C   C858      1.0  0.65994  0.61252  0.83936  1.0000
  C   C859      1.0  0.83193  0.78609  0.95788  1.0000
  H   H1456     1.0  0.67265  0.62028  0.85081  1.0000
  C   C860      1.0  0.86875  0.88210  0.94216  1.0000
  H   H1457     1.0  0.72080  0.75694  0.69592  1.0000
  C   C861      1.0  0.56624  0.75405  0.72196  1.0000
  H   H1458     1.0  0.98386  0.82371  0.77239  1.0000
  H   H1459     1.0  0.84892  0.89865  0.93705  1.0000
  H   H1460     1.0  0.94748  0.99140  0.91240  1.0000
  H   H1461     1.0  0.82462  0.76004  0.95820  1.0000
  C   C862      1.0  0.78859  0.85033  0.70121  1.0000
  C   C863      1.0  0.61735  0.91754  0.69676  1.0000
  C   C864      1.0  0.58785  0.62671  0.83040  1.0000
  H   H1462     1.0  0.92832  0.78769  0.90086  1.0000
  H   H1463     1.0  0.95468  0.79126  0.93037  1.0000
  Fe  Fe127     1.0  0.87439  0.80314  0.73392  1.0000
  C   C865      1.0  0.53695  0.75068  0.85746  1.0000
  H   H1464     1.0  0.73961  0.57960  0.86133  1.0000
  H   H1465     1.0  0.75514  0.63326  0.87487  1.0000
  H   H1466     1.0  0.60908  0.84859  0.71451  1.0000
  H   H1467     1.0  0.92344  0.86697  0.95891  1.0000
  H   H1468     1.0  0.94420  0.83328  0.96972  1.0000
  H   H1469     1.0  0.92196  0.83960  0.93581  1.0000
  C   C866      1.0  0.92083  0.84803  0.96848  1.0000
  C   C867      1.0  0.93316  0.75629  0.87877  1.0000
  Fe  Fe128     1.0  0.92568  0.67387  0.99105  1.0000
  H   H1470     1.0  0.74301  0.55926  0.88082  1.0000
  H   H1471     1.0  0.87790  0.70411  0.85717  1.0000
  H   H1472     1.0  0.77137  0.85804  0.71085  1.0000
  H   H1473     1.0  0.00104  0.79594  0.80452  1.0000
  H   H1474     1.0  0.92311  0.76411  0.93431  1.0000
  C   C868      1.0  0.90799  0.81704  0.93597  1.0000
  H   H1475     1.0  0.84531  0.84082  0.93119  1.0000
  C   C869      1.0  0.00863  0.98511  0.94064  1.0000
  H   H1476     1.0  0.57258  0.83328  0.72178  1.0000
  H   H1477     1.0  0.87154  0.73918  0.87126  1.0000
  N   N63       1.0  0.88057  0.81971  0.94845  1.0000
  H   H1478     1.0  0.94157  0.78567  0.95134  1.0000
  S   S253      1.0  0.90940  0.72261  0.97963  1.0000
  H   H1479     1.0  0.91129  0.74895  0.90410  1.0000
  H   H1480     1.0  0.75606  0.64541  0.92983  1.0000
  H   H1481     1.0  0.61360  0.81153  0.80500  1.0000
  H   H1482     1.0  0.72028  0.60293  0.90466  1.0000
  H   H1483     1.0  0.73787  0.54728  0.80007  1.0000
  C   C870      1.0  0.91463  0.76802  0.89471  1.0000
  H   H1484     1.0  0.89804  0.81498  0.92317  1.0000
  H   H1485     1.0  0.72742  0.64538  0.90144  1.0000
  C   C871      1.0  0.54887  0.65454  0.70895  1.0000
  H   H1486     1.0  0.97740  0.75541  0.85349  1.0000
  H   H1487     1.0  0.83519  0.79428  0.97091  1.0000
  H   H1488     1.0  0.56348  0.84517  0.79122  1.0000
  H   H1489     1.0  0.98303  0.85157  0.74613  1.0000
  H   H1490     1.0  0.80092  0.56778  0.89510  1.0000
  H   H1491     1.0  0.78627  0.60129  0.87309  1.0000
  S   S254      1.0  0.97880  0.68242  0.98915  1.0000
  H   H1492     1.0  0.97226  0.67886  0.88161  1.0000
  C   C872      1.0  0.97476  0.53411  0.96905  1.0000
  H   H1493     1.0  0.97198  0.62575  0.00678  1.0000
  H   H1494     1.0  0.76498  0.56243  0.90684  1.0000
  H   H1495     1.0  0.57774  0.63156  0.68926  1.0000
  H   H1496     1.0  0.91744  0.86157  0.98051  1.0000
  C   C873      1.0  0.87688  0.71204  0.87040  1.0000
  H   H1497     1.0  0.59991  0.69017  0.82220  1.0000
  C   C874      1.0  0.96685  0.70524  0.88533  1.0000
  S   S255      1.0  0.01595  0.61995  0.95687  1.0000
  C   C875      1.0  0.58160  0.64514  0.84711  1.0000
  C   C876      1.0  0.86344  0.78756  0.94752  1.0000
  H   H1498     1.0  0.90083  0.80069  0.97136  1.0000
  H   H1499     1.0  0.87183  0.83450  0.97410  1.0000
  H   H1500     1.0  0.83162  0.57904  0.91780  1.0000
  H   H1501     1.0  0.00870  0.84751  0.79484  1.0000
  H   H1502     1.0  0.71314  0.59343  0.87773  1.0000
  H   H1503     1.0  0.71439  0.63641  0.92999  1.0000
  H   H1504     1.0  0.79830  0.64605  0.91351  1.0000
  H   H1505     1.0  0.57082  0.77529  0.89370  1.0000
  H   H1506     1.0  0.97492  0.72932  0.01710  1.0000
  H   H1507     1.0  0.94713  0.68659  0.85448  1.0000
  C   C877      1.0  0.99977  0.01255  0.95089  1.0000
  C   C878      1.0  0.78461  0.57989  0.90472  1.0000
  H   H1508     1.0  0.95713  0.76780  0.87896  1.0000
  H   H1509     1.0  0.89046  0.77984  0.89156  1.0000
  H   H1510     1.0  0.64192  0.68941  0.68824  1.0000
  H   H1511     1.0  0.70536  0.79662  0.68901  1.0000
  C   C879      1.0  0.80520  0.58113  0.92079  1.0000
  C   C880      1.0  0.01381  0.53076  0.01291  1.0000
  H   H1512     1.0  0.91690  0.54053  0.00543  1.0000
  C   C881      1.0  0.73891  0.62684  0.92577  1.0000
  C   C882      1.0  0.79297  0.64045  0.90036  1.0000
  H   H1513     1.0  0.00651  0.87519  0.76008  1.0000
  C   C883      1.0  0.56740  0.85344  0.69702  1.0000
  H   H1514     1.0  0.56476  0.67261  0.71473  1.0000
  H   H1515     1.0  0.98319  0.77612  0.78652  1.0000
  C   C884      1.0  0.82605  0.63571  0.89134  1.0000
  H   H1516     1.0  0.91960  0.76806  0.86824  1.0000
  H   H1517     1.0  0.83798  0.61090  0.89329  1.0000
  H   H1518     1.0  0.82334  0.64015  0.87783  1.0000
  H   H1519     1.0  0.58973  0.70521  0.69756  1.0000
  H   H1520     1.0  0.60140  0.63957  0.85613  1.0000
  C   C885      1.0  0.96177  0.99679  0.92327  1.0000
  N   N64       1.0  0.54129  0.80930  0.80671  1.0000
  H   H1521     1.0  0.94399  0.69258  0.90924  1.0000
  C   C886      1.0  0.53487  0.76793  0.72480  1.0000
  H   H1522     1.0  0.56255  0.75395  0.78722  1.0000
  H   H1523     1.0  0.56115  0.79748  0.83097  1.0000
  H   H1524     1.0  0.97729  0.72550  0.83704  1.0000
  C   C887      1.0  0.52693  0.77567  0.80605  1.0000
  C   C888      1.0  0.84245  0.82943  0.69302  1.0000
  C   C889      1.0  0.61968  0.55349  0.68857  1.0000
  H   H1525     1.0  0.66948  0.56748  0.68930  1.0000
  H   H1526     1.0  0.99536  0.81378  0.95261  1.0000
  S   S256      1.0  0.00645  0.94734  0.91234  1.0000
  C   C890      1.0  0.73834  0.58369  0.87499  1.0000
  H   H1527     1.0  0.53089  0.71208  0.69671  1.0000
  H   H1528     1.0  0.01118  0.85391  0.95330  1.0000
  C   C891      1.0  0.00607  0.85120  0.75330  1.0000
  H   H1529     1.0  0.52341  0.85999  0.81171  1.0000
  H   H1530     1.0  0.56160  0.82765  0.69370  1.0000
  H   H1531     1.0  0.75318  0.70835  0.68834  1.0000
  C   C892      1.0  0.53322  0.73952  0.75110  1.0000
  C   C893      1.0  0.54734  0.74685  0.79776  1.0000
  H   H1532     1.0  0.00472  0.79879  0.75717  1.0000
  C   C894      1.0  0.00688  0.82133  0.76509  1.0000
  C   C895      1.0  0.94069  0.54445  0.01144  1.0000
  H   H1533     1.0  0.53065  0.72888  0.79234  1.0000
  H   H1534     1.0  0.61351  0.94453  0.69934  1.0000
  H   H1535     1.0  0.64040  0.91427  0.68955  1.0000
  H   H1536     1.0  0.83941  0.73095  0.68892  1.0000
  C   C896      1.0  0.97112  0.62765  0.02015  1.0000
