data_image0
_chemical_formula_structural       HCH6SHNC4HCHC2H3CSH2C2HC2H4SFeS2FeS2FeSFeS3FeS2FeS2FeSFeS3C6H2CH3CH3C3HC4HCH4C6H8CHC2H4CH2NCHCH7CH5CHCHCH4C2N2H4CH3CHCH7C2HC2H2C2H3CNH7CHCH2C4H5CHC2HC3H4CH2CHC2H2C2HCH3CH3CH2NH2CHCH2CHCHCH5CHCH2CNH5CHC2HCH3CSHCHFeSHFeS2FeSFeS3FeS2FeS2FeSFeS3FeS2FeSHFeSFeS3FeS2FeS2FeSFeCS2FeS2FeCFeH2S2FeS2FeHFeHFeHS2HCH3CHCH5SH4C6H6CH2CHCH2C6H4C6H4C6H4C2H3C6H6CNC7H4CNC5H19C3HCH4C3H2CHCH6NC6H13CH6NCHSHCHC4H6CH7CHCH7NH2CHC2H5CH6CSHCH3CH3CNSCH3CHCHCHCH9CHSH2C3HC2H2CH3CH2SHNH2NH5C2HCHCH2CHC2H5CHCNH4C5HC2HCNCH2SH2CHCHC5H3C2H4C2HCHCNH3C2H4FeH9CHCSH2CH3CH3CH2CH2NSFeSCFeSFeSH2FeS2FeS2FeSFeS3HSHSHFeSFeSC2FeS2FeS2FeSFeS3FeS2FeS2FeSFeS3FeS2FeSHFeSFeS3CHSH2CH3CH3C6H4CH2C6H4CH4C2H3C6H4C6H4C6H6CH5C8H4CH2CHC3H2NC8H9CH10CH3C5HSNH2CH2SCH4NC8H20NH3CHNH2CH2C2H3CH8C3H3CH8C2H2CH6CH3C3HC2H2C2H4CH4SH7SCH3C2HNH5CNH2CHC2HC2H2CH2C2H3C2H4CHCH3C2HCH2CH3NCH2C2H3FeCH3C2H2CH3C4HNHCH2CHCHC3H7CFeH2C2FeS2FeS2FeSFeS3FeS2FeS2FeSFeS4HC6H4C3HCHC2H2C6H4C6H4C2H2CHCH2CH2CHSH3CH4CH2CH3C3NCH4CH3CH2CH3CH7C7H4CH2C2H2NH2NC8H20CHCH2CH2CHSCHCHSH4C2H2NCH2C3NH9C2H9C3HCH2NH7C2HCH2FeHCH4C2HC2H9CH2C2H4C2HCH3CHCH4CH2SCH2FeS2FeS2FeSFeHS2FeS2FeSCFeSFeS3C6HCH3SH3CH3C3H2C2H4C6H6NCHC3H3CNHCH6C3HCHCHCH7CH2CH8C2HCH2CH2CH2C2H2C2HC2H2CH3CHCH2CHCHNH3CH5CHC2HCHCH5NH3CH2C2HC2H8C2H5CHCHFeS2FeS2FeSFeS3FeSHFeS2FeSFeS3FeS2FeS2FeSFeS3FeS2FeSCFeHFeS3FeSNFeSHFeSFeS2FeSCFeSHFeSFeS2HCH2C2HC4HC4HC6H4C6H4C3H2C3H2C6H4C6H4C6H4C6H7CH2CH2NC8H8CH6CH9CHCH5CHCHCHCNHSCHCHCH3NH2CHCH3CHCH4CHCHC2H5NHC2HCHCHNH2CH2CH2CHSH8C2H5NC8H20C4H6CH3C2H3CH2C2H2CH5C2H4C3SH2C2H2CH4SH4CH3CHSH3CH2NCHC2H2C2SHCHCH7CH2CHCH4CH2NCH3CHSH4C3H5SH3CH3FeS2FeS2FeSFeS3CSHSHFeSFeSHCFeS2FeS2FeSFeS3HSFeS2FeSFeSHSFeS2FeS2FeHFeS3FeS2FeS2FeSFeS3C2H4C2H2C6H7C2HC6H4C6H5CH8C3NHC3HCH4C7H6NCHC6H4C6H4CH3NC8H23C3SNH7CNC8H21NH3CHNHCHCHCHC2H5C2H6SH3C3H7CHCHC2H4CH2NCH6CNC6H8CH6C2HC2HCH5C2HFeH2CHCNHFeH3CHC2HCHCH7CH2C2H4FeCHC3H6CH2C4SH2CH9CHCH2CH8NH2C2H2CHCHCHCNH2CHSC2H2C2HCH2CH2FeSHFeS2FeSFeS3FeS2FeS2FeHFeS3HSC6H4C3H2NC2H2C6H3C7H5CSH3SH3C2H6NC8H21CH3CHCH2CH12CHCHC2H2CHCHNHC2H5CH3CH2C2H6CHC2H2CH3CHC2HC2HSCH3CH5CH2C2HSC2HCHNHCH2CH2CH2CH3CH2CH9C3H5CHC2H2NH2CHC
_chemical_formula_sum              "H1536 C896 S256 N64 Fe128"
_cell_length_a       50.6584
_cell_length_b       50.6038
_cell_length_c       73.4126
_cell_angle_alpha    90.2714
_cell_angle_beta     90.3842
_cell_angle_gamma    86.9037

_space_group_name_H-M_alt    "P 1"
_space_group_IT_number       1

loop_
  _space_group_symop_operation_xyz
  'x, y, z'

loop_
  _atom_site_type_symbol
  _atom_site_label
  _atom_site_symmetry_multiplicity
  _atom_site_fract_x
  _atom_site_fract_y
  _atom_site_fract_z
  _atom_site_occupancy
  H   H1        1.0  0.08348  0.99823  0.05538  1.0000
  C   C1        1.0  0.01929  0.09231  0.00587  1.0000
  H   H2        1.0  0.02179  0.03145  0.04238  1.0000
  H   H3        1.0  0.01137  0.10469  0.03506  1.0000
  H   H4        1.0  0.02682  0.03882  0.01016  1.0000
  H   H5        1.0  0.14201  0.01649  0.06593  1.0000
  H   H6        1.0  0.04241  0.11248  0.02633  1.0000
  H   H7        1.0  0.08873  0.04661  0.05234  1.0000
  S   S1        1.0  0.09397  0.08104  0.02177  1.0000
  H   H8        1.0  0.12248  0.48481  0.03795  1.0000
  N   N1        1.0  0.99846  0.07207  0.00629  1.0000
  C   C2        1.0  0.08796  0.03437  0.04024  1.0000
  C   C3        1.0  0.08959  0.04625  0.02299  1.0000
  C   C4        1.0  0.08587  0.00250  0.00931  1.0000
  C   C5        1.0  0.02126  0.11094  0.02259  1.0000
  H   H9        1.0  0.03920  0.08230  0.00392  1.0000
  C   C6        1.0  0.01565  0.05115  0.03665  1.0000
  H   H10       1.0  0.17973  0.43241  0.01860  1.0000
  C   C7        1.0  0.08526  0.00685  0.04204  1.0000
  C   C8        1.0  0.10859  0.48749  0.01015  1.0000
  H   H11       1.0  0.01392  0.13137  0.01902  1.0000
  H   H12       1.0  0.17948  0.03160  0.05290  1.0000
  H   H13       1.0  0.19850  0.47349  0.00976  1.0000
  C   C9        1.0  0.08811  0.03013  0.00749  1.0000
  S   S2        1.0  0.11284  0.45246  0.00649  1.0000
  H   H14       1.0  0.03299  0.06347  0.03830  1.0000
  H   H15       1.0  0.13877  0.00624  0.08900  1.0000
  C   C10       1.0  0.14067  0.99900  0.07473  1.0000
  C   C11       1.0  0.00839  0.04760  0.01643  1.0000
  H   H16       1.0  0.19122  0.02579  0.03005  1.0000
  C   C12       1.0  0.17942  0.01760  0.04120  1.0000
  C   C13       1.0  0.18273  0.43566  0.00381  1.0000
  H   H17       1.0  0.15921  0.01724  0.03548  1.0000
  H   H18       1.0  0.16403  0.47436  0.00524  1.0000
  H   H19       1.0  0.99884  0.05908  0.04495  1.0000
  H   H20       1.0  0.20787  0.99432  0.05647  1.0000
  S   S3        1.0  0.07387  0.15238  0.00504  1.0000
  Fe  Fe1       1.0  0.40229  0.05701  0.58988  1.0000
  S   S4        1.0  0.40034  0.07335  0.56163  1.0000
  S   S5        1.0  0.44175  0.05420  0.60391  1.0000
  Fe  Fe2       1.0  0.34313  0.05400  0.59237  1.0000
  S   S6        1.0  0.33654  0.07068  0.56417  1.0000
  S   S7        1.0  0.31180  0.03959  0.61109  1.0000
  Fe  Fe3       1.0  0.37093  0.04199  0.55624  1.0000
  S   S8        1.0  0.37687  0.01616  0.53026  1.0000
  Fe  Fe4       1.0  0.36691  0.10036  0.57212  1.0000
  S   S9        1.0  0.36791  0.14556  0.57624  1.0000
  S   S10       1.0  0.37561  0.02419  0.58409  1.0000
  S   S11       1.0  0.37051  0.08470  0.60080  1.0000
  Fe  Fe5       1.0  0.37773  0.29923  0.55207  1.0000
  S   S12       1.0  0.38680  0.30238  0.58185  1.0000
  S   S13       1.0  0.37170  0.25930  0.53838  1.0000
  Fe  Fe6       1.0  0.38794  0.35915  0.54496  1.0000
  S   S14       1.0  0.39892  0.36558  0.57434  1.0000
  S   S15       1.0  0.39363  0.39013  0.52249  1.0000
  Fe  Fe7       1.0  0.42050  0.32580  0.57297  1.0000
  S   S16       1.0  0.46092  0.31487  0.58379  1.0000
  Fe  Fe8       1.0  0.36405  0.34152  0.58051  1.0000
  S   S17       1.0  0.33488  0.35424  0.60224  1.0000
  S   S18       1.0  0.41306  0.32089  0.54317  1.0000
  S   S19       1.0  0.35154  0.33694  0.55115  1.0000
  C   C14       1.0  0.34764  0.36158  0.62391  1.0000
  C   C15       1.0  0.37352  0.35355  0.62905  1.0000
  C   C16       1.0  0.38343  0.36094  0.64622  1.0000
  C   C17       1.0  0.36770  0.37691  0.65799  1.0000
  C   C18       1.0  0.34178  0.38452  0.65288  1.0000
  C   C19       1.0  0.33165  0.37649  0.63605  1.0000
  H   H21       1.0  0.38598  0.34197  0.61974  1.0000
  H   H22       1.0  0.40359  0.35521  0.65006  1.0000
  C   C20       1.0  0.36425  0.46668  0.53056  1.0000
  H   H23       1.0  0.31159  0.38263  0.63219  1.0000
  H   H24       1.0  0.44796  0.19146  0.56886  1.0000
  H   H25       1.0  0.43908  0.14339  0.57921  1.0000
  C   C21       1.0  0.46682  0.36552  0.59618  1.0000
  H   H26       1.0  0.38993  0.08466  0.65571  1.0000
  H   H27       1.0  0.44775  0.36429  0.60257  1.0000
  H   H28       1.0  0.37116  0.40168  0.59833  1.0000
  C   C22       1.0  0.38603  0.42497  0.52047  1.0000
  C   C23       1.0  0.36998  0.43922  0.53294  1.0000
  C   C24       1.0  0.31558  0.31698  0.66225  1.0000
  H   H29       1.0  0.36156  0.42899  0.54422  1.0000
  C   C25       1.0  0.29709  0.05596  0.63008  1.0000
  C   C26       1.0  0.27879  0.04217  0.63996  1.0000
  C   C27       1.0  0.26713  0.05317  0.65566  1.0000
  C   C28       1.0  0.37439  0.48036  0.51569  1.0000
  H   H30       1.0  0.33182  0.28031  0.59732  1.0000
  C   C29       1.0  0.30371  0.08117  0.63613  1.0000
  H   H31       1.0  0.27350  0.02277  0.63537  1.0000
  H   H32       1.0  0.44432  0.08824  0.63627  1.0000
  H   H33       1.0  0.42291  0.41392  0.59591  1.0000
  H   H34       1.0  0.31752  0.09215  0.62841  1.0000
  C   C30       1.0  0.36920  0.17684  0.56523  1.0000
  C   C31       1.0  0.36982  0.17946  0.54627  1.0000
  C   C32       1.0  0.37048  0.20481  0.53831  1.0000
  C   C33       1.0  0.37063  0.22785  0.54915  1.0000
  C   C34       1.0  0.37033  0.22522  0.56812  1.0000
  C   C35       1.0  0.36963  0.19989  0.57607  1.0000
  H   H35       1.0  0.36943  0.16200  0.53774  1.0000
  H   H36       1.0  0.37068  0.20657  0.52363  1.0000
  H   H37       1.0  0.37039  0.24268  0.57665  1.0000
  H   H38       1.0  0.36913  0.19813  0.59073  1.0000
  H   H39       1.0  0.44161  0.34354  0.49251  1.0000
  H   H40       1.0  0.36939  0.45515  0.57690  1.0000
  H   H41       1.0  0.39977  0.47905  0.60849  1.0000
  H   H42       1.0  0.47822  0.12545  0.52356  1.0000
  C   C36       1.0  0.39047  0.46612  0.50321  1.0000
  H   H43       1.0  0.35517  0.31440  0.65249  1.0000
  C   C37       1.0  0.44040  0.10465  0.59110  1.0000
  C   C38       1.0  0.45637  0.08324  0.59750  1.0000
  H   H44       1.0  0.44416  0.20178  0.52755  1.0000
  H   H45       1.0  0.41920  0.10398  0.59108  1.0000
  H   H46       1.0  0.42613  0.25660  0.55574  1.0000
  H   H47       1.0  0.44110  0.24285  0.60521  1.0000
  C   C39       1.0  0.47621  0.16141  0.63451  1.0000
  H   H48       1.0  0.44327  0.12974  0.52607  1.0000
  H   H49       1.0  0.36693  0.41493  0.62023  1.0000
  N   N2        1.0  0.45884  0.12123  0.65157  1.0000
  C   C40       1.0  0.43657  0.23838  0.59074  1.0000
  H   H50       1.0  0.36831  0.44950  0.63688  1.0000
  C   C41       1.0  0.31720  0.26036  0.65211  1.0000
  H   H51       1.0  0.46100  0.17362  0.64190  1.0000
  H   H52       1.0  0.47533  0.05312  0.64650  1.0000
  H   H53       1.0  0.31075  0.44744  0.47454  1.0000
  H   H54       1.0  0.39239  0.01488  0.66633  1.0000
  H   H55       1.0  0.36389  0.24417  0.63524  1.0000
  H   H56       1.0  0.45814  0.37262  0.55684  1.0000
  H   H57       1.0  0.46648  0.17853  0.53955  1.0000
  C   C42       1.0  0.31801  0.23110  0.64601  1.0000
  H   H58       1.0  0.33547  0.43265  0.58601  1.0000
  H   H59       1.0  0.45614  0.37108  0.48271  1.0000
  H   H60       1.0  0.25278  0.04226  0.66295  1.0000
  H   H61       1.0  0.45584  0.27236  0.55552  1.0000
  H   H62       1.0  0.46003  0.12664  0.62228  1.0000
  C   C43       1.0  0.32876  0.26932  0.61015  1.0000
  H   H63       1.0  0.40939  0.39132  0.62189  1.0000
  C   C44       1.0  0.43199  0.13476  0.65485  1.0000
  H   H64       1.0  0.44448  0.27458  0.52517  1.0000
  C   C45       1.0  0.41723  0.41101  0.62442  1.0000
  H   H65       1.0  0.40702  0.42041  0.63622  1.0000
  H   H66       1.0  0.43832  0.40748  0.62836  1.0000
  H   H67       1.0  0.33515  0.21973  0.65219  1.0000
  H   H68       1.0  0.43254  0.04007  0.53391  1.0000
  C   C46       1.0  0.37969  0.46595  0.63181  1.0000
  C   C47       1.0  0.39619  0.43866  0.50560  1.0000
  N   N3        1.0  0.46032  0.22974  0.55992  1.0000
  N   N4        1.0  0.38826  0.43967  0.60166  1.0000
  H   H69       1.0  0.40821  0.46183  0.55872  1.0000
  H   H70       1.0  0.33251  0.44909  0.60810  1.0000
  H   H71       1.0  0.43882  0.08335  0.53355  1.0000
  H   H72       1.0  0.39354  0.14490  0.64248  1.0000
  C   C48       1.0  0.48032  0.38904  0.59723  1.0000
  H   H73       1.0  0.42988  0.44316  0.60812  1.0000
  H   H74       1.0  0.34448  0.25334  0.61011  1.0000
  H   H75       1.0  0.35278  0.11967  0.65957  1.0000
  C   C49       1.0  0.39007  0.03439  0.65956  1.0000
  H   H76       1.0  0.42565  0.21995  0.59058  1.0000
  C   C50       1.0  0.41076  0.45997  0.57372  1.0000
  H   H77       1.0  0.30671  0.32680  0.65003  1.0000
  H   H78       1.0  0.35903  0.07743  0.64594  1.0000
  H   H79       1.0  0.44281  0.08428  0.66009  1.0000
  H   H80       1.0  0.42686  0.24466  0.52532  1.0000
  H   H81       1.0  0.29680  0.11176  0.65667  1.0000
  H   H82       1.0  0.47189  0.40600  0.60452  1.0000
  H   H83       1.0  0.31832  0.22857  0.63106  1.0000
  C   C51       1.0  0.45900  0.36936  0.51257  1.0000
  C   C52       1.0  0.38315  0.46607  0.61095  1.0000
  H   H84       1.0  0.46661  0.04383  0.50905  1.0000
  C   C53       1.0  0.44693  0.25376  0.55103  1.0000
  C   C54       1.0  0.45528  0.09199  0.64911  1.0000
  H   H85       1.0  0.49102  0.12138  0.63235  1.0000
  H   H86       1.0  0.30001  0.22192  0.65105  1.0000
  C   C55       1.0  0.44380  0.20591  0.55767  1.0000
  C   C56       1.0  0.27386  0.07801  0.66200  1.0000
  H   H87       1.0  0.36783  0.48407  0.63598  1.0000
  H   H88       1.0  0.32485  0.41534  0.60535  1.0000
  H   H89       1.0  0.33490  0.04243  0.65484  1.0000
  C   C57       1.0  0.36453  0.26196  0.64403  1.0000
  N   N5        1.0  0.33822  0.27741  0.64467  1.0000
  H   H90       1.0  0.38847  0.42497  0.57382  1.0000
  H   H91       1.0  0.45755  0.02264  0.54775  1.0000
  H   H92       1.0  0.30909  0.26067  0.60937  1.0000
  H   H93       1.0  0.44485  0.35913  0.52129  1.0000
  H   H94       1.0  0.32959  0.39694  0.66187  1.0000
  H   H95       1.0  0.36586  0.47744  0.60485  1.0000
  H   H96       1.0  0.29708  0.26906  0.64878  1.0000
  C   C58       1.0  0.38798  0.44422  0.58131  1.0000
  H   H97       1.0  0.46245  0.24413  0.52323  1.0000
  C   C59       1.0  0.44700  0.18968  0.53994  1.0000
  H   H98       1.0  0.39827  0.47617  0.49162  1.0000
  H   H99       1.0  0.47519  0.21940  0.58688  1.0000
  C   C60       1.0  0.33020  0.28872  0.62635  1.0000
  C   C61       1.0  0.45170  0.12726  0.58457  1.0000
  C   C62       1.0  0.36709  0.42069  0.60570  1.0000
  C   C63       1.0  0.46277  0.23541  0.58007  1.0000
  H   H100      1.0  0.45160  0.08713  0.51155  1.0000
  H   H101      1.0  0.46291  0.12127  0.54553  1.0000
  H   H102      1.0  0.43367  0.15505  0.66050  1.0000
  H   H103      1.0  0.31022  0.29889  0.62705  1.0000
  H   H104      1.0  0.44032  0.39649  0.54265  1.0000
  C   C64       1.0  0.41522  0.42760  0.60685  1.0000
  H   H105      1.0  0.47655  0.34294  0.49038  1.0000
  C   C65       1.0  0.32879  0.45873  0.47591  1.0000
  C   C66       1.0  0.45150  0.02809  0.53365  1.0000
  H   H106      1.0  0.33992  0.45056  0.48791  1.0000
  C   C67       1.0  0.29216  0.09216  0.65219  1.0000
  C   C68       1.0  0.44515  0.25382  0.53005  1.0000
  C   C69       1.0  0.38379  0.02867  0.63935  1.0000
  H   H107      1.0  0.42359  0.25507  0.58566  1.0000
  H   H108      1.0  0.42047  0.15073  0.62777  1.0000
  H   H109      1.0  0.38447  0.04661  0.63082  1.0000
  H   H110      1.0  0.34297  0.30485  0.62233  1.0000
  C   C70       1.0  0.33853  0.43045  0.60090  1.0000
  H   H111      1.0  0.40842  0.42789  0.49574  1.0000
  H   H112      1.0  0.43043  0.44976  0.57600  1.0000
  C   C71       1.0  0.34114  0.30022  0.65777  1.0000
  H   H113      1.0  0.39362  0.29266  0.64747  1.0000
  C   C72       1.0  0.45699  0.08840  0.52624  1.0000
  C   C73       1.0  0.47911  0.12863  0.58451  1.0000
  H   H114      1.0  0.41057  0.11741  0.63157  1.0000
  H   H115      1.0  0.44996  0.38972  0.51052  1.0000
  C   C74       1.0  0.38817  0.27733  0.63747  1.0000
  C   C75       1.0  0.48308  0.06855  0.55132  1.0000
  H   H116      1.0  0.46138  0.40708  0.56039  1.0000
  C   C76       1.0  0.45901  0.35595  0.49356  1.0000
  H   H117      1.0  0.42246  0.21177  0.55889  1.0000
  H   H118      1.0  0.42121  0.12424  0.66556  1.0000
  H   H119      1.0  0.38453  0.28635  0.62390  1.0000
  C   C77       1.0  0.45930  0.39167  0.54973  1.0000
  H   H120      1.0  0.40573  0.26335  0.63620  1.0000
  H   H121      1.0  0.39912  0.01427  0.63388  1.0000
  H   H122      1.0  0.34180  0.45504  0.46396  1.0000
  C   C78       1.0  0.47820  0.34350  0.58693  1.0000
  H   H123      1.0  0.46260  0.48182  0.50123  1.0000
  H   H124      1.0  0.39914  0.46580  0.63891  1.0000
  N   N6        1.0  0.48522  0.37079  0.52227  1.0000
  H   H125      1.0  0.36446  0.01966  0.63752  1.0000
  H   H126      1.0  0.35163  0.47737  0.54023  1.0000
  C   C79       1.0  0.46105  0.11774  0.53069  1.0000
  H   H127      1.0  0.44751  0.00943  0.52637  1.0000
  C   C80       1.0  0.47328  0.04222  0.52351  1.0000
  H   H128      1.0  0.48978  0.09670  0.49753  1.0000
  H   H129      1.0  0.41015  0.04237  0.66010  1.0000
  C   C81       1.0  0.47664  0.12645  0.66753  1.0000
  H   H130      1.0  0.43168  0.17476  0.53964  1.0000
  C   C82       1.0  0.41335  0.13687  0.63810  1.0000
  H   H131      1.0  0.47767  0.34071  0.54236  1.0000
  C   C83       1.0  0.36962  0.07906  0.65921  1.0000
  H   H132      1.0  0.31558  0.47636  0.44365  1.0000
  H   H133      1.0  0.47293  0.25408  0.58252  1.0000
  H   H134      1.0  0.46413  0.06537  0.55840  1.0000
  H   H135      1.0  0.27352  0.48478  0.48306  1.0000
  H   H136      1.0  0.48062  0.41231  0.53021  1.0000
  C   C84       1.0  0.48381  0.08503  0.59821  1.0000
  H   H137      1.0  0.27615  0.47059  0.46089  1.0000
  C   C85       1.0  0.47135  0.13154  0.63468  1.0000
  H   H138      1.0  0.47756  0.31421  0.51455  1.0000
  H   H139      1.0  0.47541  0.16858  0.62020  1.0000
  C   C86       1.0  0.48082  0.07393  0.64839  1.0000
  N   N7        1.0  0.47967  0.06902  0.53094  1.0000
  H   H140      1.0  0.48850  0.08828  0.55635  1.0000
  H   H141      1.0  0.41057  0.48038  0.57927  1.0000
  H   H142      1.0  0.23658  0.49335  0.45695  1.0000
  H   H143      1.0  0.49115  0.02846  0.52300  1.0000
  H   H144      1.0  0.36967  0.25393  0.65775  1.0000
  C   C87       1.0  0.48290  0.39244  0.53655  1.0000
  H   H145      1.0  0.48389  0.40661  0.49314  1.0000
  C   C88       1.0  0.32256  0.48863  0.47897  1.0000
  C   C89       1.0  0.34298  0.04302  0.66891  1.0000
  H   H146      1.0  0.49335  0.07844  0.63666  1.0000
  C   C90       1.0  0.27639  0.48973  0.46844  1.0000
  H   H147      1.0  0.31584  0.49061  0.49335  1.0000
  H   H148      1.0  0.44855  0.49264  0.48027  1.0000
  H   H149      1.0  0.48802  0.21746  0.53840  1.0000
  C   C91       1.0  0.48794  0.22375  0.55286  1.0000
  S   S20       1.0  0.49265  0.15610  0.57471  1.0000
  H   H150      1.0  0.31829  0.25967  0.66730  1.0000
  C   C92       1.0  0.49275  0.34535  0.53214  1.0000
  H   H151      1.0  0.49265  0.07457  0.66114  1.0000
  Fe  Fe9       1.0  0.38725  0.36020  0.70041  1.0000
  S   S21       1.0  0.39568  0.36954  0.72998  1.0000
  H   H152      1.0  0.07578  0.36926  0.89784  1.0000
  Fe  Fe10      1.0  0.38913  0.30196  0.70645  1.0000
  S   S22       1.0  0.39754  0.30626  0.73613  1.0000
  S   S23       1.0  0.38789  0.26195  0.69342  1.0000
  Fe  Fe11      1.0  0.36555  0.33909  0.73594  1.0000
  S   S24       1.0  0.33731  0.33707  0.76045  1.0000
  Fe  Fe12      1.0  0.42671  0.33580  0.72763  1.0000
  S   S25       1.0  0.46756  0.32874  0.74085  1.0000
  S   S26       1.0  0.35534  0.33250  0.70644  1.0000
  S   S27       1.0  0.42010  0.32894  0.69783  1.0000
  Fe  Fe13      1.0  0.18453  0.34988  0.79676  1.0000
  S   S28       1.0  0.19572  0.31211  0.81143  1.0000
  S   S29       1.0  0.21473  0.36741  0.77746  1.0000
  Fe  Fe14      1.0  0.12454  0.34745  0.80783  1.0000
  S   S30       1.0  0.13321  0.30879  0.82187  1.0000
  S   S31       1.0  0.08254  0.36457  0.81423  1.0000
  Fe  Fe15      1.0  0.16852  0.32757  0.83375  1.0000
  S   S32       1.0  0.17272  0.31883  0.86397  1.0000
  Fe  Fe16      1.0  0.15918  0.29802  0.79820  1.0000
  S   S33       1.0  0.16133  0.25868  0.78404  1.0000
  S   S34       1.0  0.15974  0.36690  0.82035  1.0000
  S   S35       1.0  0.14812  0.33502  0.78285  1.0000
  Fe  Fe17      1.0  0.28652  0.17007  0.71838  1.0000
  S   S36       1.0  0.30449  0.15355  0.74427  1.0000
  S   S37       1.0  0.28055  0.21423  0.71595  1.0000
  Fe  Fe18      1.0  0.27634  0.11614  0.70282  1.0000
  S   S38       1.0  0.29311  0.09577  0.72769  1.0000
  H   H153      1.0  0.46597  0.10694  0.72631  1.0000
  Fe  Fe19      1.0  0.26974  0.12726  0.74364  1.0000
  S   S39       1.0  0.24461  0.11894  0.76872  1.0000
  Fe  Fe20      1.0  0.32605  0.12405  0.72566  1.0000
  S   S40       1.0  0.36882  0.10655  0.72416  1.0000
  S   S41       1.0  0.25096  0.14565  0.71885  1.0000
  S   S42       1.0  0.31004  0.14250  0.69974  1.0000
  Fe  Fe21      1.0  0.05223  0.18472  0.79629  1.0000
  S   S43       1.0  0.04758  0.14523  0.78325  1.0000
  S   S44       1.0  0.04517  0.22368  0.78226  1.0000
  Fe  Fe22      1.0  0.06917  0.16120  0.83294  1.0000
  S   S45       1.0  0.06677  0.11961  0.82252  1.0000
  S   S46       1.0  0.07566  0.17791  0.86108  1.0000
  Fe  Fe23      1.0  0.08684  0.13448  0.79715  1.0000
  S   S47       1.0  0.12002  0.11543  0.77937  1.0000
  Fe  Fe24      1.0  0.02802  0.13461  0.80958  1.0000
  C   C93       1.0  0.23094  0.47371  0.96089  1.0000
  S   S48       1.0  0.09175  0.17479  0.80900  1.0000
  S   S49       1.0  0.03000  0.17533  0.82132  1.0000
  Fe  Fe25      1.0  0.09821  0.12651  0.95811  1.0000
  S   S50       1.0  0.12525  0.12874  0.98249  1.0000
  S   S51       1.0  0.11210  0.11153  0.93046  1.0000
  Fe  Fe26      1.0  0.05079  0.14752  0.97920  1.0000
  C   C94       1.0  0.45995  0.26269  0.71579  1.0000
  Fe  Fe27      1.0  0.10462  0.16902  0.98695  1.0000
  H   H154      1.0  0.17614  0.11333  0.72515  1.0000
  H   H155      1.0  0.16585  0.42697  0.99677  1.0000
  S   S52       1.0  0.07967  0.16735  0.96186  1.0000
  S   S53       1.0  0.06717  0.10614  0.97358  1.0000
  Fe  Fe28      1.0  0.12946  0.40357  0.94596  1.0000
  S   S54       1.0  0.13530  0.38989  0.97497  1.0000
  S   S55       1.0  0.16092  0.40873  0.92477  1.0000
  Fe  Fe29      1.0  0.07036  0.41155  0.95024  1.0000
  H   H156      1.0  0.03191  0.28049  0.80230  1.0000
  Fe  Fe30      1.0  0.10667  0.42470  0.98192  1.0000
  H   H157      1.0  0.29463  0.36497  0.73909  1.0000
  Fe  Fe31      1.0  0.09948  0.36579  0.96983  1.0000
  H   H158      1.0  0.36269  0.06606  0.69698  1.0000
  S   S56       1.0  0.10306  0.43929  0.95316  1.0000
  S   S57       1.0  0.09628  0.37746  0.94033  1.0000
  H   H159      1.0  0.03377  0.05942  0.97736  1.0000
  C   C95       1.0  0.33897  0.01596  0.67765  1.0000
  H   H160      1.0  0.04433  0.36923  0.95065  1.0000
  H   H161      1.0  0.26727  0.31323  0.72565  1.0000
  H   H162      1.0  0.42480  0.17541  0.74917  1.0000
  C   C96       1.0  0.25786  0.28264  0.75598  1.0000
  H   H163      1.0  0.02054  0.46560  0.97262  1.0000
  C   C97       1.0  0.16598  0.47446  0.94923  1.0000
  H   H164      1.0  0.25510  0.25500  0.77898  1.0000
  H   H165      1.0  0.99625  0.21289  0.99117  1.0000
  H   H166      1.0  0.46802  0.23264  0.68244  1.0000
  H   H167      1.0  0.24071  0.49053  0.96737  1.0000
  H   H168      1.0  0.47867  0.38277  0.77463  1.0000
  S   S58       1.0  0.25745  0.09068  0.68162  1.0000
  H   H169      1.0  0.02131  0.24666  0.82278  1.0000
  H   H170      1.0  0.02693  0.12031  0.95103  1.0000
  H   H171      1.0  0.21975  0.48098  0.94878  1.0000
  H   H172      1.0  0.01824  0.02844  0.98108  1.0000
  C   C98       1.0  0.08462  0.15788  0.87979  1.0000
  C   C99       1.0  0.07686  0.16668  0.89713  1.0000
  C   C100      1.0  0.08455  0.15208  0.91260  1.0000
  C   C101      1.0  0.10084  0.12906  0.91098  1.0000
  C   C102      1.0  0.10849  0.12011  0.89356  1.0000
  C   C103      1.0  0.10014  0.13435  0.87793  1.0000
  H   H173      1.0  0.06465  0.18476  0.89863  1.0000
  H   H174      1.0  0.07771  0.15865  0.92574  1.0000
  H   H175      1.0  0.12101  0.10220  0.89218  1.0000
  H   H176      1.0  0.10633  0.12753  0.86455  1.0000
  H   H177      1.0  0.45473  0.21122  0.74572  1.0000
  H   H178      1.0  0.36018  0.38718  0.77954  1.0000
  C   C104      1.0  0.03654  0.30431  0.85888  1.0000
  H   H179      1.0  0.17317  0.23999  0.92087  1.0000
  H   H180      1.0  0.04367  0.31121  0.87232  1.0000
  C   C105      1.0  0.39913  0.12145  0.72922  1.0000
  H   H181      1.0  0.01803  0.07166  0.86282  1.0000
  C   C106      1.0  0.39996  0.14625  0.73765  1.0000
  H   H182      1.0  0.42284  0.08812  0.71883  1.0000
  H   H183      1.0  0.38170  0.15707  0.74119  1.0000
  C   C107      1.0  0.20969  0.12197  0.77221  1.0000
  C   C108      1.0  0.19195  0.13429  0.75974  1.0000
  C   C109      1.0  0.16431  0.13440  0.76275  1.0000
  C   C110      1.0  0.15408  0.12276  0.77843  1.0000
  C   C111      1.0  0.17198  0.11153  0.79120  1.0000
  C   C112      1.0  0.19945  0.11117  0.78811  1.0000
  H   H184      1.0  0.19945  0.14306  0.74753  1.0000
  H   H185      1.0  0.15076  0.14261  0.75254  1.0000
  H   H186      1.0  0.16456  0.10165  0.80300  1.0000
  H   H187      1.0  0.21284  0.10151  0.79785  1.0000
  C   C113      1.0  0.16363  0.38385  0.90776  1.0000
  C   C114      1.0  0.17219  0.39011  0.89022  1.0000
  C   C115      1.0  0.17448  0.37052  0.87652  1.0000
  C   C116      1.0  0.16898  0.34436  0.88045  1.0000
  C   C117      1.0  0.16064  0.33809  0.89805  1.0000
  C   C118      1.0  0.15758  0.35780  0.91156  1.0000
  H   H188      1.0  0.17702  0.41018  0.88719  1.0000
  H   H189      1.0  0.18113  0.37552  0.86305  1.0000
  H   H190      1.0  0.15647  0.31790  0.90123  1.0000
  H   H191      1.0  0.15118  0.35271  0.92507  1.0000
  C   C119      1.0  0.12897  0.24998  0.77946  1.0000
  C   C120      1.0  0.10792  0.26897  0.78073  1.0000
  C   C121      1.0  0.08179  0.26127  0.77944  1.0000
  C   C122      1.0  0.07677  0.23448  0.77767  1.0000
  C   C123      1.0  0.09783  0.21584  0.77499  1.0000
  C   C124      1.0  0.12395  0.22359  0.77583  1.0000
  H   H192      1.0  0.11167  0.28952  0.78316  1.0000
  H   H193      1.0  0.06561  0.27592  0.78092  1.0000
  H   H194      1.0  0.09399  0.19525  0.77279  1.0000
  H   H195      1.0  0.14014  0.20891  0.77444  1.0000
  C   C125      1.0  0.05129  0.35516  0.80565  1.0000
  C   C126      1.0  0.09019  0.37011  0.88648  1.0000
  H   H196      1.0  0.43615  0.36718  0.76292  1.0000
  H   H197      1.0  0.06648  0.33275  0.78266  1.0000
  H   H198      1.0  0.02946  0.37630  0.82679  1.0000
  C   C127      1.0  0.35826  0.24843  0.69972  1.0000
  C   C128      1.0  0.35168  0.22385  0.69281  1.0000
  C   C129      1.0  0.32765  0.21335  0.69764  1.0000
  C   C130      1.0  0.31017  0.22751  0.70924  1.0000
  C   C131      1.0  0.31663  0.25228  0.71586  1.0000
  C   C132      1.0  0.34082  0.26252  0.71134  1.0000
  H   H199      1.0  0.36513  0.21287  0.68383  1.0000
  H   H200      1.0  0.32253  0.19449  0.69218  1.0000
  H   H201      1.0  0.30336  0.26326  0.72492  1.0000
  H   H202      1.0  0.34606  0.28112  0.71716  1.0000
  H   H203      1.0  0.13958  0.05399  0.72798  1.0000
  H   H204      1.0  0.06324  0.05905  0.86685  1.0000
  C   C133      1.0  0.41370  0.30283  0.79260  1.0000
  N   N8        1.0  0.20668  0.19342  0.81214  1.0000
  C   C134      1.0  0.17737  0.09674  0.71512  1.0000
  C   C135      1.0  0.30286  0.34489  0.76442  1.0000
  C   C136      1.0  0.29173  0.33723  0.78101  1.0000
  C   C137      1.0  0.26479  0.34335  0.78506  1.0000
  C   C138      1.0  0.24857  0.35775  0.77268  1.0000
  C   C139      1.0  0.25969  0.36533  0.75606  1.0000
  C   C140      1.0  0.28651  0.35876  0.75187  1.0000
  H   H205      1.0  0.30408  0.32659  0.79090  1.0000
  H   H206      1.0  0.25675  0.33753  0.79795  1.0000
  H   H207      1.0  0.24748  0.37658  0.74639  1.0000
  H   H208      1.0  0.15603  0.28012  0.93834  1.0000
  C   C141      1.0  0.02558  0.26560  0.82981  1.0000
  N   N9        1.0  0.23214  0.27924  0.74590  1.0000
  C   C142      1.0  0.22374  0.25154  0.74950  1.0000
  C   C143      1.0  0.21201  0.29971  0.75308  1.0000
  C   C144      1.0  0.25797  0.27620  0.77651  1.0000
  C   C145      1.0  0.20439  0.23969  0.73580  1.0000
  C   C146      1.0  0.18510  0.30272  0.74316  1.0000
  H   H209      1.0  0.22022  0.27905  0.71727  1.0000
  H   H210      1.0  0.21451  0.25044  0.76318  1.0000
  H   H211      1.0  0.20715  0.29552  0.76750  1.0000
  H   H212      1.0  0.22021  0.31963  0.75388  1.0000
  H   H213      1.0  0.27766  0.28036  0.78228  1.0000
  H   H214      1.0  0.24318  0.28873  0.78413  1.0000
  H   H215      1.0  0.23322  0.32640  0.72470  1.0000
  H   H216      1.0  0.19792  0.22067  0.74128  1.0000
  H   H217      1.0  0.21424  0.23495  0.72261  1.0000
  H   H218      1.0  0.18634  0.25248  0.73349  1.0000
  H   H219      1.0  0.17066  0.28962  0.74926  1.0000
  H   H220      1.0  0.18605  0.29928  0.72833  1.0000
  H   H221      1.0  0.17716  0.32353  0.74463  1.0000
  H   H222      1.0  0.45639  0.27641  0.72752  1.0000
  H   H223      1.0  0.39270  0.30437  0.78821  1.0000
  H   H224      1.0  0.42185  0.28335  0.78753  1.0000
  H   H225      1.0  0.17043  0.05134  0.70198  1.0000
  H   H226      1.0  0.20946  0.11613  0.70109  1.0000
  H   H227      1.0  0.39455  0.07324  0.68896  1.0000
  C   C147      1.0  0.46791  0.11532  0.68588  1.0000
  C   C148      1.0  0.14576  0.06628  0.73963  1.0000
  C   C149      1.0  0.20373  0.19063  0.79171  1.0000
  H   H228      1.0  0.99742  0.40641  0.99585  1.0000
  C   C150      1.0  0.44916  0.23069  0.73933  1.0000
  H   H229      1.0  0.03859  0.36000  0.88062  1.0000
  H   H230      1.0  0.00389  0.08476  0.93532  1.0000
  H   H231      1.0  0.02901  0.39435  0.88526  1.0000
  H   H232      1.0  0.15661  0.09343  0.71102  1.0000
  C   C151      1.0  0.13081  0.21022  0.89346  1.0000
  C   C152      1.0  0.15088  0.25987  0.94230  1.0000
  C   C153      1.0  0.01239  0.39366  0.93904  1.0000
  H   H233      1.0  0.24591  0.04266  0.72865  1.0000
  H   H234      1.0  0.03320  0.22314  0.87598  1.0000
  C   C154      1.0  0.44771  0.11821  0.72916  1.0000
  H   H235      1.0  0.07113  0.23651  0.85939  1.0000
  C   C155      1.0  0.19060  0.10702  0.69783  1.0000
  H   H236      1.0  0.12502  0.39520  0.86767  1.0000
  H   H237      1.0  0.01076  0.24398  0.86318  1.0000
  H   H238      1.0  0.38517  0.39615  0.79547  1.0000
  H   H239      1.0  0.03587  0.25793  0.87781  1.0000
  H   H240      1.0  0.18297  0.20953  0.83455  1.0000
  H   H241      1.0  0.07533  0.22681  0.92224  1.0000
  N   N10       1.0  0.08334  0.39267  0.87369  1.0000
  C   C156      1.0  0.05826  0.38836  0.86313  1.0000
  C   C157      1.0  0.10574  0.39452  0.86043  1.0000
  C   C158      1.0  0.41890  0.23197  0.73641  1.0000
  C   C159      1.0  0.03465  0.37977  0.87445  1.0000
  C   C160      1.0  0.10338  0.41806  0.84716  1.0000
  C   C161      1.0  0.09408  0.34244  0.87757  1.0000
  H   H242      1.0  0.09802  0.44624  0.90202  1.0000
  H   H243      1.0  0.06170  0.37364  0.85199  1.0000
  H   H244      1.0  0.05130  0.40677  0.85591  1.0000
  H   H245      1.0  0.19170  0.00700  0.70621  1.0000
  H   H246      1.0  0.02698  0.14444  0.91947  1.0000
  H   H247      1.0  0.24134  0.23726  0.74967  1.0000
  H   H248      1.0  0.48171  0.36893  0.71446  1.0000
  H   H249      1.0  0.01721  0.37833  0.86531  1.0000
  H   H250      1.0  0.18247  0.46404  0.94185  1.0000
  H   H251      1.0  0.20136  0.42460  1.00000  1.0000
  H   H252      1.0  0.10326  0.43737  0.85435  1.0000
  H   H253      1.0  0.08574  0.41719  0.83820  1.0000
  H   H254      1.0  0.27414  0.26998  0.74979  1.0000
  C   C162      1.0  0.09824  0.29153  0.97864  1.0000
  H   H255      1.0  0.13728  0.30202  0.98656  1.0000
  H   H256      1.0  0.01603  0.10552  0.99388  1.0000
  H   H257      1.0  0.17748  0.12285  0.69161  1.0000
  H   H258      1.0  0.02210  0.32185  0.77104  1.0000
  H   H259      1.0  0.39027  0.39883  0.77111  1.0000
  H   H260      1.0  0.25590  0.16451  0.82146  1.0000
  N   N11       1.0  0.01329  0.10544  0.88112  1.0000
  C   C163      1.0  0.47333  0.21454  0.69042  1.0000
  H   H261      1.0  0.43072  0.32112  0.76953  1.0000
  S   S59       1.0  0.47896  0.15705  0.74373  1.0000
  H   H262      1.0  0.41552  0.30218  0.80765  1.0000
  C   C164      1.0  0.13317  0.25966  0.98850  1.0000
  H   H263      1.0  0.24693  0.45959  0.95597  1.0000
  C   C165      1.0  0.12424  0.28600  0.98462  1.0000
  C   C166      1.0  0.23767  0.28265  0.72590  1.0000
  C   C167      1.0  0.02805  0.36396  0.81483  1.0000
  C   C168      1.0  0.14497  0.19875  0.91054  1.0000
  H   H264      1.0  0.20863  0.01702  0.72618  1.0000
  H   H265      1.0  0.26401  0.30334  0.75494  1.0000
  H   H266      1.0  0.40813  0.34649  0.83447  1.0000
  H   H267      1.0  0.03273  0.30571  0.81970  1.0000
  H   H268      1.0  0.24839  0.31076  0.70527  1.0000
  H   H269      1.0  0.22421  0.18595  0.76585  1.0000
  C   C169      1.0  0.05920  0.28781  0.84936  1.0000
  H   H270      1.0  0.06825  0.30155  0.83962  1.0000
  H   H271      1.0  0.18306  0.04813  0.74753  1.0000
  H   H272      1.0  0.23728  0.21076  0.78008  1.0000
  H   H273      1.0  0.25294  0.26740  0.72132  1.0000
  H   H274      1.0  0.15784  0.17065  0.82642  1.0000
  H   H275      1.0  0.35535  0.00113  0.67515  1.0000
  H   H276      1.0  0.14177  0.25284  0.91431  1.0000
  C   C170      1.0  0.01564  0.14073  0.90679  1.0000
  H   H277      1.0  0.19407  0.09138  0.68736  1.0000
  C   C171      1.0  0.24714  0.30994  0.72035  1.0000
  H   H278      1.0  0.45057  0.32034  0.78959  1.0000
  H   H279      1.0  0.18052  0.20207  0.93897  1.0000
  H   H280      1.0  0.08930  0.03884  0.99411  1.0000
  H   H281      1.0  0.10063  0.24624  0.91369  1.0000
  H   H282      1.0  0.41230  0.02832  0.69351  1.0000
  H   H283      1.0  0.41183  0.24995  0.72897  1.0000
  H   H284      1.0  0.33540  0.01812  0.69251  1.0000
  N   N12       1.0  0.18842  0.47387  0.98099  1.0000
  H   H285      1.0  0.11494  0.33850  0.87339  1.0000
  H   H286      1.0  0.14763  0.46859  0.94234  1.0000
  C   C172      1.0  0.19078  0.02129  0.71777  1.0000
  H   H287      1.0  0.13502  0.19651  0.88183  1.0000
  C   C173      1.0  0.01802  0.24751  0.98867  1.0000
  C   C174      1.0  0.23568  0.05671  0.73829  1.0000
  H   H288      1.0  0.38685  0.37027  0.82342  1.0000
  H   H289      1.0  0.24084  0.14493  0.80371  1.0000
  H   H290      1.0  0.10907  0.21126  0.89500  1.0000
  H   H291      1.0  0.32887  0.05712  0.67597  1.0000
  H   H292      1.0  0.15402  0.18169  0.80301  1.0000
  C   C175      1.0  0.05665  0.07835  0.87304  1.0000
  H   H293      1.0  0.00881  0.26915  0.83920  1.0000
  H   H294      1.0  0.16632  0.19559  0.90712  1.0000
  H   H295      1.0  0.12033  0.43065  0.88610  1.0000
  H   H296      1.0  0.13882  0.20031  0.82122  1.0000
  H   H297      1.0  0.43705  0.21768  0.70459  1.0000
  H   H298      1.0  0.08871  0.32711  0.88745  1.0000
  C   C176      1.0  0.00284  0.35726  0.80850  1.0000
  S   S60       1.0  0.00778  0.16047  0.97659  1.0000
  H   H299      1.0  0.10780  0.26346  0.84222  1.0000
  C   C177      1.0  0.02364  0.33351  0.78336  1.0000
  H   H300      1.0  0.38022  0.01704  0.69964  1.0000
  H   H301      1.0  0.24744  0.20494  0.81150  1.0000
  H   H302      1.0  0.19027  0.20674  0.78605  1.0000
  C   C178      1.0  0.16546  0.46601  0.96934  1.0000
  H   H303      1.0  0.15649  0.21058  0.95580  1.0000
  H   H304      1.0  0.11448  0.24833  0.82055  1.0000
  H   H305      1.0  0.24073  0.13462  0.82658  1.0000
  C   C179      1.0  0.02323  0.28755  0.81539  1.0000
  N   N13       1.0  0.42089  0.35295  0.78845  1.0000
  S   S61       1.0  0.08499  0.32418  0.97432  1.0000
  C   C180      1.0  0.03145  0.24189  0.86811  1.0000
  H   H306      1.0  0.10914  0.37333  0.89365  1.0000
  H   H307      1.0  0.40899  0.23248  0.74987  1.0000
  H   H308      1.0  0.07135  0.43444  0.87607  1.0000
  C   C181      1.0  0.22815  0.21147  0.81757  1.0000
  H   H309      1.0  0.03517  0.23938  0.99677  1.0000
  C   C182      1.0  0.43851  0.37046  0.77786  1.0000
  H   H310      1.0  0.06746  0.07975  0.88619  1.0000
  C   C183      1.0  0.44856  0.14297  0.73764  1.0000
  H   H311      1.0  0.38828  0.33609  0.81607  1.0000
  C   C184      1.0  0.22295  0.24088  0.81251  1.0000
  H   H312      1.0  0.01850  0.29378  0.86161  1.0000
  H   H313      1.0  0.02254  0.24300  0.97420  1.0000
  H   H314      1.0  0.16549  0.16457  0.95802  1.0000
  H   H315      1.0  0.13357  0.16755  0.94771  1.0000
  H   H316      1.0  0.20862  0.25090  0.82201  1.0000
  H   H317      1.0  0.17289  0.01715  0.72568  1.0000
  H   H318      1.0  0.21539  0.24338  0.79839  1.0000
  H   H319      1.0  0.16242  0.15853  0.93417  1.0000
  H   H320      1.0  0.07491  0.28318  0.85973  1.0000
  C   C185      1.0  0.42338  0.35936  0.80848  1.0000
  H   H321      1.0  0.37871  0.34589  0.78824  1.0000
  S   S62       1.0  0.12848  0.20567  0.99103  1.0000
  H   H322      1.0  0.19390  0.17214  0.78824  1.0000
  H   H323      1.0  0.13793  0.22964  0.88942  1.0000
  C   C186      1.0  0.15216  0.24168  0.92537  1.0000
  C   C187      1.0  0.99673  0.14891  0.86454  1.0000
  C   C188      1.0  0.00852  0.34881  0.94984  1.0000
  H   H324      1.0  0.06659  0.23906  0.81679  1.0000
  C   C189      1.0  0.15679  0.18813  0.81733  1.0000
  C   C190      1.0  0.10073  0.24881  0.83230  1.0000
  H   H325      1.0  0.14640  0.47385  0.97523  1.0000
  H   H326      1.0  0.25088  0.06660  0.74644  1.0000
  C   C191      1.0  0.39313  0.35787  0.78122  1.0000
  H   H327      1.0  0.22974  0.08128  0.71515  1.0000
  H   H328      1.0  0.36912  0.11037  0.68040  1.0000
  H   H329      1.0  0.44884  0.12489  0.69038  1.0000
  C   C192      1.0  0.42451  0.15672  0.74204  1.0000
  H   H330      1.0  0.08155  0.33984  0.86540  1.0000
  H   H331      1.0  0.21973  0.09697  0.73546  1.0000
  S   S63       1.0  0.03161  0.42111  0.93612  1.0000
  H   H332      1.0  0.20959  0.16864  0.83610  1.0000
  N   N14       1.0  0.46569  0.23483  0.72262  1.0000
  H   H333      1.0  0.44179  0.34955  0.81424  1.0000
  H   H334      1.0  0.43285  0.39174  0.78021  1.0000
  N   N15       1.0  0.37051  0.05299  0.66927  1.0000
  H   H335      1.0  0.42547  0.38104  0.81031  1.0000
  H   H336      1.0  0.41224  0.21418  0.72918  1.0000
  H   H337      1.0  0.00479  0.20355  0.74532  1.0000
  H   H338      1.0  0.13640  0.08659  0.73849  1.0000
  H   H339      1.0  0.04802  0.22140  0.84476  1.0000
  C   C193      1.0  0.07248  0.25608  0.82530  1.0000
  C   C194      1.0  0.23903  0.15247  0.81780  1.0000
  H   H340      1.0  0.16415  0.44414  0.96909  1.0000
  C   C195      1.0  0.43008  0.32463  0.78452  1.0000
  H   H341      1.0  0.39202  0.35128  0.76678  1.0000
  C   C196      1.0  0.02642  0.07898  0.87585  1.0000
  H   H342      1.0  0.19707  0.15261  0.81649  1.0000
  H   H343      1.0  0.34966  0.29302  0.67099  1.0000
  C   C197      1.0  0.46839  0.36750  0.78229  1.0000
  H   H344      1.0  0.24479  0.17632  0.78460  1.0000
  C   C198      1.0  0.07911  0.41774  0.88474  1.0000
  C   C199      1.0  0.18914  0.04964  0.71007  1.0000
  H   H345      1.0  0.07426  0.27292  0.81577  1.0000
  H   H346      1.0  0.46666  0.09354  0.68563  1.0000
  H   H347      1.0  0.07738  0.22816  0.97823  1.0000
  H   H348      1.0  0.18039  0.08234  0.75150  1.0000
  H   H349      1.0  0.48293  0.11967  0.69639  1.0000
  C   C200      1.0  0.17610  0.06703  0.74115  1.0000
  H   H350      1.0  0.12087  0.41703  0.83808  1.0000
  C   C201      1.0  0.21187  0.16677  0.82104  1.0000
  N   N16       1.0  0.19036  0.07213  0.72361  1.0000
  H   H351      1.0  0.15319  0.25561  0.99333  1.0000
  H   H352      1.0  0.44133  0.26391  0.70764  1.0000
  H   H353      1.0  0.04789  0.11786  0.89561  1.0000
  H   H354      1.0  0.10216  0.22868  0.83830  1.0000
  C   C202      1.0  0.21866  0.07795  0.72787  1.0000
  C   C203      1.0  0.21391  0.45957  0.97483  1.0000
  C   C204      1.0  0.09387  0.23634  0.92602  1.0000
  C   C205      1.0  0.00042  0.34222  0.79258  1.0000
  C   C206      1.0  0.15918  0.20075  0.94229  1.0000
  H   H355      1.0  0.06366  0.41540  0.89525  1.0000
  C   C207      1.0  0.40013  0.35245  0.82088  1.0000
  C   C208      1.0  0.05162  0.23986  0.85251  1.0000
  H   H356      1.0  0.20525  0.05062  0.69985  1.0000
  C   C209      1.0  0.37953  0.05792  0.68861  1.0000
  N   N17       1.0  0.05186  0.26286  0.83960  1.0000
  C   C210      1.0  0.18333  0.46573  0.00037  1.0000
  H   H357      1.0  0.02664  0.09913  0.90889  1.0000
  H   H358      1.0  0.13734  0.17866  0.91216  1.0000
  S   S64       1.0  0.07163  0.39925  0.97949  1.0000
  H   H359      1.0  0.01512  0.11412  0.85235  1.0000
  H   H360      1.0  0.17525  0.22436  0.81320  1.0000
  C   C211      1.0  0.15463  0.17120  0.94551  1.0000
  H   H361      1.0  0.16535  0.25313  0.95293  1.0000
  C   C212      1.0  0.11633  0.23860  0.98631  1.0000
  H   H362      1.0  0.24161  0.25132  0.81374  1.0000
  C   C213      1.0  0.22912  0.19092  0.78020  1.0000
  C   C214      1.0  0.08154  0.27042  0.97631  1.0000
  C   C215      1.0  0.39258  0.03431  0.69915  1.0000
  C   C216      1.0  0.18095  0.20511  0.81973  1.0000
  C   C217      1.0  0.09049  0.24414  0.98007  1.0000
  H   H363      1.0  0.08809  0.25169  0.93635  1.0000
  H   H364      1.0  0.23151  0.21072  0.83259  1.0000
  H   H365      1.0  0.10777  0.37633  0.85181  1.0000
  C   C218      1.0  0.10346  0.42714  0.89514  1.0000
  C   C219      1.0  0.11359  0.21526  0.93446  1.0000
  H   H366      1.0  0.45293  0.24583  0.74994  1.0000
  H   H367      1.0  0.10518  0.19567  0.93232  1.0000
  H   H368      1.0  0.11290  0.21854  0.94945  1.0000
  H   H369      1.0  0.10980  0.41314  0.90607  1.0000
  C   C220      1.0  0.04891  0.33962  0.78996  1.0000
  C   C221      1.0  0.38188  0.38679  0.78204  1.0000
  H   H370      1.0  0.03120  0.32250  0.85093  1.0000
  C   C222      1.0  0.42317  0.10752  0.72503  1.0000
  H   H371      1.0  0.46061  0.19432  0.71432  1.0000
  C   C223      1.0  0.02377  0.37053  0.94678  1.0000
  N   N18       1.0  0.14184  0.21453  0.92797  1.0000
  H   H372      1.0  0.22487  0.04564  0.74847  1.0000
  H   H373      1.0  0.13083  0.26164  0.94825  1.0000
  H   H374      1.0  0.22754  0.45558  0.98661  1.0000
  C   C224      1.0  0.00575  0.12011  0.95168  1.0000
  C   C225      1.0  0.02675  0.11467  0.89820  1.0000
  H   H375      1.0  0.47742  0.34818  0.77772  1.0000
  H   H376      1.0  0.13794  0.05780  0.75232  1.0000
  H   H377      1.0  0.01758  0.33107  0.95594  1.0000
  H   H378      1.0  0.03685  0.13214  0.86592  1.0000
  Fe  Fe32      1.0  0.09214  0.11155  0.99846  1.0000
  H   H379      1.0  0.99469  0.13997  0.91089  1.0000
  H   H380      1.0  0.01858  0.15783  0.89781  1.0000
  H   H381      1.0  0.02254  0.06368  0.88626  1.0000
  H   H382      1.0  0.33697  0.09881  0.67518  1.0000
  H   H383      1.0  0.46723  0.19754  0.68208  1.0000
  H   H384      1.0  0.47831  0.14809  0.66965  1.0000
  H   H385      1.0  0.39590  0.04062  0.71348  1.0000
  H   H386      1.0  0.47263  0.37059  0.79695  1.0000
  H   H387      1.0  0.01707  0.26920  0.99065  1.0000
  C   C226      1.0  0.01503  0.04920  0.97642  1.0000
  H   H388      1.0  0.06262  0.09400  0.86365  1.0000
  C   C227      1.0  0.45824  0.21468  0.70855  1.0000
  S   S65       1.0  0.38102  0.39014  0.67804  1.0000
  H   H389      1.0  0.06149  0.27455  0.97160  1.0000
  H   H390      1.0  0.20998  0.43969  0.96909  1.0000
  C   C228      1.0  0.01104  0.44979  0.98025  1.0000
  H   H391      1.0  0.47199  0.28863  0.69414  1.0000
  H   H392      1.0  0.32059  0.33310  0.67178  1.0000
  H   H393      1.0  0.02170  0.43095  0.97630  1.0000
  C   C229      1.0  0.35632  0.10310  0.66932  1.0000
  H   H394      1.0  0.00950  0.04825  0.96176  1.0000
  H   H395      1.0  0.01422  0.45363  0.99488  1.0000
  H   H396      1.0  0.00208  0.29315  0.81272  1.0000
  C   C230      1.0  0.01660  0.12459  0.86567  1.0000
  H   H397      1.0  0.99961  0.18404  0.76491  1.0000
  H   H398      1.0  0.00765  0.16661  0.86097  1.0000
  C   C231      1.0  0.48166  0.27504  0.70431  1.0000
  H   H399      1.0  0.32141  0.00734  0.67125  1.0000
  H   H400      1.0  0.30076  0.30528  0.66919  1.0000
  N   N19       1.0  0.17369  0.97060  0.05458  1.0000
  S   S66       1.0  0.38364  0.88275  0.29824  1.0000
  Fe  Fe33      1.0  0.39901  0.81435  0.31909  1.0000
  S   S67       1.0  0.40235  0.82157  0.28912  1.0000
  C   C232      1.0  0.14972  0.55906  0.24744  1.0000
  Fe  Fe34      1.0  0.42238  0.85834  0.29761  1.0000
  S   S68       1.0  0.45963  0.87454  0.28541  1.0000
  Fe  Fe35      1.0  0.36315  0.84506  0.29212  1.0000
  S   S69       1.0  0.33243  0.83910  0.26928  1.0000
  H   H401      1.0  0.02407  0.86809  0.02037  1.0000
  H   H402      1.0  0.20692  0.53229  0.20667  1.0000
  Fe  Fe36      1.0  0.16466  0.87323  0.19906  1.0000
  S   S70       1.0  0.14744  0.87930  0.22701  1.0000
  S   S71       1.0  0.17261  0.90945  0.18271  1.0000
  Fe  Fe37      1.0  0.16807  0.81372  0.20298  1.0000
  S   S72       1.0  0.15171  0.81556  0.23124  1.0000
  S   S73       1.0  0.17742  0.77372  0.19055  1.0000
  Fe  Fe38      1.0  0.12158  0.84569  0.21973  1.0000
  S   S74       1.0  0.07748  0.83709  0.21905  1.0000
  Fe  Fe39      1.0  0.17943  0.84854  0.23553  1.0000
  S   S75       1.0  0.20596  0.85354  0.26075  1.0000
  S   S76       1.0  0.13725  0.84209  0.19116  1.0000
  S   S77       1.0  0.19756  0.84445  0.20786  1.0000
  H   H403      1.0  0.09854  0.91559  0.12257  1.0000
  S   S78       1.0  0.33976  0.61081  0.30325  1.0000
  H   H404      1.0  0.00536  0.56101  0.12531  1.0000
  S   S79       1.0  0.32880  0.67391  0.30638  1.0000
  H   H405      1.0  0.16764  0.56192  0.20379  1.0000
  Fe  Fe40      1.0  0.30331  0.63912  0.30282  1.0000
  S   S80       1.0  0.27348  0.64210  0.27863  1.0000
  Fe  Fe41      1.0  0.36455  0.64575  0.30922  1.0000
  S   S81       1.0  0.40222  0.66191  0.29704  1.0000
  C   C233      1.0  0.14437  0.53867  0.26237  1.0000
  C   C234      1.0  0.46122  0.76307  0.29040  1.0000
  Fe  Fe42      1.0  0.08558  0.67097  0.21387  1.0000
  S   S82       1.0  0.08055  0.66465  0.24377  1.0000
  S   S83       1.0  0.07534  0.71024  0.20118  1.0000
  Fe  Fe43      1.0  0.09597  0.61349  0.20607  1.0000
  S   S84       1.0  0.09125  0.60200  0.23549  1.0000
  S   S85       1.0  0.10072  0.58398  0.18301  1.0000
  Fe  Fe44      1.0  0.05570  0.63101  0.23521  1.0000
  S   S86       1.0  0.01525  0.62891  0.24879  1.0000
  Fe  Fe45      1.0  0.11669  0.63660  0.24159  1.0000
  S   S87       1.0  0.14815  0.63539  0.26464  1.0000
  S   S88       1.0  0.05883  0.63951  0.20554  1.0000
  S   S89       1.0  0.12348  0.64593  0.21206  1.0000
  Fe  Fe46      1.0  0.06611  0.90788  0.08812  1.0000
  S   S90       1.0  0.05811  0.89831  0.05895  1.0000
  S   S91       1.0  0.03017  0.91201  0.10569  1.0000
  Fe  Fe47      1.0  0.12448  0.90388  0.08275  1.0000
  S   S92       1.0  0.12110  0.89324  0.05295  1.0000
  S   S93       1.0  0.16355  0.90989  0.09645  1.0000
  Fe  Fe48      1.0  0.08935  0.92660  0.05229  1.0000
  S   S94       1.0  0.08363  0.95534  0.02811  1.0000
  Fe  Fe49      1.0  0.09001  0.86584  0.06236  1.0000
  S   S95       1.0  0.07564  0.82499  0.05463  1.0000
  S   S96       1.0  0.09484  0.93859  0.08150  1.0000
  S   S97       1.0  0.09620  0.87439  0.09210  1.0000
  Fe  Fe50      1.0  0.11952  0.62704  0.08246  1.0000
  S   S98       1.0  0.13782  0.63120  0.05479  1.0000
  S   S99       1.0  0.14408  0.62614  0.10829  1.0000
  Fe  Fe51      1.0  0.06468  0.64080  0.06789  1.0000
  S   S100      1.0  0.07879  0.64669  0.03945  1.0000
  H   H406      1.0  0.45290  0.73543  0.32955  1.0000
  Fe  Fe52      1.0  0.10338  0.60848  0.04418  1.0000
  S   S101      1.0  0.10084  0.57834  0.02047  1.0000
  Fe  Fe53      1.0  0.11145  0.66855  0.05262  1.0000
  S   S102      1.0  0.12876  0.70813  0.04577  1.0000
  S   S103      1.0  0.08720  0.60179  0.07227  1.0000
  S   S104      1.0  0.09519  0.66508  0.08058  1.0000
  C   C235      1.0  0.04493  0.91072  0.16266  1.0000
  H   H407      1.0  0.08897  0.93101  0.17328  1.0000
  S   S105      1.0  0.41299  0.77586  0.33157  1.0000
  H   H408      1.0  0.03718  0.59810  0.08441  1.0000
  H   H409      1.0  0.08288  0.64782  0.12077  1.0000
  C   C236      1.0  0.10401  0.54320  0.01710  1.0000
  H   H410      1.0  0.19781  0.93787  0.04304  1.0000
  H   H411      1.0  0.06245  0.86662  0.18488  1.0000
  H   H412      1.0  0.11121  0.90265  0.17244  1.0000
  C   C237      1.0  0.02235  0.86316  0.09170  1.0000
  H   H413      1.0  0.04106  0.62680  0.11384  1.0000
  H   H414      1.0  0.04303  0.85867  0.09455  1.0000
  H   H415      1.0  0.01649  0.80096  0.13734  1.0000
  C   C238      1.0  0.09143  0.79266  0.05417  1.0000
  C   C239      1.0  0.11879  0.78830  0.05224  1.0000
  C   C240      1.0  0.12995  0.76230  0.04997  1.0000
  C   C241      1.0  0.11403  0.74033  0.04998  1.0000
  C   C242      1.0  0.08683  0.74462  0.05269  1.0000
  C   C243      1.0  0.07561  0.77064  0.05458  1.0000
  H   H416      1.0  0.13121  0.80501  0.05172  1.0000
  H   H417      1.0  0.15100  0.75925  0.04779  1.0000
  H   H418      1.0  0.07446  0.72789  0.05279  1.0000
  H   H419      1.0  0.05447  0.77387  0.05608  1.0000
  C   C244      1.0  0.00766  0.84428  0.08286  1.0000
  H   H420      1.0  0.44009  0.76440  0.29437  1.0000
  H   H421      1.0  0.19906  0.72176  0.29150  1.0000
  C   C245      1.0  0.11231  0.59614  0.16221  1.0000
  C   C246      1.0  0.10807  0.58213  0.14599  1.0000
  C   C247      1.0  0.11685  0.59168  0.12923  1.0000
  C   C248      1.0  0.13078  0.61478  0.12873  1.0000
  C   C249      1.0  0.13545  0.62848  0.14499  1.0000
  C   C250      1.0  0.12575  0.61953  0.16161  1.0000
  H   H422      1.0  0.09795  0.56385  0.14637  1.0000
  H   H423      1.0  0.11366  0.58072  0.11679  1.0000
  H   H424      1.0  0.14674  0.64599  0.14475  1.0000
  H   H425      1.0  0.12938  0.63034  0.17400  1.0000
  C   C251      1.0  0.11021  0.73296  0.24714  1.0000
  H   H426      1.0  0.09195  0.73589  0.25537  1.0000
  H   H427      1.0  0.08827  0.85629  0.17031  1.0000
  H   H428      1.0  0.01126  0.83409  0.12958  1.0000
  H   H429      1.0  0.22692  0.58842  0.24705  1.0000
  C   C252      1.0  0.43579  0.64938  0.29889  1.0000
  C   C253      1.0  0.45588  0.66396  0.29126  1.0000
  H   H430      1.0  0.20551  0.94734  0.08429  1.0000
  H   H431      1.0  0.45059  0.68237  0.28441  1.0000
  H   H432      1.0  0.23778  0.96631  0.19627  1.0000
  C   C254      1.0  0.23844  0.64081  0.27523  1.0000
  C   C255      1.0  0.22092  0.63653  0.28946  1.0000
  C   C256      1.0  0.19349  0.63523  0.28594  1.0000
  C   C257      1.0  0.18301  0.63808  0.26817  1.0000
  C   C258      1.0  0.20050  0.64250  0.25394  1.0000
  C   C259      1.0  0.22790  0.64395  0.25747  1.0000
  H   H433      1.0  0.22852  0.63409  0.30319  1.0000
  H   H434      1.0  0.18031  0.63179  0.29712  1.0000
  H   H435      1.0  0.19301  0.64464  0.24018  1.0000
  H   H436      1.0  0.24116  0.64724  0.24631  1.0000
  C   C260      1.0  0.16901  0.90872  0.15877  1.0000
  C   C261      1.0  0.17839  0.92967  0.14874  1.0000
  C   C262      1.0  0.17633  0.92989  0.12970  1.0000
  C   C263      1.0  0.16412  0.90957  0.12047  1.0000
  C   C264      1.0  0.15420  0.88874  0.13044  1.0000
  C   C265      1.0  0.15696  0.88814  0.14959  1.0000
  H   H437      1.0  0.18774  0.94561  0.15572  1.0000
  H   H438      1.0  0.18426  0.94588  0.12210  1.0000
  H   H439      1.0  0.14522  0.87270  0.12335  1.0000
  H   H440      1.0  0.14993  0.87173  0.15719  1.0000
  C   C266      1.0  0.14870  0.75609  0.19184  1.0000
  C   C267      1.0  0.14949  0.72890  0.18812  1.0000
  C   C268      1.0  0.12680  0.71460  0.19062  1.0000
  C   C269      1.0  0.10334  0.72767  0.19657  1.0000
  C   C270      1.0  0.10234  0.75495  0.19957  1.0000
  C   C271      1.0  0.12505  0.76906  0.19742  1.0000
  H   H441      1.0  0.16776  0.71884  0.18374  1.0000
  H   H442      1.0  0.12749  0.69353  0.18803  1.0000
  H   H443      1.0  0.08423  0.76513  0.20419  1.0000
  H   H444      1.0  0.12414  0.78998  0.20032  1.0000
  H   H445      1.0  0.01076  0.71914  0.23051  1.0000
  H   H446      1.0  0.15299  0.51863  0.25909  1.0000
  C   C272      1.0  0.02728  0.91159  0.17976  1.0000
  H   H447      1.0  0.16888  0.97131  0.01568  1.0000
  H   H448      1.0  0.03097  0.92925  0.18826  1.0000
  H   H449      1.0  0.12265  0.53707  0.26358  1.0000
  H   H450      1.0  0.23489  0.55377  0.25249  1.0000
  H   H451      1.0  0.19352  0.55046  0.26868  1.0000
  C   C273      1.0  0.99740  0.84958  0.22186  1.0000
  C   C274      1.0  0.19382  0.56704  0.25882  1.0000
  C   C275      1.0  0.29713  0.84242  0.26763  1.0000
  C   C276      1.0  0.28123  0.85292  0.28172  1.0000
  C   C277      1.0  0.25344  0.85577  0.27947  1.0000
  C   C278      1.0  0.24105  0.84813  0.26316  1.0000
  C   C279      1.0  0.25694  0.83721  0.24919  1.0000
  C   C280      1.0  0.28472  0.83451  0.25140  1.0000
  H   H452      1.0  0.29033  0.85911  0.29430  1.0000
  H   H453      1.0  0.24147  0.86417  0.29043  1.0000
  H   H454      1.0  0.24786  0.83101  0.23661  1.0000
  H   H455      1.0  0.29671  0.82629  0.24040  1.0000
  C   C281      1.0  0.04155  0.61051  0.15901  1.0000
  H   H456      1.0  0.05418  0.56238  0.04250  1.0000
  H   H457      1.0  0.11344  0.75213  0.24047  1.0000
  C   C282      1.0  0.22332  0.57206  0.25650  1.0000
  H   H458      1.0  0.02371  0.71784  0.01618  1.0000
  C   C283      1.0  0.02316  0.83909  0.21803  1.0000
  C   C284      1.0  0.04563  0.85230  0.22360  1.0000
  C   C285      1.0  0.04199  0.87652  0.23278  1.0000
  H   H459      1.0  0.02571  0.82033  0.21096  1.0000
  H   H460      1.0  0.05902  0.88690  0.23720  1.0000
  N   N20       1.0  0.34040  0.74816  0.28184  1.0000
  C   C286      1.0  0.33908  0.76044  0.30064  1.0000
  C   C287      1.0  0.36382  0.72836  0.28179  1.0000
  C   C288      1.0  0.31498  0.73440  0.27865  1.0000
  C   C289      1.0  0.34313  0.77011  0.26829  1.0000
  C   C290      1.0  0.31488  0.77948  0.30452  1.0000
  C   C291      1.0  0.39118  0.74000  0.28387  1.0000
  C   C292      1.0  0.31515  0.71235  0.26404  1.0000
  C   C293      1.0  0.34873  0.76212  0.24834  1.0000
  H   H461      1.0  0.33917  0.74472  0.31121  1.0000
  H   H462      1.0  0.35668  0.77204  0.30350  1.0000
  H   H463      1.0  0.36484  0.71621  0.26921  1.0000
  H   H464      1.0  0.36203  0.71374  0.29295  1.0000
  H   H465      1.0  0.30850  0.72493  0.29143  1.0000
  H   H466      1.0  0.29860  0.74900  0.27493  1.0000
  H   H467      1.0  0.32467  0.78304  0.26779  1.0000
  H   H468      1.0  0.35838  0.78390  0.27273  1.0000
  H   H469      1.0  0.18120  0.98782  0.08117  1.0000
  C   C294      1.0  0.46704  0.72346  0.32099  1.0000
  H   H470      1.0  0.17570  0.92846  0.06019  1.0000
  H   H471      1.0  0.39521  0.75397  0.27277  1.0000
  H   H472      1.0  0.39366  0.74972  0.29725  1.0000
  H   H473      1.0  0.40660  0.72353  0.28320  1.0000
  H   H474      1.0  0.10590  0.71787  0.23672  1.0000
  H   H475      1.0  0.32183  0.71890  0.25060  1.0000
  H   H476      1.0  0.20276  0.98176  0.03465  1.0000
  H   H477      1.0  0.36054  0.77744  0.24195  1.0000
  H   H478      1.0  0.27118  0.94273  0.21588  1.0000
  H   H479      1.0  0.03747  0.57255  0.12135  1.0000
  C   C295      1.0  0.18907  0.94429  0.05631  1.0000
  H   H480      1.0  0.99694  0.93370  0.03609  1.0000
  H   H481      1.0  0.16415  0.72792  0.29208  1.0000
  H   H482      1.0  0.20209  0.77032  0.25334  1.0000
  C   C296      1.0  0.01097  0.86159  0.03122  1.0000
  C   C297      1.0  0.18789  0.53496  0.23351  1.0000
  C   C298      1.0  0.46965  0.61557  0.30763  1.0000
  C   C299      1.0  0.15646  0.95730  0.02279  1.0000
  C   C300      1.0  0.03699  0.54998  0.04476  1.0000
  H   H483      1.0  0.23141  0.57816  0.26991  1.0000
  S   S106      1.0  0.35862  0.83436  0.32171  1.0000
  N   N21       1.0  0.07120  0.89525  0.16386  1.0000
  H   H484      1.0  0.00948  0.58694  0.17002  1.0000
  H   H485      1.0  0.31623  0.78666  0.31881  1.0000
  C   C301      1.0  0.06863  0.86731  0.17047  1.0000
  H   H486      1.0  0.18872  0.91887  0.22647  1.0000
  H   H487      1.0  0.02760  0.56340  0.14404  1.0000
  S   S107      1.0  0.29572  0.63604  0.33307  1.0000
  C   C302      1.0  0.08485  0.99056  0.02659  1.0000
  H   H488      1.0  0.99652  0.80715  0.11757  1.0000
  H   H489      1.0  0.02926  0.89373  0.18836  1.0000
  H   H490      1.0  0.13719  0.55375  0.23560  1.0000
  H   H491      1.0  0.48067  0.96493  0.32549  1.0000
  N   N22       1.0  0.14838  0.72207  0.10862  1.0000
  C   C303      1.0  0.12651  0.74328  0.10621  1.0000
  C   C304      1.0  0.17166  0.73455  0.11748  1.0000
  C   C305      1.0  0.13990  0.69993  0.12054  1.0000
  C   C306      1.0  0.15540  0.71073  0.09016  1.0000
  C   C307      1.0  0.09928  0.73369  0.10045  1.0000
  C   C308      1.0  0.18682  0.75317  0.10524  1.0000
  C   C309      1.0  0.13059  0.70827  0.13981  1.0000
  C   C310      1.0  0.17842  0.68942  0.08961  1.0000
  H   H492      1.0  0.12352  0.75522  0.11888  1.0000
  H   H493      1.0  0.13191  0.75773  0.09565  1.0000
  H   H494      1.0  0.18618  0.71934  0.12305  1.0000
  H   H495      1.0  0.16523  0.74644  0.12964  1.0000
  H   H496      1.0  0.12400  0.68893  0.11386  1.0000
  H   H497      1.0  0.15642  0.68472  0.12242  1.0000
  H   H498      1.0  0.13827  0.70102  0.08414  1.0000
  H   H499      1.0  0.15925  0.72646  0.08010  1.0000
  H   H500      1.0  0.08541  0.75122  0.09843  1.0000
  H   H501      1.0  0.10012  0.72292  0.08731  1.0000
  H   H502      1.0  0.09059  0.72123  0.11098  1.0000
  H   H503      1.0  0.17370  0.76928  0.09943  1.0000
  H   H504      1.0  0.20211  0.76266  0.11357  1.0000
  H   H505      1.0  0.19732  0.74218  0.09410  1.0000
  H   H506      1.0  0.14702  0.71574  0.14810  1.0000
  H   H507      1.0  0.12358  0.69070  0.14698  1.0000
  H   H508      1.0  0.11386  0.72330  0.13959  1.0000
  H   H509      1.0  0.17079  0.66929  0.09048  1.0000
  H   H510      1.0  0.19328  0.69148  0.10053  1.0000
  H   H511      1.0  0.18917  0.69095  0.07655  1.0000
  N   N23       1.0  0.02836  0.62087  0.14180  1.0000
  H   H512      1.0  0.21234  0.94626  0.20403  1.0000
  H   H513      1.0  0.01363  0.90530  0.24429  1.0000
  H   H514      1.0  0.00996  0.56023  0.09103  1.0000
  C   C311      1.0  0.04951  0.62471  0.12780  1.0000
  H   H515      1.0  0.06529  0.51965  0.05494  1.0000
  N   N24       1.0  0.48989  0.73939  0.31537  1.0000
  H   H516      1.0  0.99925  0.60439  0.21419  1.0000
  H   H517      1.0  0.45638  0.68650  0.33321  1.0000
  C   C312      1.0  0.49329  0.86303  0.28783  1.0000
  H   H518      1.0  0.03520  0.59357  0.18562  1.0000
  H   H519      1.0  0.10188  0.91912  0.20352  1.0000
  C   C313      1.0  0.16284  0.58089  0.21092  1.0000
  C   C314      1.0  0.17881  0.58387  0.22873  1.0000
  H   H520      1.0  0.15141  0.54520  0.27592  1.0000
  H   H521      1.0  0.46495  0.74458  0.28252  1.0000
  H   H522      1.0  0.27113  0.89857  0.20077  1.0000
  C   C315      1.0  0.09075  0.91967  0.13646  1.0000
  H   H523      1.0  0.12871  0.70384  0.26519  1.0000
  H   H524      1.0  0.22785  0.95664  0.06644  1.0000
  H   H525      1.0  0.00618  0.91292  0.17546  1.0000
  H   H526      1.0  0.19225  0.52001  0.24435  1.0000
  H   H527      1.0  0.17104  0.60244  0.23543  1.0000
  H   H528      1.0  0.29469  0.70581  0.26223  1.0000
  H   H529      1.0  0.36074  0.74340  0.24676  1.0000
  H   H530      1.0  0.21013  0.73887  0.24251  1.0000
  C   C316      1.0  0.04915  0.85075  0.15968  1.0000
  C   C317      1.0  0.00152  0.81515  0.13118  1.0000
  C   C318      1.0  0.19593  0.75617  0.24271  1.0000
  H   H531      1.0  0.01926  0.74869  0.07605  1.0000
  H   H532      1.0  0.19484  0.95326  0.23143  1.0000
  H   H533      1.0  0.01723  0.82552  0.07883  1.0000
  C   C319      1.0  0.06691  0.64840  0.13109  1.0000
  H   H534      1.0  0.47472  0.59642  0.31356  1.0000
  H   H535      1.0  0.06318  0.60684  0.12689  1.0000
  H   H536      1.0  0.05600  0.84662  0.14559  1.0000
  H   H537      1.0  0.19821  0.76652  0.22953  1.0000
  H   H538      1.0  0.27438  0.87057  0.21602  1.0000
  H   H539      1.0  0.31444  0.79725  0.29574  1.0000
  H   H540      1.0  0.07371  0.93418  0.13488  1.0000
  H   H541      1.0  0.12226  0.98904  0.07151  1.0000
  C   C320      1.0  0.38842  0.72993  0.33477  1.0000
  C   C321      1.0  0.44293  0.62524  0.30731  1.0000
  H   H542      1.0  0.05543  0.51389  0.03194  1.0000
  H   H543      1.0  0.17192  0.52673  0.22501  1.0000
  C   C322      1.0  0.04816  0.52102  0.04539  1.0000
  H   H544      1.0  0.00098  0.60871  0.12106  1.0000
  H   H545      1.0  0.10045  0.87950  0.14461  1.0000
  H   H546      1.0  0.03575  0.60453  0.04457  1.0000
  H   H547      1.0  0.46672  0.77646  0.31761  1.0000
  H   H548      1.0  0.04570  0.56905  0.01234  1.0000
  H   H549      1.0  0.06833  0.91035  0.20194  1.0000
  C   C323      1.0  0.16651  0.75001  0.24513  1.0000
  H   H550      1.0  0.15806  0.76519  0.25482  1.0000
  H   H551      1.0  0.19909  0.58819  0.22467  1.0000
  H   H552      1.0  0.05444  0.62542  0.16502  1.0000
  C   C324      1.0  0.09046  0.90930  0.17583  1.0000
  C   C325      1.0  0.02094  0.57316  0.13120  1.0000
  C   C326      1.0  0.00394  0.62567  0.08014  1.0000
  H   H553      1.0  0.16571  0.93696  0.02224  1.0000
  C   C327      1.0  0.22296  0.92493  0.24483  1.0000
  C   C328      1.0  0.11304  0.52565  0.03074  1.0000
  H   H554      1.0  0.03022  0.55549  0.05870  1.0000
  H   H555      1.0  0.22775  0.94161  0.25396  1.0000
  C   C329      1.0  0.23393  0.94670  0.20212  1.0000
  C   C330      1.0  0.02294  0.60235  0.17434  1.0000
  H   H556      1.0  0.15631  0.75430  0.23188  1.0000
  H   H557      1.0  0.09506  0.88532  0.20071  1.0000
  H   H558      1.0  0.01142  0.61959  0.18015  1.0000
  H   H559      1.0  0.05552  0.66757  0.12936  1.0000
  C   C331      1.0  0.25003  0.94288  0.21999  1.0000
  H   H560      1.0  0.24668  0.96131  0.22820  1.0000
  H   H561      1.0  0.19041  0.71804  0.21729  1.0000
  H   H562      1.0  0.32998  0.76097  0.24052  1.0000
  H   H563      1.0  0.15544  0.68342  0.24070  1.0000
  S   S108      1.0  0.02273  0.65262  0.07506  1.0000
  H   H564      1.0  0.00941  0.65758  0.11673  1.0000
  H   H565      1.0  0.32727  0.69453  0.26839  1.0000
  H   H566      1.0  0.18077  0.93292  0.24808  1.0000
  H   H567      1.0  0.29877  0.92491  0.26115  1.0000
  H   H568      1.0  0.02628  0.69028  0.22055  1.0000
  H   H569      1.0  0.11843  0.53331  0.04396  1.0000
  H   H570      1.0  0.04796  0.83128  0.16651  1.0000
  S   S109      1.0  0.42159  0.84914  0.32727  1.0000
  C   C332      1.0  0.01054  0.88782  0.09644  1.0000
  H   H571      1.0  0.15916  0.96174  0.08148  1.0000
  H   H572      1.0  0.02892  0.86024  0.15950  1.0000
  H   H573      1.0  0.03284  0.90394  0.15095  1.0000
  C   C333      1.0  0.01618  0.88688  0.23681  1.0000
  C   C334      1.0  0.18176  0.72930  0.28329  1.0000
  H   H574      1.0  0.18470  0.75031  0.28017  1.0000
  N   N25       1.0  0.16068  0.72264  0.25155  1.0000
  H   H575      1.0  0.13223  0.73744  0.27165  1.0000
  H   H576      1.0  0.18450  0.58454  0.26599  1.0000
  H   H577      1.0  0.46476  0.77961  0.28097  1.0000
  H   H578      1.0  0.03709  0.53618  0.00865  1.0000
  H   H579      1.0  0.10693  0.92858  0.14422  1.0000
  C   C335      1.0  0.26951  0.91090  0.24212  1.0000
  N   N26       1.0  0.24483  0.91886  0.23134  1.0000
  H   H580      1.0  0.25168  0.87033  0.19731  1.0000
  H   H581      1.0  0.45518  0.71783  0.30889  1.0000
  C   C336      1.0  0.19547  0.93285  0.23690  1.0000
  H   H582      1.0  0.26575  0.93129  0.26865  1.0000
  C   C337      1.0  0.26024  0.88326  0.20784  1.0000
  C   C338      1.0  0.08262  0.89340  0.14488  1.0000
  H   H583      1.0  0.22066  0.90003  0.21085  1.0000
  C   C339      1.0  0.00931  0.60164  0.13433  1.0000
  C   C340      1.0  0.27849  0.93107  0.25639  1.0000
  H   H584      1.0  0.28672  0.90700  0.23295  1.0000
  H   H585      1.0  0.04189  0.69529  0.03071  1.0000
  C   C341      1.0  0.17963  0.71200  0.26603  1.0000
  H   H586      1.0  0.07662  0.64767  0.14466  1.0000
  H   H587      1.0  0.19993  0.70819  0.26083  1.0000
  C   C342      1.0  0.23784  0.89535  0.21994  1.0000
  C   C343      1.0  0.02197  0.70497  0.02828  1.0000
  H   H588      1.0  0.42776  0.61362  0.31307  1.0000
  H   H589      1.0  0.27916  0.95130  0.25075  1.0000
  H   H590      1.0  0.14529  0.70944  0.22568  1.0000
  C   C344      1.0  0.18631  0.69974  0.22479  1.0000
  C   C345      1.0  0.13336  0.72366  0.25980  1.0000
  H   H591      1.0  0.22419  0.55297  0.22221  1.0000
  H   H592      1.0  0.48650  0.82994  0.30513  1.0000
  H   H593      1.0  0.26702  0.89201  0.24945  1.0000
  H   H594      1.0  0.20363  0.69304  0.23316  1.0000
  C   C346      1.0  0.16064  0.70332  0.23585  1.0000
  H   H595      1.0  0.03109  0.94141  0.01397  1.0000
  C   C347      1.0  0.21258  0.53520  0.22116  1.0000
  H   H596      1.0  0.06835  0.88515  0.13506  1.0000
  H   H597      1.0  0.23999  0.93170  0.19168  1.0000
  H   H598      1.0  0.99643  0.77398  0.04969  1.0000
  C   C348      1.0  0.48973  0.63010  0.29995  1.0000
  C   C349      1.0  0.21222  0.94320  0.07015  1.0000
  H   H599      1.0  0.22067  0.90762  0.25393  1.0000
  C   C350      1.0  0.15013  0.96617  0.04250  1.0000
  H   H600      1.0  0.23135  0.87923  0.22885  1.0000
  H   H601      1.0  0.03550  0.90911  0.02296  1.0000
  C   C351      1.0  0.00060  0.57946  0.08806  1.0000
  H   H602      1.0  0.00846  0.68917  0.02504  1.0000
  H   H603      1.0  0.17382  0.69221  0.27062  1.0000
  H   H604      1.0  0.18368  0.68420  0.21429  1.0000
  N   N27       1.0  0.17822  0.56101  0.24184  1.0000
  C   C352      1.0  0.47905  0.76521  0.30746  1.0000
  H   H605      1.0  0.01852  0.70900  0.05746  1.0000
  H   H606      1.0  0.16740  0.59704  0.20142  1.0000
  C   C353      1.0  0.08835  0.90565  0.19661  1.0000
  C   C354      1.0  0.02229  0.92177  0.01423  1.0000
  H   H607      1.0  0.29593  0.76960  0.30330  1.0000
  H   H608      1.0  0.13764  0.95112  0.04864  1.0000
  H   H609      1.0  0.04791  0.93174  0.15924  1.0000
  Fe  Fe54      1.0  0.38169  0.87023  0.32760  1.0000
  C   C355      1.0  0.01602  0.60084  0.08410  1.0000
  H   H610      1.0  0.13676  0.98407  0.04139  1.0000
  H   H611      1.0  0.14127  0.58297  0.21338  1.0000
  H   H612      1.0  0.22146  0.92277  0.07025  1.0000
  C   C356      1.0  0.48265  0.65449  0.29187  1.0000
  C   C357      1.0  0.00922  0.69758  0.22895  1.0000
  H   H613      1.0  0.02811  0.73743  0.04564  1.0000
  H   H614      1.0  0.14138  0.57860  0.25246  1.0000
  C   C358      1.0  0.01316  0.64651  0.14608  1.0000
  H   H615      1.0  0.05517  0.59308  0.15606  1.0000
  H   H616      1.0  0.02379  0.85695  0.04325  1.0000
  H   H617      1.0  0.02575  0.66084  0.15314  1.0000
  C   C359      1.0  0.16476  0.97916  0.07342  1.0000
  C   C360      1.0  0.01941  0.60633  0.03446  1.0000
  C   C361      1.0  0.02853  0.55622  0.01226  1.0000
  C   C362      1.0  0.99427  0.92538  0.02217  1.0000
  H   H618      1.0  0.01185  0.68781  0.24241  1.0000
  N   N28       1.0  0.01562  0.55598  0.03071  1.0000
  H   H619      1.0  0.22631  0.51806  0.22466  1.0000
  C   C363      1.0  0.00188  0.58237  0.03511  1.0000
  H   H620      1.0  0.99741  0.64324  0.15617  1.0000
  H   H621      1.0  0.13770  0.95680  0.01491  1.0000
  C   C364      1.0  0.01380  0.72149  0.04527  1.0000
  H   H622      1.0  0.03342  0.50754  0.05059  1.0000
  C   C365      1.0  0.47448  0.69767  0.33140  1.0000
  H   H623      1.0  0.40545  0.72083  0.32790  1.0000
  C   C366      1.0  0.11532  0.49807  0.02727  1.0000
  C   C367      1.0  0.99881  0.66037  0.12978  1.0000
  C   C368      1.0  0.19180  0.99019  0.04663  1.0000
  H   H624      1.0  0.00280  0.84237  0.02745  1.0000
  H   H625      1.0  0.00360  0.51581  0.02570  1.0000
  H   H626      1.0  0.48883  0.68454  0.32386  1.0000
  H   H627      1.0  0.36847  0.69399  0.33553  1.0000
  H   H628      1.0  0.02760  0.60945  0.02073  1.0000
  H   H629      1.0  0.99740  0.68209  0.13216  1.0000
  H   H630      1.0  0.00723  0.62451  0.03805  1.0000
  C   C369      1.0  0.99828  0.75617  0.07632  1.0000
  Fe  Fe55      1.0  0.33329  0.60988  0.33377  1.0000
  H   H631      1.0  0.99796  0.77622  0.08260  1.0000
  H   H632      1.0  0.99563  0.89253  0.04929  1.0000
  C   C370      1.0  0.99372  0.87339  0.23152  1.0000
  C   C371      1.0  0.99525  0.53535  0.03062  1.0000
  Fe  Fe56      1.0  0.41622  0.83518  0.46645  1.0000
  S   S110      1.0  0.40151  0.82318  0.49373  1.0000
  S   S111      1.0  0.45895  0.82692  0.45956  1.0000
  Fe  Fe57      1.0  0.36151  0.84982  0.45190  1.0000
  S   S112      1.0  0.34274  0.83996  0.47853  1.0000
  S   S113      1.0  0.33638  0.85630  0.42659  1.0000
  Fe  Fe58      1.0  0.37609  0.86159  0.49168  1.0000
  S   S114      1.0  0.37342  0.89016  0.51639  1.0000
  Fe  Fe59      1.0  0.36983  0.80285  0.47799  1.0000
  S   S115      1.0  0.35368  0.76136  0.47515  1.0000
  S   S116      1.0  0.39253  0.87402  0.46489  1.0000
  S   S117      1.0  0.38695  0.81253  0.45102  1.0000
  Fe  Fe60      1.0  0.38862  0.60383  0.48275  1.0000
  S   S118      1.0  0.39260  0.59559  0.45285  1.0000
  S   S119      1.0  0.39978  0.64414  0.49405  1.0000
  Fe  Fe61      1.0  0.37629  0.54472  0.49104  1.0000
  S   S120      1.0  0.37896  0.53326  0.46148  1.0000
  S   S121      1.0  0.36597  0.51499  0.51325  1.0000
  Fe  Fe62      1.0  0.41439  0.55778  0.46129  1.0000
  S   S122      1.0  0.45295  0.54255  0.44956  1.0000
  Fe  Fe63      1.0  0.35671  0.57207  0.45590  1.0000
  S   S123      1.0  0.32200  0.57778  0.43656  1.0000
  S   S124      1.0  0.41339  0.56728  0.49111  1.0000
  S   S125      1.0  0.35101  0.58231  0.48559  1.0000
  S   S126      1.0  0.37455  0.89896  0.35082  1.0000
  H   H633      1.0  0.31823  0.65758  0.41086  1.0000
  C   C372      1.0  0.32794  0.57631  0.41289  1.0000
  C   C373      1.0  0.30880  0.58732  0.40082  1.0000
  C   C374      1.0  0.31333  0.58723  0.38192  1.0000
  C   C375      1.0  0.33666  0.57529  0.37490  1.0000
  C   C376      1.0  0.35540  0.56347  0.38694  1.0000
  C   C377      1.0  0.35133  0.56442  0.40590  1.0000
  H   H634      1.0  0.29055  0.59630  0.40612  1.0000
  H   H635      1.0  0.29852  0.59588  0.37272  1.0000
  H   H636      1.0  0.37330  0.55381  0.38157  1.0000
  H   H637      1.0  0.36612  0.55564  0.41506  1.0000
  C   C378      1.0  0.46978  0.57051  0.44392  1.0000
  C   C379      1.0  0.45670  0.59101  0.43421  1.0000
  C   C380      1.0  0.30163  0.53118  0.47046  1.0000
  H   H638      1.0  0.43708  0.58842  0.42895  1.0000
  C   C381      1.0  0.37264  0.66260  0.41821  1.0000
  H   H639      1.0  0.47027  0.54796  0.52105  1.0000
  C   C382      1.0  0.41792  0.84558  0.41409  1.0000
  C   C383      1.0  0.29577  0.50961  0.43134  1.0000
  H   H640      1.0  0.46641  0.83164  0.40453  1.0000
  H   H641      1.0  0.48898  0.54042  0.55156  1.0000
  C   C384      1.0  0.35058  0.86744  0.40637  1.0000
  C   C385      1.0  0.35363  0.89446  0.40379  1.0000
  C   C386      1.0  0.36102  0.90385  0.38669  1.0000
  C   C387      1.0  0.36547  0.88631  0.37206  1.0000
  C   C388      1.0  0.36305  0.85916  0.37472  1.0000
  C   C389      1.0  0.35548  0.84979  0.39183  1.0000
  H   H642      1.0  0.34927  0.90827  0.41481  1.0000
  H   H643      1.0  0.36280  0.92486  0.38471  1.0000
  H   H644      1.0  0.36646  0.84551  0.36350  1.0000
  H   H645      1.0  0.35286  0.82896  0.39369  1.0000
  C   C390      1.0  0.36774  0.72906  0.48000  1.0000
  C   C391      1.0  0.35711  0.70704  0.47138  1.0000
  C   C392      1.0  0.36688  0.68098  0.47526  1.0000
  C   C393      1.0  0.38724  0.67656  0.48805  1.0000
  C   C394      1.0  0.39800  0.69858  0.49657  1.0000
  C   C395      1.0  0.38843  0.72466  0.49253  1.0000
  H   H646      1.0  0.34084  0.71012  0.46190  1.0000
  H   H647      1.0  0.35823  0.66428  0.46871  1.0000
  H   H648      1.0  0.41351  0.69539  0.50664  1.0000
  H   H649      1.0  0.39650  0.74129  0.49953  1.0000
  C   C396      1.0  0.36907  0.93606  0.53722  1.0000
  C   C397      1.0  0.37328  0.92545  0.51961  1.0000
  H   H650      1.0  0.36525  0.92286  0.54833  1.0000
  H   H651      1.0  0.38143  0.93537  0.49183  1.0000
  C   C398      1.0  0.36450  0.76870  0.34693  1.0000
  H   H652      1.0  0.44933  0.77828  0.47974  1.0000
  C   C399      1.0  0.45939  0.87759  0.44655  1.0000
  H   H653      1.0  0.38257  0.98381  0.49783  1.0000
  H   H654      1.0  0.43821  0.87795  0.44691  1.0000
  C   C400      1.0  0.46903  0.61470  0.43127  1.0000
  H   H655      1.0  0.43162  0.76606  0.44671  1.0000
  H   H656      1.0  0.45880  0.63061  0.42385  1.0000
  C   C401      1.0  0.45114  0.90310  0.51226  1.0000
  H   H657      1.0  0.39030  0.60217  0.39604  1.0000
  S   S127      1.0  0.31868  0.70612  0.35315  1.0000
  H   H658      1.0  0.44353  0.81322  0.38441  1.0000
  H   H659      1.0  0.44789  0.72514  0.49252  1.0000
  H   H660      1.0  0.38734  0.72081  0.37968  1.0000
  C   C402      1.0  0.32224  0.65502  0.39612  1.0000
  H   H661      1.0  0.41104  0.82996  0.40496  1.0000
  H   H662      1.0  0.44540  0.89719  0.48287  1.0000
  H   H663      1.0  0.28940  0.56041  0.49100  1.0000
  H   H664      1.0  0.47265  0.92448  0.54305  1.0000
  C   C403      1.0  0.43439  0.82480  0.37312  1.0000
  H   H665      1.0  0.48956  0.57392  0.48961  1.0000
  H   H666      1.0  0.42913  0.71155  0.46504  1.0000
  C   C404      1.0  0.40449  0.61698  0.40019  1.0000
  H   H667      1.0  0.40716  0.69162  0.37481  1.0000
  H   H668      1.0  0.45484  0.85748  0.36201  1.0000
  H   H669      1.0  0.36648  0.97121  0.55434  1.0000
  C   C405      1.0  0.25131  0.50664  0.46273  1.0000
  C   C406      1.0  0.36922  0.68487  0.38798  1.0000
  C   C407      1.0  0.47434  0.85491  0.45196  1.0000
  N   N29       1.0  0.37306  0.65874  0.39780  1.0000
  C   C408      1.0  0.35016  0.64217  0.39273  1.0000
  H   H670      1.0  0.35493  0.67514  0.42227  1.0000
  H   H671      1.0  0.32620  0.76196  0.35825  1.0000
  H   H672      1.0  0.43038  0.96204  0.52453  1.0000
  H   H673      1.0  0.44403  0.71658  0.44354  1.0000
  C   C409      1.0  0.43719  0.91439  0.37932  1.0000
  H   H674      1.0  0.44343  0.76775  0.50223  1.0000
  H   H675      1.0  0.42193  0.86508  0.36788  1.0000
  H   H676      1.0  0.40085  0.85172  0.42284  1.0000
  C   C410      1.0  0.43873  0.94970  0.53580  1.0000
  H   H677      1.0  0.29131  0.53115  0.43282  1.0000
  H   H678      1.0  0.43038  0.88526  0.41432  1.0000
  C   C411      1.0  0.45205  0.88568  0.49502  1.0000
  H   H679      1.0  0.40825  0.87811  0.39654  1.0000
  H   H680      1.0  0.36972  0.64363  0.42544  1.0000
  H   H681      1.0  0.31861  0.67398  0.38879  1.0000
  C   C412      1.0  0.36734  0.71456  0.33917  1.0000
  H   H682      1.0  0.43775  0.86998  0.49662  1.0000
  H   H683      1.0  0.43824  0.50908  0.50114  1.0000
  H   H684      1.0  0.35420  0.69813  0.39496  1.0000
  H   H685      1.0  0.35111  0.62330  0.40044  1.0000
  H   H686      1.0  0.30731  0.64170  0.39073  1.0000
  H   H687      1.0  0.32116  0.53941  0.46786  1.0000
  H   H688      1.0  0.43351  0.83753  0.42348  1.0000
  C   C413      1.0  0.42261  0.75053  0.45482  1.0000
  C   C414      1.0  0.38689  0.75705  0.33838  1.0000
  C   C415      1.0  0.45788  0.76606  0.49090  1.0000
  C   C416      1.0  0.44030  0.85448  0.37302  1.0000
  C   C417      1.0  0.36976  0.96360  0.54070  1.0000
  C   C418      1.0  0.39792  0.64401  0.39122  1.0000
  C   C419      1.0  0.39641  0.67554  0.42716  1.0000
  H   H689      1.0  0.41566  0.65559  0.39317  1.0000
  H   H690      1.0  0.41550  0.67067  0.42045  1.0000
  H   H691      1.0  0.24163  0.51608  0.47483  1.0000
  H   H692      1.0  0.40485  0.70438  0.39793  1.0000
  C   C420      1.0  0.37819  0.94300  0.50546  1.0000
  H   H693      1.0  0.39287  0.69736  0.42802  1.0000
  H   H694      1.0  0.39914  0.66779  0.44124  1.0000
  C   C421      1.0  0.29403  0.53872  0.49021  1.0000
  C   C422      1.0  0.46382  0.73642  0.48637  1.0000
  H   H695      1.0  0.46595  0.53919  0.48896  1.0000
  H   H696      1.0  0.42426  0.60920  0.39556  1.0000
  N   N30       1.0  0.47071  0.92452  0.51345  1.0000
  H   H697      1.0  0.46020  0.91741  0.43630  1.0000
  H   H698      1.0  0.39673  0.64064  0.37621  1.0000
  N   N31       1.0  0.30931  0.77447  0.42049  1.0000
  C   C423      1.0  0.29838  0.77738  0.43956  1.0000
  C   C424      1.0  0.30188  0.74778  0.41348  1.0000
  C   C425      1.0  0.29590  0.79606  0.40905  1.0000
  C   C426      1.0  0.33883  0.77737  0.42135  1.0000
  C   C427      1.0  0.30125  0.80448  0.44880  1.0000
  C   C428      1.0  0.31273  0.72383  0.42470  1.0000
  C   C429      1.0  0.30086  0.79495  0.38839  1.0000
  C   C430      1.0  0.35566  0.76546  0.40545  1.0000
  H   H699      1.0  0.27695  0.77335  0.43978  1.0000
  H   H700      1.0  0.30832  0.76271  0.44894  1.0000
  H   H701      1.0  0.30819  0.74408  0.39925  1.0000
  H   H702      1.0  0.27994  0.74688  0.41290  1.0000
  H   H703      1.0  0.27405  0.79639  0.41091  1.0000
  H   H704      1.0  0.30201  0.81588  0.41352  1.0000
  H   H705      1.0  0.34323  0.79863  0.42255  1.0000
  H   H706      1.0  0.34720  0.76810  0.43403  1.0000
  H   H707      1.0  0.29531  0.80321  0.46331  1.0000
  H   H708      1.0  0.32199  0.81023  0.44874  1.0000
  H   H709      1.0  0.28826  0.82030  0.44249  1.0000
  H   H710      1.0  0.30202  0.72227  0.43777  1.0000
  H   H711      1.0  0.30939  0.70542  0.41696  1.0000
  H   H712      1.0  0.33421  0.72445  0.42747  1.0000
  H   H713      1.0  0.28972  0.81203  0.38196  1.0000
  H   H714      1.0  0.29347  0.77694  0.38192  1.0000
  H   H715      1.0  0.32187  0.79729  0.38510  1.0000
  H   H716      1.0  0.37019  0.77995  0.40130  1.0000
  H   H717      1.0  0.34472  0.76038  0.39300  1.0000
  H   H718      1.0  0.36756  0.74766  0.41013  1.0000
  C   C431      1.0  0.46579  0.94469  0.49853  1.0000
  H   H719      1.0  0.25427  0.52182  0.45229  1.0000
  C   C432      1.0  0.42623  0.87017  0.40376  1.0000
  H   H720      1.0  0.44413  0.94853  0.49623  1.0000
  H   H721      1.0  0.40532  0.61849  0.41522  1.0000
  C   C433      1.0  0.34364  0.75300  0.35186  1.0000
  H   H722      1.0  0.47594  0.77518  0.49609  1.0000
  H   H723      1.0  0.47240  0.76870  0.45597  1.0000
  C   C434      1.0  0.37885  0.97056  0.50893  1.0000
  H   H724      1.0  0.35101  0.63631  0.37810  1.0000
  S   S128      1.0  0.34222  0.57357  0.35118  1.0000
  C   C435      1.0  0.39380  0.70105  0.38519  1.0000
  H   H725      1.0  0.45276  0.67260  0.46424  1.0000
  C   C436      1.0  0.44097  0.72556  0.45732  1.0000
  H   H726      1.0  0.43046  0.91168  0.51274  1.0000
  S   S129      1.0  0.36034  0.64248  0.33946  1.0000
  H   H727      1.0  0.44210  0.81519  0.36044  1.0000
  H   H728      1.0  0.43921  0.96258  0.54809  1.0000
  H   H729      1.0  0.42852  0.90814  0.36619  1.0000
  H   H730      1.0  0.36128  0.68161  0.37399  1.0000
  C   C437      1.0  0.45837  0.89391  0.38663  1.0000
  C   C438      1.0  0.46689  0.93821  0.53168  1.0000
  H   H731      1.0  0.42527  0.93381  0.53902  1.0000
  H   H732      1.0  0.42121  0.91895  0.38930  1.0000
  N   N32       1.0  0.46730  0.72902  0.46653  1.0000
  C   C439      1.0  0.48325  0.52972  0.52313  1.0000
  H   H733      1.0  0.48181  0.57530  0.39263  1.0000
  H   H734      1.0  0.41271  0.82245  0.37334  1.0000
  C   C440      1.0  0.31298  0.49778  0.44696  1.0000
  C   C441      1.0  0.47850  0.93830  0.47976  1.0000
  C   C442      1.0  0.47186  0.89981  0.44030  1.0000
  N   N33       1.0  0.44904  0.86667  0.39069  1.0000
  H   H735      1.0  0.48212  0.73047  0.49418  1.0000
  H   H736      1.0  0.47429  0.89288  0.37627  1.0000
  H   H737      1.0  0.44662  0.93332  0.37673  1.0000
  H   H738      1.0  0.27648  0.52867  0.49495  1.0000
  H   H739      1.0  0.31083  0.53439  0.49973  1.0000
  H   H740      1.0  0.47836  0.86157  0.41208  1.0000
  H   H741      1.0  0.46955  0.51439  0.52729  1.0000
  H   H742      1.0  0.48375  0.74294  0.44141  1.0000
  H   H743      1.0  0.28795  0.54284  0.46140  1.0000
  C   C443      1.0  0.46918  0.67860  0.47318  1.0000
  C   C444      1.0  0.34498  0.72588  0.34784  1.0000
  H   H744      1.0  0.41552  0.75859  0.46806  1.0000
  H   H745      1.0  0.46446  0.94499  0.46881  1.0000
  H   H746      1.0  0.34173  0.49839  0.47852  1.0000
  H   H747      1.0  0.30682  0.50696  0.41836  1.0000
  H   H748      1.0  0.48358  0.91719  0.47704  1.0000
  H   H749      1.0  0.40460  0.74504  0.44729  1.0000
  H   H750      1.0  0.48821  0.69781  0.45107  1.0000
  H   H751      1.0  0.46719  0.90279  0.39907  1.0000
  H   H752      1.0  0.47157  0.87535  0.49269  1.0000
  C   C445      1.0  0.37468  0.98116  0.52658  1.0000
  C   C446      1.0  0.45543  0.49973  0.49375  1.0000
  C   C447      1.0  0.47693  0.51982  0.49084  1.0000
  H   H753      1.0  0.48626  0.51612  0.47730  1.0000
  C   C448      1.0  0.47191  0.85119  0.39958  1.0000
  H   H754      1.0  0.47724  0.74842  0.35330  1.0000
  H   H755      1.0  0.36329  0.78973  0.34977  1.0000
  N   N34       1.0  0.30267  0.50198  0.46607  1.0000
  H   H756      1.0  0.27729  0.49905  0.42966  1.0000
  H   H757      1.0  0.49196  0.83595  0.37466  1.0000
  H   H758      1.0  0.45340  0.88964  0.52422  1.0000
  H   H759      1.0  0.48247  0.70171  0.34517  1.0000
  H   H760      1.0  0.48630  0.77994  0.34427  1.0000
  H   H761      1.0  0.48366  0.66132  0.47363  1.0000
  H   H762      1.0  0.33292  0.50588  0.44570  1.0000
  C   C449      1.0  0.48287  0.70270  0.46545  1.0000
  C   C450      1.0  0.48247  0.74876  0.45605  1.0000
  H   H763      1.0  0.47986  0.95519  0.53299  1.0000
  C   C451      1.0  0.49362  0.75953  0.34774  1.0000
  H   H764      1.0  0.46188  0.68204  0.48723  1.0000
  H   H765      1.0  0.47337  0.96406  0.50279  1.0000
  Fe  Fe64      1.0  0.32371  0.66885  0.33627  1.0000
  H   H766      1.0  0.09028  0.54589  0.98926  1.0000
  C   C452      1.0  0.01056  0.56519  0.99614  1.0000
  H   H767      1.0  0.14903  0.51752  0.97888  1.0000
  H   H768      1.0  0.08538  0.99022  0.99722  1.0000
  H   H769      1.0  0.19578  0.51089  0.96733  1.0000
  H   H770      1.0  0.17092  0.54181  0.98621  1.0000
  C   C453      1.0  0.09939  0.50502  0.99653  1.0000
  C   C454      1.0  0.16670  0.52058  0.98745  1.0000
  H   H771      1.0  0.20805  0.50861  0.98992  1.0000
  C   C455      1.0  0.09721  0.53261  0.99999  1.0000
  C   C456      1.0  0.19110  0.50346  0.98106  1.0000
  H   H772      1.0  0.02263  0.56478  0.98354  1.0000
  H   H773      1.0  0.09417  0.49737  0.98328  1.0000
  H   H774      1.0  0.00235  0.58580  0.99779  1.0000
  H   H775      1.0  0.16658  0.49616  0.94761  1.0000
  H   H776      1.0  0.02251  0.91452  0.99998  1.0000
  H   H777      1.0  0.99626  0.88146  0.99917  1.0000
  H   H778      1.0  0.99436  0.55170  0.99374  1.0000
  H   H779      1.0  0.16206  0.51744  0.00200  1.0000
  H   H780      1.0  0.92755  0.22365  0.01337  1.0000
  C   C457      1.0  0.88748  0.47435  0.03252  1.0000
  H   H781      1.0  0.95216  0.25864  0.01419  1.0000
  H   H782      1.0  0.89700  0.43368  0.04013  1.0000
  C   C458      1.0  0.94105  0.21049  0.00510  1.0000
  C   C459      1.0  0.88478  0.43585  0.01196  1.0000
  H   H783      1.0  0.96464  0.44754  0.03064  1.0000
  H   H784      1.0  0.86266  0.99466  0.03194  1.0000
  H   H785      1.0  0.94286  0.11529  0.01332  1.0000
  H   H786      1.0  0.97470  0.08779  0.02903  1.0000
  C   C460      1.0  0.87703  0.99372  0.00435  1.0000
  C   C461      1.0  0.87897  0.49171  0.01860  1.0000
  H   H787      1.0  0.95904  0.20459  0.01309  1.0000
  C   C462      1.0  0.89041  0.44674  0.02920  1.0000
  H   H788      1.0  0.98231  0.46820  0.01553  1.0000
  H   H789      1.0  0.95561  0.38845  0.00934  1.0000
  H   H790      1.0  0.93902  0.43048  0.00820  1.0000
  C   C463      1.0  0.97091  0.29125  0.00301  1.0000
  H   H791      1.0  0.95901  0.30584  0.01133  1.0000
  C   C464      1.0  0.97272  0.08265  0.01445  1.0000
  H   H792      1.0  0.95798  0.06703  0.01430  1.0000
  H   H793      1.0  0.87999  0.21371  0.00739  1.0000
  H   H794      1.0  0.98926  0.28659  0.01092  1.0000
  H   H795      1.0  0.99108  0.43318  0.01810  1.0000
  C   C465      1.0  0.97455  0.44826  0.01719  1.0000
  H   H796      1.0  0.89175  0.48218  0.04589  1.0000
  H   H797      1.0  0.99310  0.23435  0.01010  1.0000
  S   S130      1.0  0.89013  0.40077  0.00853  1.0000
  C   C466      1.0  0.95963  0.10721  0.00494  1.0000
  H   H798      1.0  0.99358  0.03211  0.01558  1.0000
  H   H799      1.0  0.97343  0.12324  0.00313  1.0000
  Fe  Fe65      1.0  0.57442  0.12254  0.54059  1.0000
  S   S131      1.0  0.55803  0.10932  0.56720  1.0000
  S   S132      1.0  0.57529  0.09450  0.51558  1.0000
  Fe  Fe66      1.0  0.58062  0.18084  0.55474  1.0000
  S   S133      1.0  0.56449  0.17041  0.58197  1.0000
  S   S134      1.0  0.59437  0.22344  0.55690  1.0000
  Fe  Fe67      1.0  0.58950  0.13292  0.58025  1.0000
  S   S135      1.0  0.61331  0.12260  0.60557  1.0000
  Fe  Fe68      1.0  0.53479  0.14830  0.56668  1.0000
  H   H800      1.0  0.60922  0.40530  0.63515  1.0000
  S   S136      1.0  0.60806  0.14390  0.55374  1.0000
  S   S137      1.0  0.54856  0.16075  0.53926  1.0000
  Fe  Fe69      1.0  0.58019  0.37841  0.54327  1.0000
  S   S138      1.0  0.58372  0.37957  0.57358  1.0000
  S   S139      1.0  0.57065  0.34063  0.52778  1.0000
  Fe  Fe70      1.0  0.58711  0.43966  0.53991  1.0000
  S   S140      1.0  0.59065  0.44440  0.57049  1.0000
  C   C467      1.0  0.60275  0.23603  0.64484  1.0000
  Fe  Fe71      1.0  0.61655  0.40656  0.56960  1.0000
  S   S141      1.0  0.65308  0.39200  0.58529  1.0000
  Fe  Fe72      1.0  0.55746  0.41655  0.57169  1.0000
  S   S142      1.0  0.52057  0.42077  0.58858  1.0000
  S   S143      1.0  0.61523  0.40322  0.53893  1.0000
  S   S144      1.0  0.55205  0.41425  0.54152  1.0000
  C   C468      1.0  0.65455  0.39546  0.60927  1.0000
  C   C469      1.0  0.65478  0.42054  0.61734  1.0000
  C   C470      1.0  0.65982  0.42305  0.63613  1.0000
  C   C471      1.0  0.66406  0.40055  0.64711  1.0000
  C   C472      1.0  0.66299  0.37543  0.63917  1.0000
  C   C473      1.0  0.65874  0.37293  0.62026  1.0000
  H   H801      1.0  0.65226  0.43804  0.60896  1.0000
  C   C474      1.0  0.57363  0.02003  0.49342  1.0000
  H   H802      1.0  0.66653  0.35798  0.64748  1.0000
  H   H803      1.0  0.65925  0.35348  0.61413  1.0000
  H   H804      1.0  0.51150  0.32813  0.57141  1.0000
  S   S145      1.0  0.58574  0.47086  0.51692  1.0000
  H   H805      1.0  0.57142  0.16052  0.64633  1.0000
  H   H806      1.0  0.61267  0.01643  0.43248  1.0000
  H   H807      1.0  0.53481  0.46311  0.49541  1.0000
  C   C475      1.0  0.51543  0.36889  0.57893  1.0000
  H   H808      1.0  0.67511  0.30331  0.58560  1.0000
  H   H809      1.0  0.51841  0.40348  0.48797  1.0000
  H   H810      1.0  0.53312  0.37032  0.57118  1.0000
  C   C476      1.0  0.69057  0.31517  0.55263  1.0000
  C   C477      1.0  0.59510  0.11564  0.62520  1.0000
  C   C478      1.0  0.60777  0.11486  0.64226  1.0000
  H   H811      1.0  0.55600  0.21804  0.65723  1.0000
  H   H812      1.0  0.58370  0.19972  0.66615  1.0000
  C   C479      1.0  0.55402  0.10577  0.63994  1.0000
  C   C480      1.0  0.56811  0.11127  0.62409  1.0000
  H   H813      1.0  0.62874  0.11773  0.64316  1.0000
  H   H814      1.0  0.54719  0.17150  0.66244  1.0000
  H   H815      1.0  0.53343  0.10161  0.63893  1.0000
  H   H816      1.0  0.55827  0.11159  0.61098  1.0000
  C   C481      1.0  0.58143  0.25492  0.54921  1.0000
  C   C482      1.0  0.57652  0.25996  0.53073  1.0000
  C   C483      1.0  0.57225  0.28623  0.52451  1.0000
  C   C484      1.0  0.57299  0.30782  0.53662  1.0000
  C   C485      1.0  0.57640  0.30274  0.55522  1.0000
  C   C486      1.0  0.58070  0.27648  0.56144  1.0000
  H   H817      1.0  0.57751  0.24372  0.52107  1.0000
  H   H818      1.0  0.56949  0.28986  0.51009  1.0000
  H   H819      1.0  0.57641  0.31906  0.56477  1.0000
  H   H820      1.0  0.58456  0.27295  0.57573  1.0000
  H   H821      1.0  0.52408  0.08730  0.49736  1.0000
  H   H822      1.0  0.65894  0.24388  0.55614  1.0000
  N   N35       1.0  0.57514  0.39566  0.65098  1.0000
  C   C487      1.0  0.57073  0.21928  0.62225  1.0000
  H   H823      1.0  0.51635  0.10921  0.59230  1.0000
  C   C488      1.0  0.57668  0.05913  0.51332  1.0000
  C   C489      1.0  0.57199  0.04779  0.49608  1.0000
  C   C490      1.0  0.58267  0.04212  0.52794  1.0000
  H   H824      1.0  0.56714  0.06063  0.48466  1.0000
  H   H825      1.0  0.58633  0.05035  0.54129  1.0000
  H   H826      1.0  0.69139  0.35623  0.54257  1.0000
  C   C491      1.0  0.57001  0.36853  0.64356  1.0000
  N   N36       1.0  0.65239  0.00668  0.47165  1.0000
  H   H827      1.0  0.50375  0.30366  0.52952  1.0000
  C   C492      1.0  0.65318  0.28629  0.55221  1.0000
  H   H828      1.0  0.63155  0.28511  0.55394  1.0000
  H   H829      1.0  0.66561  0.33690  0.58235  1.0000
  H   H830      1.0  0.57018  0.25805  0.65934  1.0000
  H   H831      1.0  0.64850  0.35421  0.55379  1.0000
  H   H832      1.0  0.56181  0.43432  0.61825  1.0000
  H   H833      1.0  0.68852  0.26106  0.55965  1.0000
  C   C493      1.0  0.57533  0.41629  0.61852  1.0000
  C   C494      1.0  0.58057  0.00306  0.50789  1.0000
  C   C495      1.0  0.70090  0.34333  0.55319  1.0000
  H   H834      1.0  0.63136  0.03977  0.45822  1.0000
  C   C496      1.0  0.63314  0.31265  0.58700  1.0000
  H   H835      1.0  0.59801  0.27672  0.65438  1.0000
  C   C497      1.0  0.64436  0.33395  0.54895  1.0000
  H   H836      1.0  0.69819  0.35293  0.56670  1.0000
  C   C498      1.0  0.58472  0.01436  0.52520  1.0000
  H   H837      1.0  0.69363  0.01354  0.47638  1.0000
  H   H838      1.0  0.64101  0.16434  0.64159  1.0000
  H   H839      1.0  0.62250  0.19895  0.62222  1.0000
  H   H840      1.0  0.51203  0.25101  0.56872  1.0000
  H   H841      1.0  0.51763  0.38651  0.64623  1.0000
  H   H842      1.0  0.59099  0.41862  0.60821  1.0000
  H   H843      1.0  0.59344  0.25036  0.60920  1.0000
  C   C499      1.0  0.63068  0.01792  0.45932  1.0000
  H   H844      1.0  0.49834  0.04087  0.57207  1.0000
  H   H845      1.0  0.59005  0.00156  0.53656  1.0000
  C   C500      1.0  0.63067  0.00793  0.43949  1.0000
  H   H846      1.0  0.50817  0.42065  0.50808  1.0000
  H   H847      1.0  0.70373  0.00662  0.44076  1.0000
  H   H848      1.0  0.61345  0.38381  0.66264  1.0000
  H   H849      1.0  0.49745  0.20654  0.56021  1.0000
  H   H850      1.0  0.54226  0.17979  0.63900  1.0000
  H   H851      1.0  0.72244  0.34216  0.55036  1.0000
  H   H852      1.0  0.60965  0.34800  0.64590  1.0000
  H   H853      1.0  0.62734  0.05779  0.48586  1.0000
  C   C501      1.0  0.58528  0.26131  0.64885  1.0000
  C   C502      1.0  0.64650  0.04943  0.49130  1.0000
  H   H854      1.0  0.56461  0.39915  0.61373  1.0000
  C   C503      1.0  0.52474  0.40688  0.64592  1.0000
  H   H855      1.0  0.52580  0.24028  0.54755  1.0000
  H   H856      1.0  0.59048  0.43294  0.64290  1.0000
  C   C504      1.0  0.50452  0.08095  0.50182  1.0000
  H   H857      1.0  0.52637  0.37770  0.51752  1.0000
  H   H858      1.0  0.63495  0.31461  0.60203  1.0000
  C   C505      1.0  0.50481  0.04880  0.55883  1.0000
  H   H859      1.0  0.61813  0.32808  0.58261  1.0000
  H   H860      1.0  0.65634  0.28313  0.53734  1.0000
  C   C506      1.0  0.67926  0.01344  0.46482  1.0000
  C   C507      1.0  0.50748  0.37719  0.50973  1.0000
  H   H861      1.0  0.70389  0.30278  0.56166  1.0000
  H   H862      1.0  0.64719  0.05571  0.50583  1.0000
  C   C508      1.0  0.50279  0.34503  0.57872  1.0000
  C   C509      1.0  0.49655  0.32009  0.52050  1.0000
  H   H863      1.0  0.66265  0.26215  0.57668  1.0000
  C   C510      1.0  0.50453  0.39085  0.58838  1.0000
  C   C511      1.0  0.58845  0.41264  0.63739  1.0000
  H   H864      1.0  0.58776  0.33366  0.63007  1.0000
  H   H865      1.0  0.61372  0.23138  0.65768  1.0000
  C   C512      1.0  0.49520  0.10784  0.59176  1.0000
  H   H866      1.0  0.66330  0.32684  0.52189  1.0000
  H   H867      1.0  0.62345  0.33201  0.55294  1.0000
  H   H868      1.0  0.49899  0.26466  0.54748  1.0000
  C   C513      1.0  0.66033  0.31665  0.57841  1.0000
  H   H869      1.0  0.62878  0.32028  0.52270  1.0000
  C   C514      1.0  0.64409  0.33339  0.52789  1.0000
  H   H870      1.0  0.62604  0.29271  0.58423  1.0000
  H   H871      1.0  0.60280  0.36338  0.62394  1.0000
  C   C515      1.0  0.50516  0.07703  0.52265  1.0000
  H   H872      1.0  0.56889  0.23631  0.59516  1.0000
  C   C516      1.0  0.66687  0.26225  0.56189  1.0000
  H   H873      1.0  0.63964  0.35368  0.52263  1.0000
  N   N37       1.0  0.66207  0.31300  0.55804  1.0000
  H   H874      1.0  0.56165  0.35617  0.65443  1.0000
  H   H875      1.0  0.69439  0.30700  0.53874  1.0000
  H   H876      1.0  0.50605  0.47416  0.48281  1.0000
  C   C517      1.0  0.59341  0.11049  0.65820  1.0000
  H   H877      1.0  0.52746  0.41299  0.63166  1.0000
  H   H878      1.0  0.51200  0.09548  0.52907  1.0000
  H   H879      1.0  0.51156  0.36154  0.49941  1.0000
  H   H880      1.0  0.51186  0.32155  0.50991  1.0000
  H   H881      1.0  0.67843  0.03391  0.45924  1.0000
  C   C518      1.0  0.57174  0.20285  0.65355  1.0000
  H   H882      1.0  0.61815  0.24136  0.63495  1.0000
  C   C519      1.0  0.50386  0.40354  0.49924  1.0000
  C   C520      1.0  0.58416  0.23164  0.60577  1.0000
  H   H883      1.0  0.59897  0.21760  0.59939  1.0000
  C   C521      1.0  0.56651  0.10571  0.65705  1.0000
  H   H884      1.0  0.50097  0.06225  0.49449  1.0000
  C   C522      1.0  0.60881  0.19113  0.63242  1.0000
  H   H885      1.0  0.57553  0.26956  0.63641  1.0000
  H   H886      1.0  0.55382  0.23287  0.62643  1.0000
  H   H887      1.0  0.59936  0.17463  0.62522  1.0000
  H   H888      1.0  0.55477  0.36927  0.63265  1.0000
  H   H889      1.0  0.52144  0.06191  0.52551  1.0000
  N   N38       1.0  0.58850  0.21234  0.63825  1.0000
  H   H890      1.0  0.66314  0.05829  0.48426  1.0000
  H   H891      1.0  0.66081  0.44253  0.64216  1.0000
  H   H892      1.0  0.64779  0.01482  0.43185  1.0000
  C   C523      1.0  0.54976  0.40920  0.65782  1.0000
  H   H893      1.0  0.49627  0.06861  0.60328  1.0000
  H   H894      1.0  0.56160  0.20131  0.61687  1.0000
  C   C524      1.0  0.55746  0.17722  0.64984  1.0000
  C   C525      1.0  0.62660  0.17906  0.64774  1.0000
  H   H895      1.0  0.51158  0.34736  0.53987  1.0000
  C   C526      1.0  0.59419  0.35282  0.63550  1.0000
  C   C527      1.0  0.50693  0.24650  0.55437  1.0000
  H   H896      1.0  0.52360  0.05880  0.56101  1.0000
  H   H897      1.0  0.63828  0.19406  0.65469  1.0000
  H   H898      1.0  0.49723  0.11872  0.66485  1.0000
  H   H899      1.0  0.50859  0.42009  0.65162  1.0000
  H   H900      1.0  0.49590  0.16508  0.64044  1.0000
  H   H901      1.0  0.61522  0.16833  0.65792  1.0000
  H   H902      1.0  0.50903  0.03139  0.54998  1.0000
  H   H903      1.0  0.50123  0.39258  0.54497  1.0000
  C   C528      1.0  0.52247  0.48100  0.49139  1.0000
  C   C529      1.0  0.64825  0.01891  0.49033  1.0000
  H   H904      1.0  0.50033  0.48139  0.51642  1.0000
  H   H905      1.0  0.56974  0.01178  0.48012  1.0000
  H   H906      1.0  0.61102  0.01410  0.46512  1.0000
  H   H907      1.0  0.66453  0.01239  0.49982  1.0000
  H   H908      1.0  0.55228  0.43072  0.66001  1.0000
  C   C530      1.0  0.69228  0.99473  0.45028  1.0000
  H   H909      1.0  0.62995  0.01201  0.49662  1.0000
  C   C531      1.0  0.59364  0.39173  0.66709  1.0000
  H   H910      1.0  0.53523  0.49347  0.48323  1.0000
  Fe  Fe73      1.0  0.86625  0.33741  0.79116  1.0000
  S   S146      1.0  0.85908  0.32703  0.82047  1.0000
  S   S147      1.0  0.83416  0.34058  0.76864  1.0000
  Fe  Fe74      1.0  0.92817  0.33629  0.79707  1.0000
  S   S148      1.0  0.92448  0.32632  0.82652  1.0000
  S   S149      1.0  0.96905  0.33369  0.78370  1.0000
  Fe  Fe75      1.0  0.89432  0.29846  0.81747  1.0000
  S   S150      1.0  0.90000  0.25674  0.82726  1.0000
  Fe  Fe76      1.0  0.89007  0.35601  0.82683  1.0000
  S   S151      1.0  0.88892  0.38495  0.85028  1.0000
  S   S152      1.0  0.89952  0.30624  0.78783  1.0000
  S   S153      1.0  0.89550  0.36858  0.79767  1.0000
  Fe  Fe77      1.0  0.66759  0.37206  0.69124  1.0000
  S   S154      1.0  0.65418  0.38496  0.71923  1.0000
  H   H911      1.0  0.92294  0.25375  0.87919  1.0000
  Fe  Fe78      1.0  0.66336  0.31445  0.70083  1.0000
  S   S155      1.0  0.64830  0.32340  0.72895  1.0000
  S   S156      1.0  0.66764  0.27199  0.69193  1.0000
  Fe  Fe79      1.0  0.62248  0.35559  0.71558  1.0000
  S   S157      1.0  0.57869  0.37022  0.71553  1.0000
  Fe  Fe80      1.0  0.68166  0.35155  0.72986  1.0000
  S   S158      1.0  0.70802  0.35163  0.75577  1.0000
  S   S159      1.0  0.63551  0.34406  0.68733  1.0000
  S   S160      1.0  0.69741  0.34105  0.70203  1.0000
  Fe  Fe81      1.0  0.79585  0.16318  0.82150  1.0000
  S   S161      1.0  0.80319  0.16453  0.79154  1.0000
  S   S162      1.0  0.79251  0.20147  0.83705  1.0000
  Fe  Fe82      1.0  0.79494  0.10418  0.82188  1.0000
  S   S163      1.0  0.80254  0.10092  0.79166  1.0000
  S   S164      1.0  0.78558  0.06867  0.83862  1.0000
  Fe  Fe83      1.0  0.83314  0.13096  0.79701  1.0000
  S   S165      1.0  0.87307  0.13280  0.78277  1.0000
  Fe  Fe84      1.0  0.77174  0.13480  0.78905  1.0000
  S   S166      1.0  0.74075  0.13863  0.76586  1.0000
  S   S167      1.0  0.82749  0.13146  0.82734  1.0000
  S   S168      1.0  0.76248  0.13605  0.81888  1.0000
  Fe  Fe85      1.0  0.58212  0.14176  0.73644  1.0000
  S   S169      1.0  0.58939  0.15000  0.70673  1.0000
  S   S170      1.0  0.61406  0.13664  0.75903  1.0000
  Fe  Fe86      1.0  0.52035  0.14897  0.73168  1.0000
  S   S171      1.0  0.52432  0.15816  0.70215  1.0000
  C   C532      1.0  0.98158  0.35036  0.94568  1.0000
  Fe  Fe87      1.0  0.55499  0.12468  0.70126  1.0000
  H   H912      1.0  0.81759  0.02430  0.95859  1.0000
  Fe  Fe88      1.0  0.55783  0.18244  0.71016  1.0000
  S   S172      1.0  0.55644  0.22338  0.69874  1.0000
  S   S173      1.0  0.54941  0.11352  0.73072  1.0000
  S   S174      1.0  0.55226  0.17619  0.73994  1.0000
  Fe  Fe89      1.0  0.86621  0.11288  0.96003  1.0000
  S   S175      1.0  0.87598  0.09761  0.93190  1.0000
  N   N39       1.0  0.92085  0.29081  0.89419  1.0000
  Fe  Fe90      1.0  0.87417  0.05528  0.97618  1.0000
  S   S176      1.0  0.88476  0.03773  0.94895  1.0000
  H   H913      1.0  0.75546  0.04508  0.76203  1.0000
  Fe  Fe91      1.0  0.90849  0.07360  0.94556  1.0000
  S   S177      1.0  0.94919  0.07343  0.93364  1.0000
  Fe  Fe92      1.0  0.85104  0.06387  0.93804  1.0000
  S   S178      1.0  0.81822  0.04742  0.92123  1.0000
  S   S179      1.0  0.83880  0.07999  0.96541  1.0000
  Fe  Fe93      1.0  0.87978  0.30786  0.98075  1.0000
  S   S180      1.0  0.89089  0.30936  0.95153  1.0000
  C   C533      1.0  0.93629  0.26921  0.88394  1.0000
  Fe  Fe94      1.0  0.88636  0.36917  0.98582  1.0000
  S   S181      1.0  0.89860  0.37381  0.95649  1.0000
  H   H914      1.0  0.56498  0.32626  0.73934  1.0000
  Fe  Fe95      1.0  0.86571  0.34699  0.95003  1.0000
  S   S182      1.0  0.83967  0.34922  0.92489  1.0000
  Fe  Fe96      1.0  0.92242  0.33556  0.96036  1.0000
  S   S183      1.0  0.96287  0.32321  0.95035  1.0000
  S   S184      1.0  0.85160  0.34414  0.97913  1.0000
  H   H915      1.0  0.87172  0.44532  0.98473  1.0000
  C   C534      1.0  0.49973  0.35940  0.71981  1.0000
  H   H916      1.0  0.78824  0.03223  0.78101  1.0000
  H   H917      1.0  0.81798  0.12117  0.93390  1.0000
  C   C535      1.0  0.91618  0.26038  0.92209  1.0000
  C   C536      1.0  0.96999  0.37342  0.93788  1.0000
  H   H918      1.0  0.92934  0.12182  0.95116  1.0000
  C   C537      1.0  0.90253  0.27773  0.90711  1.0000
  C   C538      1.0  0.87502  0.21293  0.99306  1.0000
  C   C539      1.0  0.87095  0.18822  0.98476  1.0000
  C   C540      1.0  0.97615  0.22231  0.76384  1.0000
  H   H919      1.0  0.73302  0.07868  0.74193  1.0000
  C   C541      1.0  0.90398  0.30837  0.88175  1.0000
  C   C542      1.0  0.54693  0.33543  0.73376  1.0000
  C   C543      1.0  0.96513  0.10036  0.94277  1.0000
  C   C544      1.0  0.59889  0.41661  0.67854  1.0000
  H   H920      1.0  0.57182  0.27669  0.69933  1.0000
  C   C545      1.0  0.81044  0.05500  0.89826  1.0000
  C   C546      1.0  0.82595  0.07053  0.88721  1.0000
  C   C547      1.0  0.81841  0.07555  0.86887  1.0000
  C   C548      1.0  0.79560  0.06474  0.86162  1.0000
  C   C549      1.0  0.78049  0.04913  0.87272  1.0000
  C   C550      1.0  0.78773  0.04447  0.89089  1.0000
  H   H921      1.0  0.84393  0.07812  0.89264  1.0000
  H   H922      1.0  0.83060  0.08696  0.86020  1.0000
  H   H923      1.0  0.76303  0.04050  0.86721  1.0000
  H   H924      1.0  0.77573  0.03235  0.89924  1.0000
  C   C551      1.0  0.70541  0.13878  0.76439  1.0000
  C   C552      1.0  0.69303  0.14144  0.74719  1.0000
  C   C553      1.0  0.66523  0.14104  0.74523  1.0000
  C   C554      1.0  0.64930  0.13773  0.76048  1.0000
  C   C555      1.0  0.66169  0.13523  0.77770  1.0000
  C   C556      1.0  0.68944  0.13599  0.77968  1.0000
  H   H925      1.0  0.70505  0.14361  0.73521  1.0000
  H   H926      1.0  0.65615  0.14294  0.73188  1.0000
  H   H927      1.0  0.64964  0.13287  0.78964  1.0000
  H   H928      1.0  0.69839  0.13449  0.79307  1.0000
  C   C557      1.0  0.52451  0.36829  0.71459  1.0000
  C   C558      1.0  0.90515  0.12887  0.79283  1.0000
  C   C559      1.0  0.90895  0.12325  0.81134  1.0000
  H   H929      1.0  0.87276  0.17027  0.99271  1.0000
  H   H930      1.0  0.89200  0.12095  0.81996  1.0000
  C   C560      1.0  0.79005  0.14576  0.86895  1.0000
  C   C561      1.0  0.65587  0.25105  0.76939  1.0000
  C   C562      1.0  0.86320  0.18700  0.96646  1.0000
  H   H931      1.0  0.52136  0.31123  0.74920  1.0000
  H   H932      1.0  0.80794  0.15437  0.86359  1.0000
  C   C563      1.0  0.63692  0.25823  0.69407  1.0000
  C   C564      1.0  0.61412  0.27468  0.69637  1.0000
  C   C565      1.0  0.58945  0.26380  0.69784  1.0000
  C   C566      1.0  0.58762  0.23638  0.69760  1.0000
  C   C567      1.0  0.61051  0.21980  0.69589  1.0000
  C   C568      1.0  0.63516  0.23075  0.69389  1.0000
  H   H933      1.0  0.61533  0.29585  0.69690  1.0000
  H   H934      1.0  0.98346  0.08681  0.89691  1.0000
  H   H935      1.0  0.60923  0.19861  0.69567  1.0000
  H   H936      1.0  0.65282  0.21796  0.69228  1.0000
  C   C569      1.0  0.87533  0.37458  0.87092  1.0000
  C   C570      1.0  0.88613  0.38287  0.88750  1.0000
  C   C571      1.0  0.87563  0.37485  0.90415  1.0000
  C   C572      1.0  0.85366  0.35925  0.90430  1.0000
  C   C573      1.0  0.84253  0.35141  0.88770  1.0000
  C   C574      1.0  0.85355  0.35872  0.87105  1.0000
  H   H937      1.0  0.90280  0.39537  0.88748  1.0000
  H   H938      1.0  0.88416  0.38123  0.91686  1.0000
  H   H939      1.0  0.82549  0.33940  0.88775  1.0000
  H   H940      1.0  0.84495  0.35234  0.85838  1.0000
  C   C575      1.0  0.87011  0.24172  0.83046  1.0000
  C   C576      1.0  0.84826  0.25570  0.83809  1.0000
  C   C577      1.0  0.82462  0.24302  0.84077  1.0000
  C   C578      1.0  0.82250  0.21683  0.83497  1.0000
  C   C579      1.0  0.84423  0.20315  0.82703  1.0000
  C   C580      1.0  0.86817  0.21535  0.82519  1.0000
  H   H941      1.0  0.84955  0.27615  0.84207  1.0000
  H   H942      1.0  0.80785  0.25364  0.84695  1.0000
  H   H943      1.0  0.84277  0.18311  0.82229  1.0000
  H   H944      1.0  0.88500  0.20440  0.81936  1.0000
  C   C581      1.0  0.79903  0.34482  0.76541  1.0000
  C   C582      1.0  0.78848  0.34351  0.74763  1.0000
  C   C583      1.0  0.76087  0.34570  0.74437  1.0000
  C   C584      1.0  0.74322  0.34934  0.75889  1.0000
  C   C585      1.0  0.75379  0.35072  0.77668  1.0000
  C   C586      1.0  0.78140  0.34858  0.77992  1.0000
  H   H945      1.0  0.80177  0.34066  0.73622  1.0000
  H   H946      1.0  0.75324  0.34461  0.73060  1.0000
  H   H947      1.0  0.74043  0.35341  0.78805  1.0000
  H   H948      1.0  0.78897  0.34909  0.79368  1.0000
  H   H949      1.0  0.85410  0.21010  0.94239  1.0000
  H   H950      1.0  0.95755  0.22608  0.94932  1.0000
  H   H951      1.0  0.71629  0.01709  0.79677  1.0000
  C   C587      1.0  0.95161  0.27759  0.86708  1.0000
  H   H952      1.0  0.97716  0.36478  0.99784  1.0000
  H   H953      1.0  0.67500  0.04371  0.79228  1.0000
  C   C588      1.0  0.54827  0.35649  0.72156  1.0000
  H   H954      1.0  0.77828  0.20665  0.90999  1.0000
  H   H955      1.0  0.64797  0.29389  0.76572  1.0000
  N   N40       1.0  0.82446  0.41770  0.81676  1.0000
  C   C589      1.0  0.82211  0.40099  0.79975  1.0000
  C   C590      1.0  0.82231  0.39935  0.83277  1.0000
  C   C591      1.0  0.85154  0.42873  0.81686  1.0000
  C   C592      1.0  0.80302  0.43963  0.81632  1.0000
  C   C593      1.0  0.82715  0.41472  0.78146  1.0000
  C   C594      1.0  0.79629  0.38498  0.83400  1.0000
  C   C595      1.0  0.85847  0.44646  0.83312  1.0000
  C   C596      1.0  0.98163  0.44975  0.97464  1.0000
  H   H956      1.0  0.83584  0.38303  0.80036  1.0000
  H   H957      1.0  0.80193  0.39353  0.79852  1.0000
  H   H958      1.0  0.82511  0.40939  0.84600  1.0000
  H   H959      1.0  0.83863  0.38373  0.83240  1.0000
  H   H960      1.0  0.86708  0.41234  0.81622  1.0000
  H   H961      1.0  0.85439  0.44114  0.80465  1.0000
  H   H962      1.0  0.80879  0.45584  0.80718  1.0000
  H   H963      1.0  0.78458  0.43223  0.81021  1.0000
  C   C597      1.0  0.72257  0.06941  0.75332  1.0000
  H   H964      1.0  0.70724  0.08426  0.75794  1.0000
  H   H965      1.0  0.60862  0.43180  0.67053  1.0000
  H   H966      1.0  0.97358  0.11881  0.88987  1.0000
  H   H967      1.0  0.79509  0.37575  0.84766  1.0000
  H   H968      1.0  0.77856  0.39853  0.83224  1.0000
  H   H969      1.0  0.84655  0.46548  0.83296  1.0000
  C   C598      1.0  0.99267  0.10046  0.94230  1.0000
  H   H970      1.0  0.85691  0.43649  0.84643  1.0000
  H   H971      1.0  0.94929  0.26729  0.96493  1.0000
  H   H972      1.0  0.93833  0.28654  0.85647  1.0000
  H   H973      1.0  0.76553  0.00669  0.78627  1.0000
  H   H974      1.0  0.97028  0.13066  0.78051  1.0000
  H   H975      1.0  0.98240  0.14636  0.85321  1.0000
  H   H976      1.0  0.97144  0.10015  0.85638  1.0000
  H   H977      1.0  0.94241  0.18215  0.76621  1.0000
  H   H978      1.0  0.97398  0.18113  0.78976  1.0000
  C   C599      1.0  0.94536  0.24458  0.78471  1.0000
  H   H979      1.0  0.98231  0.24712  0.94143  1.0000
  C   C600      1.0  0.76957  0.00875  0.94757  1.0000
  H   H980      1.0  0.97410  0.06801  0.86712  1.0000
  H   H981      1.0  0.97320  0.47047  0.97586  1.0000
  H   H982      1.0  0.78790  0.12681  0.86151  1.0000
  H   H983      1.0  0.81651  0.01184  0.99926  1.0000
  H   H984      1.0  0.62823  0.27487  0.75062  1.0000
  C   C601      1.0  0.83600  0.14259  0.90187  1.0000
  H   H985      1.0  0.52526  0.38471  0.70527  1.0000
  C   C602      1.0  0.97051  0.20225  0.79382  1.0000
  H   H986      1.0  0.89620  0.18652  0.77433  1.0000
  C   C603      1.0  0.68551  0.03500  0.78029  1.0000
  H   H987      1.0  0.76640  0.06357  0.80195  1.0000
  C   C604      1.0  0.98551  0.39500  0.93434  1.0000
  N   N41       1.0  0.95646  0.21768  0.77872  1.0000
  H   H988      1.0  0.75602  0.07820  0.77013  1.0000
  S   S185      1.0  0.67131  0.40475  0.67051  1.0000
  C   C605      1.0  0.87223  0.23665  0.98309  1.0000
  H   H989      1.0  0.64563  0.23961  0.77992  1.0000
  C   C606      1.0  0.79781  0.12917  0.93032  1.0000
  H   H990      1.0  0.93592  0.25541  0.77296  1.0000
  C   C607      1.0  0.70911  0.07364  0.81482  1.0000
  H   H991      1.0  0.90078  0.25303  0.93121  1.0000
  H   H992      1.0  0.79580  0.36868  0.82387  1.0000
  H   H993      1.0  0.97516  0.05100  0.98649  1.0000
  N   N42       1.0  0.96664  0.24534  0.98770  1.0000
  H   H994      1.0  0.87155  0.13232  0.88662  1.0000
  H   H995      1.0  0.61283  0.41076  0.68975  1.0000
  C   C608      1.0  0.67257  0.24752  0.73720  1.0000
  H   H996      1.0  0.84846  0.15227  0.91230  1.0000
  C   C609      1.0  0.49420  0.22948  0.72816  1.0000
  H   H997      1.0  0.74841  0.03856  0.81207  1.0000
  H   H998      1.0  0.49799  0.26788  0.74234  1.0000
  H   H999      1.0  0.92849  0.23062  0.98040  1.0000
  C   C610      1.0  0.95333  0.12898  0.78923  1.0000
  H   H1000     1.0  0.92923  0.24336  0.79463  1.0000
  C   C611      1.0  0.95716  0.20245  0.81275  1.0000
  H   H1001     1.0  0.83529  0.12160  0.90610  1.0000
  H   H1002     1.0  0.92699  0.21213  0.75776  1.0000
  H   H1003     1.0  0.82074  0.40181  0.77014  1.0000
  H   H1004     1.0  0.67321  0.25925  0.77644  1.0000
  C   C612      1.0  0.52210  0.32697  0.73934  1.0000
  H   H1005     1.0  0.78713  0.13181  0.94343  1.0000
  C   C613      1.0  0.68972  0.21684  0.76039  1.0000
  H   H1006     1.0  0.89988  0.21620  0.78676  1.0000
  C   C614      1.0  0.95492  0.26649  0.00027  1.0000
  C   C615      1.0  0.75520  0.04585  0.79869  1.0000
  H   H1007     1.0  0.77238  0.02791  0.95455  1.0000
  H   H1008     1.0  0.84232  0.12902  0.87363  1.0000
  H   H1009     1.0  0.58075  0.42521  0.68513  1.0000
  H   H1010     1.0  0.92581  0.41540  0.98007  1.0000
  H   H1011     1.0  0.72329  0.01618  0.77322  1.0000
  N   N43       1.0  0.66526  0.23285  0.75414  1.0000
  H   H1012     1.0  0.93722  0.21223  0.81344  1.0000
  C   C616      1.0  0.95714  0.12279  0.80765  1.0000
  C   C617      1.0  0.64483  0.21331  0.74917  1.0000
  H   H1013     1.0  0.52603  0.24492  0.74442  1.0000
  C   C618      1.0  0.98476  0.10070  0.88521  1.0000
  H   H1014     1.0  0.98576  0.15393  0.87712  1.0000
  C   C619      1.0  0.61714  0.22486  0.74386  1.0000
  H   H1015     1.0  0.70094  0.05416  0.81747  1.0000
  N   N44       1.0  0.80858  0.15578  0.90141  1.0000
  H   H1016     1.0  0.79420  0.11867  0.89161  1.0000
  H   H1017     1.0  0.77545  0.44515  0.83925  1.0000
  C   C620      1.0  0.86519  0.23534  0.96466  1.0000
  H   H1018     1.0  0.65198  0.20042  0.73764  1.0000
  H   H1019     1.0  0.64143  0.19955  0.76053  1.0000
  C   C621      1.0  0.79015  0.14033  0.88969  1.0000
  H   H1020     1.0  0.69394  0.28082  0.72738  1.0000
  H   H1021     1.0  0.58613  0.37686  0.67664  1.0000
  C   C622      1.0  0.81894  0.00889  0.96937  1.0000
  H   H1022     1.0  0.93480  0.27333  0.99541  1.0000
  S   S186      1.0  0.98925  0.11642  0.81724  1.0000
  H   H1023     1.0  0.67980  0.23330  0.72644  1.0000
  H   H1024     1.0  0.69547  0.20118  0.75018  1.0000
  H   H1025     1.0  0.60674  0.23400  0.75575  1.0000
  H   H1026     1.0  0.60504  0.20844  0.73911  1.0000
  H   H1027     1.0  0.61749  0.23910  0.73251  1.0000
  H   H1028     1.0  0.67642  0.01595  0.77727  1.0000
  H   H1029     1.0  0.93740  0.11487  0.83283  1.0000
  H   H1030     1.0  0.67166  0.19027  0.78032  1.0000
  C   C623      1.0  0.93901  0.30739  0.90545  1.0000
  C   C624      1.0  0.94943  0.33233  0.89650  1.0000
  H   H1031     1.0  0.92871  0.31515  0.91793  1.0000
  H   H1032     1.0  0.95644  0.29522  0.91060  1.0000
  H   H1033     1.0  0.68144  0.04799  0.76844  1.0000
  H   H1034     1.0  0.93352  0.34826  0.89549  1.0000
  H   H1035     1.0  0.95797  0.32874  0.88288  1.0000
  N   N45       1.0  0.79870  0.26087  0.78070  1.0000
  C   C625      1.0  0.82519  0.26574  0.78933  1.0000
  C   C626      1.0  0.77829  0.27800  0.79078  1.0000
  C   C627      1.0  0.79990  0.26959  0.76111  1.0000
  C   C628      1.0  0.79401  0.23173  0.78198  1.0000
  C   C629      1.0  0.84962  0.25196  0.78020  1.0000
  C   C630      1.0  0.77609  0.27259  0.81135  1.0000
  C   C631      1.0  0.77398  0.27026  0.75000  1.0000
  C   C632      1.0  0.76505  0.22351  0.78035  1.0000
  H   H1036     1.0  0.82856  0.28736  0.78984  1.0000
  H   H1037     1.0  0.82585  0.25893  0.80367  1.0000
  H   H1038     1.0  0.75820  0.27685  0.78498  1.0000
  H   H1039     1.0  0.78266  0.29910  0.78935  1.0000
  H   H1040     1.0  0.80753  0.28980  0.76033  1.0000
  H   H1041     1.0  0.81413  0.25650  0.75329  1.0000
  H   H1042     1.0  0.80573  0.22036  0.77150  1.0000
  H   H1043     1.0  0.80154  0.22385  0.79532  1.0000
  H   H1044     1.0  0.85370  0.26080  0.76678  1.0000
  H   H1045     1.0  0.86721  0.25501  0.78892  1.0000
  H   H1046     1.0  0.84791  0.23028  0.77887  1.0000
  H   H1047     1.0  0.77500  0.25126  0.81443  1.0000
  H   H1048     1.0  0.79283  0.28073  0.81898  1.0000
  H   H1049     1.0  0.75779  0.28291  0.81665  1.0000
  H   H1050     1.0  0.77798  0.27806  0.73622  1.0000
  H   H1051     1.0  0.75836  0.28394  0.75580  1.0000
  H   H1052     1.0  0.76685  0.25017  0.74788  1.0000
  H   H1053     1.0  0.76430  0.20591  0.77126  1.0000
  H   H1054     1.0  0.75077  0.23859  0.77478  1.0000
  H   H1055     1.0  0.75792  0.21699  0.79382  1.0000
  C   C633      1.0  0.95067  0.12093  0.95161  1.0000
  C   C634      1.0  0.79472  0.45233  0.83481  1.0000
  C   C635      1.0  0.98936  0.19733  0.75485  1.0000
  C   C636      1.0  0.96380  0.14015  0.96143  1.0000
  H   H1056     1.0  0.96133  0.25964  0.86075  1.0000
  H   H1057     1.0  0.94918  0.37451  0.93441  1.0000
  H   H1058     1.0  0.95252  0.15521  0.96902  1.0000
  H   H1059     1.0  0.76753  0.19095  0.88916  1.0000
  H   H1060     1.0  0.95095  0.25870  0.89307  1.0000
  H   H1061     1.0  0.91606  0.31877  0.87176  1.0000
  C   C637      1.0  0.87628  0.45318  0.99803  1.0000
  H   H1062     1.0  0.70674  0.19121  0.78160  1.0000
  H   H1063     1.0  0.69018  0.28137  0.75149  1.0000
  H   H1064     1.0  0.87948  0.45147  0.83192  1.0000
  C   C638      1.0  0.92614  0.45079  0.96427  1.0000
  C   C639      1.0  0.93478  0.11993  0.81863  1.0000
  H   H1065     1.0  0.94741  0.09096  0.87263  1.0000
  H   H1066     1.0  0.90797  0.44456  0.95725  1.0000
  H   H1067     1.0  0.71329  0.05183  0.74756  1.0000
  C   C640      1.0  0.77526  0.02428  0.79156  1.0000
  H   H1068     1.0  0.76934  0.14435  0.89416  1.0000
  H   H1069     1.0  0.92970  0.27159  0.93077  1.0000
  C   C641      1.0  0.97952  0.40464  0.98729  1.0000
  C   C642      1.0  0.68820  0.20352  0.77924  1.0000
  H   H1070     1.0  0.77905  0.00880  0.93401  1.0000
  H   H1071     1.0  0.89370  0.32436  0.88985  1.0000
  C   C643      1.0  0.92751  0.13165  0.78185  1.0000
  H   H1072     1.0  0.72622  0.07627  0.82409  1.0000
  H   H1073     1.0  0.98204  0.44505  0.95977  1.0000
  H   H1074     1.0  0.78640  0.21975  0.88834  1.0000
  H   H1075     1.0  0.68685  0.21828  0.79046  1.0000
  H   H1076     1.0  0.88911  0.29291  0.91390  1.0000
  C   C644      1.0  0.69386  0.26807  0.73965  1.0000
  C   C645      1.0  0.97534  0.23653  0.95355  1.0000
  H   H1077     1.0  0.49473  0.26091  0.69663  1.0000
  H   H1078     1.0  0.92700  0.24271  0.91628  1.0000
  H   H1079     1.0  0.77247  0.15855  0.86498  1.0000
  H   H1080     1.0  0.97516  0.18627  0.74663  1.0000
  C   C646      1.0  0.86038  0.21072  0.95648  1.0000
  C   C647      1.0  0.96542  0.26281  0.79337  1.0000
  C   C648      1.0  0.74291  0.06136  0.76823  1.0000
  S   S187      1.0  0.85451  0.15694  0.95577  1.0000
  H   H1081     1.0  0.95546  0.20683  0.97800  1.0000
  H   H1082     1.0  0.96740  0.29093  0.87066  1.0000
  C   C649      1.0  0.96377  0.38267  0.99583  1.0000
  C   C650      1.0  0.63734  0.27532  0.76429  1.0000
  H   H1083     1.0  0.69898  0.08252  0.78698  1.0000
  H   H1084     1.0  0.95529  0.18174  0.81738  1.0000
  C   C651      1.0  0.71721  0.07682  0.79475  1.0000
  H   H1085     1.0  0.81801  0.18580  0.88151  1.0000
  H   H1086     1.0  0.72938  0.09453  0.79421  1.0000
  H   H1087     1.0  0.81039  0.16917  0.92956  1.0000
  H   H1088     1.0  0.82457  0.19440  0.90425  1.0000
  S   S188      1.0  0.90044  0.08995  0.97359  1.0000
  H   H1089     1.0  0.65522  0.25805  0.73084  1.0000
  H   H1090     1.0  0.85465  0.16157  0.87833  1.0000
  H   H1091     1.0  0.92481  0.13563  0.76748  1.0000
  H   H1092     1.0  0.88920  0.26454  0.89967  1.0000
  C   C652      1.0  0.88261  0.29462  0.87076  1.0000
  H   H1093     1.0  0.95454  0.28008  0.79974  1.0000
  H   H1094     1.0  0.70696  0.22933  0.76156  1.0000
  H   H1095     1.0  0.87521  0.30804  0.85973  1.0000
  C   C653      1.0  0.78390  0.20103  0.89585  1.0000
  H   H1096     1.0  0.74800  0.00753  0.94520  1.0000
  S   S189      1.0  0.91315  0.33238  0.98990  1.0000
  H   H1097     1.0  0.96682  0.23461  0.75273  1.0000
  H   H1098     1.0  0.97661  0.41284  0.92832  1.0000
  H   H1099     1.0  0.86537  0.29064  0.87941  1.0000
  C   C654      1.0  0.85157  0.14169  0.88392  1.0000
  H   H1100     1.0  0.77781  0.16500  0.92131  1.0000
  H   H1101     1.0  0.71400  0.25847  0.74057  1.0000
  N   N46       1.0  0.73202  0.05320  0.78634  1.0000
  C   C655      1.0  0.71532  0.02948  0.78425  1.0000
  H   H1102     1.0  0.99070  0.20948  0.79596  1.0000
  C   C656      1.0  0.91058  0.19764  0.78242  1.0000
  C   C657      1.0  0.49836  0.33895  0.73246  1.0000
  H   H1103     1.0  0.93813  0.46036  0.95385  1.0000
  H   H1104     1.0  0.62078  0.27716  0.77415  1.0000
  C   C658      1.0  0.79842  0.15627  0.92074  1.0000
  C   C659      1.0  0.81018  0.18416  0.89548  1.0000
  S   S190      1.0  0.87770  0.26726  0.99427  1.0000
  H   H1105     1.0  0.78745  0.11436  0.92217  1.0000
  C   C660      1.0  0.96880  0.08936  0.86927  1.0000
  H   H1106     1.0  0.89026  0.27607  0.86421  1.0000
  C   C661      1.0  0.94090  0.42605  0.97248  1.0000
  H   H1107     1.0  0.98524  0.36430  0.81568  1.0000
  H   H1108     1.0  0.80922  0.44967  0.84602  1.0000
  H   H1109     1.0  0.86266  0.25338  0.95685  1.0000
  H   H1110     1.0  0.91970  0.46554  0.97474  1.0000
  H   H1111     1.0  0.81581  0.43395  0.78010  1.0000
  H   H1112     1.0  0.84855  0.41726  0.77937  1.0000
  H   H1113     1.0  0.98313  0.27220  0.96822  1.0000
  C   C662      1.0  0.50406  0.24666  0.74396  1.0000
  H   H1114     1.0  0.97859  0.27094  0.78300  1.0000
  H   H1115     1.0  0.91591  0.18508  0.79432  1.0000
  C   C663      1.0  0.93471  0.20223  0.77041  1.0000
  H   H1116     1.0  0.96516  0.34013  0.90531  1.0000
  C   C664      1.0  0.87354  0.48083  0.00132  1.0000
  H   H1117     1.0  0.49781  0.20839  0.73220  1.0000
  H   H1118     1.0  0.69379  0.08933  0.81838  1.0000
  H   H1119     1.0  0.50784  0.23200  0.71674  1.0000
  H   H1120     1.0  0.78491  0.01709  0.98808  1.0000
  C   C665      1.0  0.96842  0.25676  0.96883  1.0000
  H   H1121     1.0  0.99269  0.23380  0.76908  1.0000
  H   H1122     1.0  0.94673  0.41296  0.96080  1.0000
  N   N47       1.0  0.96454  0.43092  0.98449  1.0000
  C   C666      1.0  0.95424  0.44271  0.00214  1.0000
  H   H1123     1.0  0.49701  0.23954  0.75726  1.0000
  H   H1124     1.0  0.97740  0.25278  0.80420  1.0000
  H   H1125     1.0  0.84048  0.00688  0.97232  1.0000
  C   C667      1.0  0.80623  0.02031  0.98702  1.0000
  H   H1126     1.0  0.99105  0.22161  0.95772  1.0000
  S   S191      1.0  0.54830  0.09882  0.67669  1.0000
  H   H1127     1.0  0.96981  0.21200  0.82299  1.0000
  H   H1128     1.0  0.80768  0.04212  0.98725  1.0000
  H   H1129     1.0  0.79126  0.47404  0.83297  1.0000
  H   H1130     1.0  0.97524  0.30127  0.99006  1.0000
  C   C668      1.0  0.99294  0.23416  0.99492  1.0000
  C   C669      1.0  0.99141  0.13917  0.96199  1.0000
  C   C670      1.0  0.94757  0.22341  0.98678  1.0000
  H   H1131     1.0  0.60331  0.11003  0.67131  1.0000
  H   H1132     1.0  0.94769  0.37669  0.98666  1.0000
  H   H1133     1.0  0.95121  0.10202  0.99151  1.0000
  H   H1134     1.0  0.78851  0.01764  0.80299  1.0000
  H   H1135     1.0  0.98717  0.39686  0.97403  1.0000
  S   S192      1.0  0.87243  0.02891  0.00168  1.0000
  H   H1136     1.0  0.49383  0.28780  0.71295  1.0000
  H   H1137     1.0  0.94319  0.46195  0.99969  1.0000
  H   H1138     1.0  0.54459  0.40118  0.67142  1.0000
  C   C671      1.0  0.99235  0.06389  0.98693  1.0000
  H   H1139     1.0  0.98632  0.08145  0.97855  1.0000
  H   H1140     1.0  0.49503  0.21189  0.69223  1.0000
  H   H1141     1.0  0.93042  0.19223  0.00234  1.0000
  Fe  Fe97      1.0  0.86247  0.86638  0.23380  1.0000
  S   S193      1.0  0.85586  0.84840  0.20604  1.0000
  S   S194      1.0  0.83322  0.87315  0.25766  1.0000
  Fe  Fe98      1.0  0.92298  0.87079  0.22693  1.0000
  S   S195      1.0  0.92040  0.85326  0.19915  1.0000
  S   S196      1.0  0.96161  0.88639  0.23784  1.0000
  Fe  Fe99      1.0  0.88313  0.87841  0.19548  1.0000
  S   S197      1.0  0.88097  0.90108  0.16903  1.0000
  Fe  Fe100     1.0  0.89383  0.82474  0.21162  1.0000
  S   S198      1.0  0.89963  0.78298  0.20174  1.0000
  S   S199      1.0  0.88716  0.89859  0.22268  1.0000
  S   S200      1.0  0.89895  0.83998  0.24009  1.0000
  C   C672      1.0  0.76911  0.55847  0.19044  1.0000
  S   S201      1.0  0.63969  0.89117  0.29280  1.0000
  H   H1142     1.0  0.96342  0.67840  0.25245  1.0000
  S   S202      1.0  0.65578  0.82915  0.29665  1.0000
  H   H1143     1.0  0.57931  0.89908  0.30109  1.0000
  Fe  Fe101     1.0  0.67823  0.86584  0.29282  1.0000
  S   S203      1.0  0.70792  0.86376  0.26891  1.0000
  Fe  Fe102     1.0  0.61820  0.85445  0.29938  1.0000
  S   S204      1.0  0.58112  0.83385  0.29027  1.0000
  H   H1144     1.0  0.92836  0.52936  0.16290  1.0000
  C   C673      1.0  0.95058  0.72828  0.22080  1.0000
  Fe  Fe103     1.0  0.83838  0.66538  0.23691  1.0000
  S   S205      1.0  0.84199  0.62616  0.25100  1.0000
  S   S206      1.0  0.84656  0.70207  0.25273  1.0000
  Fe  Fe104     1.0  0.82370  0.64110  0.20050  1.0000
  S   S207      1.0  0.82580  0.60026  0.21209  1.0000
  S   S208      1.0  0.81644  0.65127  0.17086  1.0000
  Fe  Fe105     1.0  0.80361  0.61897  0.23616  1.0000
  S   S209      1.0  0.76731  0.60134  0.24941  1.0000
  Fe  Fe106     1.0  0.86374  0.61217  0.22562  1.0000
  S   S210      1.0  0.90385  0.59081  0.21983  1.0000
  S   S211      1.0  0.79939  0.65918  0.22344  1.0000
  S   S212      1.0  0.86221  0.65201  0.21273  1.0000
  H   H1145     1.0  0.95330  0.95651  0.25580  1.0000
  S   S213      1.0  0.60151  0.61116  0.30268  1.0000
  Fe  Fe107     1.0  0.58747  0.68312  0.31819  1.0000
  S   S214      1.0  0.58044  0.66985  0.28950  1.0000
  S   S215      1.0  0.57486  0.72462  0.32591  1.0000
  Fe  Fe108     1.0  0.56220  0.63502  0.30268  1.0000
  S   S216      1.0  0.52267  0.61568  0.29883  1.0000
  Fe  Fe109     1.0  0.62049  0.64759  0.29236  1.0000
  S   S217      1.0  0.65377  0.65460  0.27183  1.0000
  H   H1146     1.0  0.92917  0.90773  0.31701  1.0000
  S   S218      1.0  0.62810  0.66373  0.32041  1.0000
  Fe  Fe110     1.0  0.86625  0.84924  0.07113  1.0000
  S   S219      1.0  0.84969  0.84652  0.04262  1.0000
  S   S220      1.0  0.84100  0.84740  0.09628  1.0000
  Fe  Fe111     1.0  0.92225  0.83832  0.05850  1.0000
  S   S221      1.0  0.91011  0.83434  0.02932  1.0000
  S   S222      1.0  0.96368  0.82609  0.06696  1.0000
  Fe  Fe112     1.0  0.88381  0.87126  0.03455  1.0000
  H   H1147     1.0  0.95845  0.56376  0.13630  1.0000
  Fe  Fe113     1.0  0.87755  0.81035  0.03996  1.0000
  S   S223      1.0  0.86541  0.77074  0.02836  1.0000
  S   S224      1.0  0.89832  0.87632  0.06350  1.0000
  S   S225      1.0  0.89182  0.81200  0.06859  1.0000
  Fe  Fe114     1.0  0.85554  0.57136  0.08435  1.0000
  S   S226      1.0  0.84831  0.58690  0.05587  1.0000
  S   S227      1.0  0.82725  0.56532  0.10761  1.0000
  Fe  Fe115     1.0  0.91459  0.56568  0.07889  1.0000
  S   S228      1.0  0.91246  0.58056  0.05026  1.0000
  S   S229      1.0  0.95374  0.55617  0.09241  1.0000
  Fe  Fe116     1.0  0.88336  0.61225  0.06095  1.0000
  S   S230      1.0  0.89295  0.65620  0.06241  1.0000
  Fe  Fe117     1.0  0.87826  0.55372  0.04738  1.0000
  S   S231      1.0  0.87541  0.52698  0.02183  1.0000
  S   S232      1.0  0.88791  0.59821  0.08986  1.0000
  S   S233      1.0  0.88283  0.53704  0.07560  1.0000
  C   C674      1.0  0.88247  0.93770  0.00955  1.0000
  C   C675      1.0  0.75464  0.61582  0.19585  1.0000
  H   H1148     1.0  0.97464  0.91265  0.09595  1.0000
  H   H1149     1.0  0.86387  0.96090  0.26071  1.0000
  H   H1150     1.0  0.71985  0.64752  0.29715  1.0000
  H   H1151     1.0  0.85502  0.52093  0.13769  1.0000
  C   C676      1.0  0.97307  0.58290  0.08790  1.0000
  C   C677      1.0  0.96103  0.60769  0.08383  1.0000
  H   H1152     1.0  0.53816  0.75147  0.29907  1.0000
  H   H1153     1.0  0.93981  0.61056  0.08346  1.0000
  C   C678      1.0  0.87321  0.73898  0.03797  1.0000
  C   C679      1.0  0.86246  0.71649  0.03007  1.0000
  C   C680      1.0  0.86791  0.69099  0.03741  1.0000
  C   C681      1.0  0.88434  0.68769  0.05271  1.0000
  C   C682      1.0  0.89489  0.71021  0.06069  1.0000
  C   C683      1.0  0.88938  0.73567  0.05341  1.0000
  H   H1154     1.0  0.95470  0.94703  0.04398  1.0000
  H   H1155     1.0  0.97235  0.86975  0.04182  1.0000
  H   H1156     1.0  0.56176  0.88568  0.32630  1.0000
  H   H1157     1.0  0.52356  0.75790  0.32727  1.0000
  H   H1158     1.0  0.69204  0.57506  0.16100  1.0000
  H   H1159     1.0  0.98372  0.94133  0.01406  1.0000
  H   H1160     1.0  0.90355  0.95414  0.29756  1.0000
  C   C684      1.0  0.96896  0.87442  0.08368  1.0000
  C   C685      1.0  0.68844  0.58802  0.21064  1.0000
  H   H1161     1.0  0.94838  0.87887  0.08060  1.0000
  C   C686      1.0  0.82076  0.62684  0.15372  1.0000
  C   C687      1.0  0.82926  0.63415  0.13638  1.0000
  C   C688      1.0  0.83182  0.61535  0.12223  1.0000
  C   C689      1.0  0.82495  0.58931  0.12514  1.0000
  C   C690      1.0  0.81600  0.58212  0.14239  1.0000
  C   C691      1.0  0.81461  0.60062  0.15676  1.0000
  H   H1162     1.0  0.83390  0.65442  0.13388  1.0000
  H   H1163     1.0  0.83838  0.62120  0.10892  1.0000
  H   H1164     1.0  0.81064  0.56201  0.14471  1.0000
  H   H1165     1.0  0.80835  0.59471  0.17007  1.0000
  C   C692      1.0  0.73652  0.61705  0.25657  1.0000
  C   C693      1.0  0.71805  0.60201  0.26564  1.0000
  C   C694      1.0  0.69287  0.61314  0.27063  1.0000
  C   C695      1.0  0.68564  0.63955  0.26652  1.0000
  C   C696      1.0  0.70406  0.65455  0.25734  1.0000
  C   C697      1.0  0.72933  0.64351  0.25253  1.0000
  H   H1166     1.0  0.72314  0.58144  0.26865  1.0000
  H   H1167     1.0  0.67886  0.60110  0.27732  1.0000
  H   H1168     1.0  0.69877  0.67489  0.25388  1.0000
  H   H1169     1.0  0.74309  0.65535  0.24542  1.0000
  H   H1170     1.0  0.92808  0.69724  0.19327  1.0000
  C   C698      1.0  0.93439  0.60310  0.22738  1.0000
  H   H1171     1.0  0.97795  0.86259  0.12231  1.0000
  H   H1172     1.0  0.95554  0.58987  0.20334  1.0000
  H   H1173     1.0  0.91971  0.61758  0.25318  1.0000
  H   H1174     1.0  0.90741  0.70788  0.07263  1.0000
  H   H1175     1.0  0.86261  0.56067  0.15307  1.0000
  H   H1176     1.0  0.99175  0.60061  0.14326  1.0000
  H   H1177     1.0  0.66556  0.70003  0.29925  1.0000
  H   H1178     1.0  0.58912  0.74352  0.28925  1.0000
  C   C699      1.0  0.54772  0.84654  0.29053  1.0000
  C   C700      1.0  0.52831  0.83243  0.29938  1.0000
  C   C701      1.0  0.53968  0.86873  0.28022  1.0000
  N   N48       1.0  0.97804  0.90124  0.02276  1.0000
  H   H1179     1.0  0.55420  0.87916  0.27274  1.0000
  C   C702      1.0  0.98860  0.88188  0.03701  1.0000
  C   C703      1.0  0.57557  0.92086  0.30111  1.0000
  C   C704      1.0  0.87028  0.98210  0.02099  1.0000
  H   H1180     1.0  0.90735  0.56545  0.18083  1.0000
  C   C705      1.0  0.94735  0.92692  0.04564  1.0000
  H   H1181     1.0  0.95321  0.69246  0.03175  1.0000
  H   H1182     1.0  0.84989  0.71877  0.01815  1.0000
  H   H1183     1.0  0.51856  0.70747  0.30851  1.0000
  H   H1184     1.0  0.49508  0.77874  0.30446  1.0000
  C   C706      1.0  0.71188  0.60573  0.20810  1.0000
  C   C707      1.0  0.86997  0.88565  0.14896  1.0000
  C   C708      1.0  0.85737  0.86173  0.14951  1.0000
  C   C709      1.0  0.84834  0.85026  0.13328  1.0000
  C   C710      1.0  0.85255  0.86220  0.11639  1.0000
  C   C711      1.0  0.86571  0.88578  0.11581  1.0000
  C   C712      1.0  0.87410  0.89760  0.13208  1.0000
  H   H1185     1.0  0.85407  0.85240  0.16246  1.0000
  H   H1186     1.0  0.83812  0.83206  0.13381  1.0000
  H   H1187     1.0  0.86890  0.89521  0.10288  1.0000
  H   H1188     1.0  0.88377  0.91613  0.13158  1.0000
  H   H1189     1.0  0.97525  0.74837  0.24145  1.0000
  H   H1190     1.0  0.93258  0.89087  0.14383  1.0000
  N   N49       1.0  0.73327  0.59612  0.19508  1.0000
  C   C713      1.0  0.87547  0.52770  0.13666  1.0000
  H   H1191     1.0  0.87683  0.53713  0.12312  1.0000
  C   C714      1.0  0.88364  0.76153  0.21594  1.0000
  C   C715      1.0  0.87162  0.73982  0.20836  1.0000
  C   C716      1.0  0.85969  0.72184  0.21966  1.0000
  C   C717      1.0  0.86082  0.72487  0.23856  1.0000
  C   C718      1.0  0.87299  0.74654  0.24617  1.0000
  C   C719      1.0  0.88407  0.76513  0.23484  1.0000
  H   H1192     1.0  0.87112  0.73714  0.19373  1.0000
  H   H1193     1.0  0.84926  0.70590  0.21366  1.0000
  H   H1194     1.0  0.87401  0.74883  0.26082  1.0000
  H   H1195     1.0  0.89381  0.78165  0.24072  1.0000
  C   C720      1.0  0.79812  0.87172  0.26028  1.0000
  C   C721      1.0  0.78089  0.86865  0.24551  1.0000
  C   C722      1.0  0.75344  0.86671  0.24843  1.0000
  C   C723      1.0  0.74266  0.86779  0.26612  1.0000
  C   C724      1.0  0.75990  0.87102  0.28087  1.0000
  C   C725      1.0  0.78733  0.87303  0.27795  1.0000
  H   H1196     1.0  0.78867  0.86780  0.23181  1.0000
  H   H1197     1.0  0.74042  0.86432  0.23686  1.0000
  H   H1198     1.0  0.75209  0.87190  0.29455  1.0000
  H   H1199     1.0  0.80030  0.87546  0.28952  1.0000
  C   C726      1.0  0.92062  0.60350  0.13375  1.0000
  H   H1200     1.0  0.88373  0.86801  0.28079  1.0000
  H   H1201     1.0  0.93668  0.60392  0.14393  1.0000
  H   H1202     1.0  0.90783  0.62198  0.13486  1.0000
  N   N50       1.0  0.81377  0.75637  0.07788  1.0000
  C   C727      1.0  0.80514  0.75957  0.05821  1.0000
  C   C728      1.0  0.82415  0.72804  0.08015  1.0000
  C   C729      1.0  0.83594  0.77459  0.08121  1.0000
  C   C730      1.0  0.79045  0.76372  0.08995  1.0000
  C   C731      1.0  0.79757  0.78807  0.05194  1.0000
  C   C732      1.0  0.80458  0.70678  0.07520  1.0000
  C   C733      1.0  0.84879  0.77385  0.10027  1.0000
  C   C734      1.0  0.79094  0.75196  0.10941  1.0000
  H   H1203     1.0  0.82086  0.75156  0.04886  1.0000
  H   H1204     1.0  0.78762  0.74788  0.05522  1.0000
  H   H1205     1.0  0.83125  0.72373  0.09415  1.0000
  H   H1206     1.0  0.84193  0.72405  0.07154  1.0000
  H   H1207     1.0  0.85191  0.77057  0.07107  1.0000
  H   H1208     1.0  0.82905  0.79563  0.07923  1.0000
  H   H1209     1.0  0.78776  0.78566  0.09131  1.0000
  H   H1210     1.0  0.77189  0.75722  0.08351  1.0000
  H   H1211     1.0  0.78356  0.79864  0.06133  1.0000
  H   H1212     1.0  0.81541  0.79959  0.05019  1.0000
  H   H1213     1.0  0.78794  0.78735  0.03832  1.0000
  H   H1214     1.0  0.80227  0.70492  0.06020  1.0000
  H   H1215     1.0  0.81266  0.68721  0.08012  1.0000
  H   H1216     1.0  0.78496  0.71074  0.08153  1.0000
  H   H1217     1.0  0.83490  0.78204  0.11074  1.0000
  H   H1218     1.0  0.86556  0.78710  0.10035  1.0000
  H   H1219     1.0  0.85712  0.75395  0.10408  1.0000
  H   H1220     1.0  0.78176  0.76688  0.11893  1.0000
  H   H1221     1.0  0.81071  0.74645  0.11505  1.0000
  H   H1222     1.0  0.77838  0.73466  0.11007  1.0000
  H   H1223     1.0  0.70682  0.60989  0.30754  1.0000
  H   H1224     1.0  0.97617  0.70861  0.06894  1.0000
  H   H1225     1.0  0.96114  0.85127  0.01291  1.0000
  C   C735      1.0  0.66339  0.76750  0.27171  1.0000
  C   C736      1.0  0.93685  0.61498  0.24451  1.0000
  C   C737      1.0  0.66428  0.78925  0.25707  1.0000
  S   S234      1.0  0.88532  0.90235  0.01157  1.0000
  N   N51       1.0  0.70464  0.63018  0.33369  1.0000
  H   H1226     1.0  0.68145  0.75456  0.26967  1.0000
  H   H1227     1.0  0.66652  0.77672  0.28530  1.0000
  H   H1228     1.0  0.77073  0.61034  0.18611  1.0000
  H   H1229     1.0  0.68361  0.79856  0.25802  1.0000
  H   H1230     1.0  0.66260  0.78110  0.24310  1.0000
  H   H1231     1.0  0.64905  0.80552  0.25915  1.0000
  H   H1232     1.0  0.73931  0.59685  0.16595  1.0000
  C   C738      1.0  0.58877  0.75946  0.27895  1.0000
  N   N52       1.0  0.80016  0.78314  0.25900  1.0000
  C   C739      1.0  0.82314  0.80028  0.26267  1.0000
  C   C740      1.0  0.80108  0.77527  0.23914  1.0000
  C   C741      1.0  0.80431  0.75871  0.27059  1.0000
  C   C742      1.0  0.77484  0.79849  0.26414  1.0000
  C   C743      1.0  0.82742  0.80839  0.28273  1.0000
  C   C744      1.0  0.80275  0.79827  0.22553  1.0000
  C   C745      1.0  0.78508  0.73655  0.26749  1.0000
  C   C746      1.0  0.74943  0.79221  0.25363  1.0000
  H   H1233     1.0  0.84198  0.79047  0.25777  1.0000
  H   H1234     1.0  0.82079  0.81908  0.25495  1.0000
  H   H1235     1.0  0.78376  0.76405  0.23510  1.0000
  H   H1236     1.0  0.81844  0.76141  0.23651  1.0000
  H   H1237     1.0  0.82465  0.74973  0.26864  1.0000
  H   H1238     1.0  0.80292  0.76374  0.28533  1.0000
  H   H1239     1.0  0.77065  0.79634  0.27892  1.0000
  H   H1240     1.0  0.77681  0.82002  0.26234  1.0000
  H   H1241     1.0  0.83557  0.79150  0.29097  1.0000
  H   H1242     1.0  0.84224  0.82380  0.28325  1.0000
  H   H1243     1.0  0.80907  0.81709  0.28900  1.0000
  H   H1244     1.0  0.78912  0.81538  0.22903  1.0000
  H   H1245     1.0  0.82326  0.80496  0.22487  1.0000
  H   H1246     1.0  0.79762  0.79134  0.21163  1.0000
  H   H1247     1.0  0.78474  0.72944  0.25320  1.0000
  H   H1248     1.0  0.76498  0.74247  0.27235  1.0000
  H   H1249     1.0  0.79202  0.71916  0.27578  1.0000
  H   H1250     1.0  0.74995  0.79919  0.23935  1.0000
  H   H1251     1.0  0.73240  0.80329  0.26012  1.0000
  H   H1252     1.0  0.74533  0.77101  0.25375  1.0000
  H   H1253     1.0  0.49769  0.66540  0.28534  1.0000
  N   N53       1.0  0.98569  0.73327  0.04603  1.0000
  H   H1254     1.0  0.97102  0.53693  0.14988  1.0000
  H   H1255     1.0  0.83768  0.94520  0.27150  1.0000
  H   H1256     1.0  0.72257  0.55647  0.16163  1.0000
  C   C747      1.0  0.94453  0.88629  0.13149  1.0000
  H   H1257     1.0  0.67397  0.57671  0.31322  1.0000
  N   N54       1.0  0.95438  0.83586  0.13728  1.0000
  H   H1258     1.0  0.93759  0.70859  0.27310  1.0000
  C   C748      1.0  0.93420  0.83729  0.15231  1.0000
  H   H1259     1.0  0.72053  0.60890  0.22184  1.0000
  C   C749      1.0  0.94406  0.82448  0.11975  1.0000
  H   H1260     1.0  0.63523  0.74001  0.30018  1.0000
  C   C750      1.0  0.92087  0.81132  0.15649  1.0000
  H   H1261     1.0  0.88028  0.53539  0.16541  1.0000
  C   C751      1.0  0.54680  0.92917  0.30620  1.0000
  C   C752      1.0  0.50736  0.74527  0.33144  1.0000
  H   H1262     1.0  0.65216  0.72233  0.22994  1.0000
  H   H1263     1.0  0.91794  0.85230  0.14977  1.0000
  H   H1264     1.0  0.93267  0.74014  0.03106  1.0000
  H   H1265     1.0  0.61817  0.80736  0.32505  1.0000
  H   H1266     1.0  0.67489  0.72843  0.24738  1.0000
  C   C753      1.0  0.98341  0.68990  0.21950  1.0000
  C   C754      1.0  0.98580  0.75856  0.05709  1.0000
  H   H1267     1.0  0.73106  0.55444  0.20224  1.0000
  H   H1268     1.0  0.91164  0.80276  0.14424  1.0000
  H   H1269     1.0  0.93473  0.79648  0.16302  1.0000
  H   H1270     1.0  0.90468  0.81563  0.16640  1.0000
  H   H1271     1.0  0.98040  0.83890  0.21774  1.0000
  H   H1272     1.0  0.92602  0.92964  0.04904  1.0000
  S   S235      1.0  0.56716  0.65008  0.33111  1.0000
  H   H1273     1.0  0.96536  0.76714  0.05922  1.0000
  H   H1274     1.0  0.93018  0.60435  0.12019  1.0000
  H   H1275     1.0  0.87811  0.61089  0.15929  1.0000
  C   C755      1.0  0.65470  0.72197  0.24498  1.0000
  C   C756      1.0  0.72282  0.59489  0.17578  1.0000
  C   C757      1.0  0.59893  0.77107  0.32638  1.0000
  H   H1276     1.0  0.95544  0.76959  0.22757  1.0000
  H   H1277     1.0  0.91621  0.69123  0.22580  1.0000
  H   H1278     1.0  0.86749  0.94590  0.03645  1.0000
  H   H1279     1.0  0.65348  0.70125  0.24964  1.0000
  H   H1280     1.0  0.86540  0.58957  0.17650  1.0000
  H   H1281     1.0  0.53425  0.81482  0.30700  1.0000
  H   H1282     1.0  0.91616  0.85450  0.28570  1.0000
  C   C758      1.0  0.93224  0.92427  0.30750  1.0000
  H   H1283     1.0  0.67627  0.58707  0.19808  1.0000
  C   C759      1.0  0.98445  0.61888  0.23994  1.0000
  H   H1284     1.0  0.97603  0.72300  0.01801  1.0000
  C   C760      1.0  0.88321  0.59918  0.17164  1.0000
  C   C761      1.0  0.96175  0.62250  0.25080  1.0000
  H   H1285     1.0  0.57438  0.77528  0.28375  1.0000
  H   H1286     1.0  0.89005  0.92465  0.30549  1.0000
  H   H1287     1.0  0.95009  0.95573  0.27992  1.0000
  H   H1288     1.0  0.54410  0.95045  0.30284  1.0000
  C   C762      1.0  0.94755  0.75339  0.02586  1.0000
  H   H1289     1.0  0.59009  0.93022  0.31010  1.0000
  H   H1290     1.0  0.70283  0.62524  0.20381  1.0000
  N   N55       1.0  0.63868  0.75213  0.27197  1.0000
  C   C763      1.0  0.90357  0.57899  0.13432  1.0000
  H   H1291     1.0  0.94841  0.72513  0.05838  1.0000
  H   H1292     1.0  0.98434  0.66782  0.21954  1.0000
  H   H1293     1.0  0.76379  0.65634  0.18973  1.0000
  H   H1294     1.0  0.97735  0.86849  0.14617  1.0000
  H   H1295     1.0  0.95744  0.91688  0.05734  1.0000
  H   H1296     1.0  0.52941  0.88406  0.31695  1.0000
  C   C764      1.0  0.97664  0.88912  0.00398  1.0000
  N   N56       1.0  0.90393  0.92234  0.27772  1.0000
  C   C765      1.0  0.87494  0.92194  0.27276  1.0000
  C   C766      1.0  0.91567  0.89456  0.27503  1.0000
  C   C767      1.0  0.91664  0.94053  0.26454  1.0000
  C   C768      1.0  0.90630  0.93216  0.29709  1.0000
  C   C769      1.0  0.85908  0.94886  0.27272  1.0000
  C   C770      1.0  0.90326  0.87295  0.28643  1.0000
  H   H1297     1.0  0.87236  0.91302  0.25903  1.0000
  H   H1298     1.0  0.86434  0.90921  0.28229  1.0000
  H   H1299     1.0  0.93723  0.89294  0.27765  1.0000
  H   H1300     1.0  0.91383  0.88859  0.26048  1.0000
  H   H1301     1.0  0.91388  0.93347  0.25027  1.0000
  H   H1302     1.0  0.97530  0.71026  0.25383  1.0000
  H   H1303     1.0  0.70219  0.57234  0.32774  1.0000
  H   H1304     1.0  0.94772  0.67814  0.05331  1.0000
  C   C771      1.0  0.69274  0.61351  0.31894  1.0000
  H   H1305     1.0  0.98935  0.75442  0.02074  1.0000
  H   H1306     1.0  0.98025  0.67562  0.04439  1.0000
  H   H1307     1.0  0.90113  0.87854  0.30096  1.0000
  H   H1308     1.0  0.90715  0.96082  0.26517  1.0000
  H   H1309     1.0  0.90891  0.56652  0.12219  1.0000
  H   H1310     1.0  0.88278  0.58653  0.13181  1.0000
  C   C772      1.0  0.90645  0.57863  0.16866  1.0000
  C   C773      1.0  0.98193  0.60756  0.22261  1.0000
  H   H1311     1.0  0.96275  0.54486  0.04973  1.0000
  C   C774      1.0  0.95887  0.69923  0.24808  1.0000
  C   C775      1.0  0.92836  0.54252  0.15075  1.0000
  H   H1312     1.0  0.62630  0.71567  0.28413  1.0000
  C   C776      1.0  0.97644  0.62912  0.08021  1.0000
  H   H1313     1.0  0.96691  0.64826  0.07719  1.0000
  H   H1314     1.0  0.98450  0.58651  0.02601  1.0000
  H   H1315     1.0  0.95174  0.66889  0.19475  1.0000
  H   H1316     1.0  0.73455  0.64672  0.17854  1.0000
  H   H1317     1.0  0.96346  0.63093  0.26430  1.0000
  C   C777      1.0  0.88044  0.54701  0.15254  1.0000
  C   C778      1.0  0.96785  0.71478  0.05546  1.0000
  H   H1318     1.0  0.97089  0.79737  0.14592  1.0000
  Fe  Fe118     1.0  0.64654  0.89393  0.32324  1.0000
  H   H1319     1.0  0.68187  0.73006  0.29647  1.0000
  H   H1320     1.0  0.93767  0.94113  0.31626  1.0000
  C   C779      1.0  0.94633  0.94448  0.26726  1.0000
  H   H1321     1.0  0.72946  0.67867  0.30518  1.0000
  C   C780      1.0  0.87304  0.95437  0.02361  1.0000
  N   N57       1.0  0.90511  0.56240  0.15138  1.0000
  H   H1322     1.0  0.78726  0.56889  0.19358  1.0000
  Fe  Fe119     1.0  0.66104  0.83559  0.32642  1.0000
  H   H1323     1.0  0.85966  0.67389  0.03111  1.0000
  H   H1324     1.0  0.91669  0.69714  0.25554  1.0000
  H   H1325     1.0  0.92704  0.52938  0.13862  1.0000
  C   C781      1.0  0.95592  0.55370  0.14952  1.0000
  H   H1326     1.0  0.95541  0.90434  0.12879  1.0000
  C   C782      1.0  0.97723  0.81784  0.14385  1.0000
  C   C783      1.0  0.70910  0.56949  0.17005  1.0000
  H   H1327     1.0  0.92477  0.58944  0.16971  1.0000
  C   C784      1.0  0.50086  0.95948  0.32040  1.0000
  H   H1328     1.0  0.74308  0.61150  0.32767  1.0000
  C   C785      1.0  0.72756  0.65775  0.30927  1.0000
  H   H1329     1.0  0.51354  0.97572  0.32422  1.0000
  H   H1330     1.0  0.92834  0.73049  0.25489  1.0000
  H   H1331     1.0  0.94287  0.80262  0.12077  1.0000
  H   H1332     1.0  0.98447  0.82450  0.15742  1.0000
  H   H1333     1.0  0.91741  0.66505  0.19805  1.0000
  H   H1334     1.0  0.97495  0.51066  0.04983  1.0000
  H   H1335     1.0  0.96041  0.56683  0.16111  1.0000
  C   C786      1.0  0.51038  0.93260  0.32861  1.0000
  H   H1336     1.0  0.88861  0.61331  0.18250  1.0000
  H   H1337     1.0  0.98683  0.74366  0.08538  1.0000
  C   C787      1.0  0.95711  0.59940  0.21648  1.0000
  C   C788      1.0  0.54099  0.89370  0.32779  1.0000
  H   H1338     1.0  0.58123  0.77915  0.31964  1.0000
  H   H1339     1.0  0.98459  0.75314  0.21800  1.0000
  H   H1340     1.0  0.94555  0.77292  0.03277  1.0000
  H   H1341     1.0  0.51493  0.75222  0.28024  1.0000
  Fe  Fe120     1.0  0.60692  0.62890  0.33044  1.0000
  C   C789      1.0  0.93374  0.70953  0.25820  1.0000
  H   H1342     1.0  0.97927  0.54056  0.02059  1.0000
  C   C790      1.0  0.60114  0.74443  0.33121  1.0000
  C   C791      1.0  0.74552  0.57000  0.20167  1.0000
  C   C792      1.0  0.96486  0.86287  0.13435  1.0000
  H   H1343     1.0  0.76418  0.61579  0.20959  1.0000
  H   H1344     1.0  0.92966  0.73428  0.22378  1.0000
  H   H1345     1.0  0.88894  0.50971  0.13730  1.0000
  H   H1346     1.0  0.95859  0.92571  0.26697  1.0000
  H   H1347     1.0  0.93873  0.66325  0.22768  1.0000
  H   H1348     1.0  0.86176  0.96025  0.28546  1.0000
  C   C793      1.0  0.96777  0.75072  0.22737  1.0000
  H   H1349     1.0  0.74773  0.64957  0.31264  1.0000
  H   H1350     1.0  0.70122  0.55788  0.18127  1.0000
  C   C794      1.0  0.68469  0.58576  0.32472  1.0000
  C   C795      1.0  0.66791  0.71680  0.28980  1.0000
  C   C796      1.0  0.52559  0.73932  0.29037  1.0000
  C   C797      1.0  0.93603  0.68315  0.22136  1.0000
  S   S236      1.0  0.68597  0.87073  0.32302  1.0000
  H   H1351     1.0  0.93163  0.88363  0.11951  1.0000
  H   H1352     1.0  0.73457  0.65431  0.20282  1.0000
  C   C798      1.0  0.91699  0.83564  0.11267  1.0000
  H   H1353     1.0  0.76535  0.55910  0.17557  1.0000
  H   H1354     1.0  0.77333  0.53743  0.19427  1.0000
  H   H1355     1.0  0.95126  0.72889  0.20567  1.0000
  H   H1356     1.0  0.58104  0.75211  0.26582  1.0000
  H   H1357     1.0  0.53892  0.72522  0.28266  1.0000
  H   H1358     1.0  0.62019  0.78217  0.28964  1.0000
  H   H1359     1.0  0.93753  0.89346  0.02969  1.0000
  H   H1360     1.0  0.53351  0.91944  0.29643  1.0000
  H   H1361     1.0  0.89780  0.75268  0.05967  1.0000
  C   C799      1.0  0.74592  0.64482  0.19144  1.0000
  H   H1362     1.0  0.94350  0.84421  0.16511  1.0000
  C   C800      1.0  0.93358  0.67863  0.20061  1.0000
  H   H1363     1.0  0.61285  0.78702  0.26621  1.0000
  H   H1364     1.0  0.69454  0.56796  0.21560  1.0000
  C   C801      1.0  0.64067  0.73122  0.28668  1.0000
  H   H1365     1.0  0.70867  0.61205  0.17305  1.0000
  H   H1366     1.0  0.67487  0.62404  0.31289  1.0000
  H   H1367     1.0  0.62606  0.75533  0.24360  1.0000
  H   H1368     1.0  0.90448  0.81916  0.10873  1.0000
  H   H1369     1.0  0.49917  0.95818  0.30532  1.0000
  H   H1370     1.0  0.67530  0.59708  0.22131  1.0000
  H   H1371     1.0  0.94066  0.92274  0.01680  1.0000
  H   H1372     1.0  0.94961  0.91918  0.29892  1.0000
  N   N58       1.0  0.95762  0.70070  0.22757  1.0000
  H   H1373     1.0  0.91947  0.84799  0.10040  1.0000
  H   H1374     1.0  0.61542  0.72743  0.25475  1.0000
  C   C802      1.0  0.61594  0.77144  0.27674  1.0000
  C   C803      1.0  0.98106  0.84996  0.07865  1.0000
  H   H1375     1.0  0.94251  0.75703  0.01130  1.0000
  H   H1376     1.0  0.90546  0.84753  0.12264  1.0000
  C   C804      1.0  0.51269  0.87684  0.27886  1.0000
  H   H1377     1.0  0.75253  0.57189  0.21604  1.0000
  C   C805      1.0  0.63272  0.73999  0.25371  1.0000
  H   H1378     1.0  0.50673  0.89377  0.27055  1.0000
  C   C806      1.0  0.95020  0.91055  0.02791  1.0000
  H   H1379     1.0  0.67661  0.70843  0.27714  1.0000
  C   C807      1.0  0.98079  0.53145  0.04881  1.0000
  N   N59       1.0  0.53891  0.92341  0.32551  1.0000
  H   H1380     1.0  0.95828  0.82704  0.10853  1.0000
  H   H1381     1.0  0.57937  0.92750  0.28701  1.0000
  C   C808      1.0  0.98376  0.89345  0.09252  1.0000
  H   H1382     1.0  0.49373  0.71299  0.29187  1.0000
  S   S237      1.0  0.62283  0.85929  0.32949  1.0000
  C   C809      1.0  0.97584  0.74053  0.02716  1.0000
  C   C810      1.0  0.70866  0.65708  0.32565  1.0000
  H   H1383     1.0  0.98491  0.69578  0.20496  1.0000
  H   H1384     1.0  0.49680  0.91804  0.32273  1.0000
  C   C811      1.0  0.61994  0.78726  0.32960  1.0000
  C   C812      1.0  0.50634  0.72355  0.30166  1.0000
  H   H1385     1.0  0.97861  0.65317  0.12795  1.0000
  C   C813      1.0  0.50124  0.84082  0.29825  1.0000
  H   H1386     1.0  0.68928  0.66646  0.32119  1.0000
  H   H1387     1.0  0.99331  0.58220  0.04903  1.0000
  C   C814      1.0  0.96226  0.68895  0.04536  1.0000
  H   H1388     1.0  0.56136  0.97275  0.32392  1.0000
  H   H1389     1.0  0.99314  0.53481  0.06098  1.0000
  Fe  Fe121     1.0  0.58616  0.94127  0.47933  1.0000
  S   S238      1.0  0.58111  0.95816  0.45122  1.0000
  H   H1390     1.0  0.52519  0.53674  0.48674  1.0000
  Fe  Fe122     1.0  0.59196  0.88250  0.46461  1.0000
  S   S239      1.0  0.58655  0.89663  0.43581  1.0000
  S   S240      1.0  0.60518  0.83841  0.46356  1.0000
  Fe  Fe123     1.0  0.61357  0.92838  0.44306  1.0000
  S   S241      1.0  0.64912  0.93403  0.42542  1.0000
  Fe  Fe124     1.0  0.55482  0.92435  0.44681  1.0000
  S   S242      1.0  0.51513  0.92785  0.43333  1.0000
  S   S243      1.0  0.62093  0.91352  0.47147  1.0000
  S   S244      1.0  0.55776  0.90856  0.47530  1.0000
  Fe  Fe125     1.0  0.57944  0.62640  0.48363  1.0000
  S   S245      1.0  0.57882  0.61740  0.45352  1.0000
  S   S246      1.0  0.58089  0.59762  0.50799  1.0000
  Fe  Fe126     1.0  0.57303  0.68768  0.47698  1.0000
  S   S247      1.0  0.57173  0.68265  0.44674  1.0000
  S   S248      1.0  0.56358  0.72791  0.49051  1.0000
  Fe  Fe127     1.0  0.54606  0.64908  0.45200  1.0000
  H   H1391     1.0  0.56691  0.63102  0.37142  1.0000
  Fe  Fe128     1.0  0.60462  0.65184  0.45076  1.0000
  S   S249      1.0  0.63831  0.65206  0.43107  1.0000
  S   S250      1.0  0.54443  0.65595  0.48209  1.0000
  S   S251      1.0  0.60825  0.65894  0.48097  1.0000
  H   H1392     1.0  0.50080  0.89679  0.52428  1.0000
  S   S252      1.0  0.62087  0.60205  0.35321  1.0000
  C   C815      1.0  0.63076  0.63824  0.40979  1.0000
  C   C816      1.0  0.63509  0.61101  0.40696  1.0000
  C   C817      1.0  0.63172  0.60013  0.38956  1.0000
  C   C818      1.0  0.62395  0.61639  0.37489  1.0000
  C   C819      1.0  0.61910  0.64360  0.37771  1.0000
  C   C820      1.0  0.62258  0.65452  0.39517  1.0000
  H   H1393     1.0  0.64168  0.59842  0.41816  1.0000
  H   H1394     1.0  0.63548  0.57909  0.38743  1.0000
  H   H1395     1.0  0.61313  0.65627  0.36642  1.0000
  H   H1396     1.0  0.61950  0.67564  0.39729  1.0000
  C   C821      1.0  0.58351  0.56230  0.51011  1.0000
  C   C822      1.0  0.58520  0.54530  0.49500  1.0000
  C   C823      1.0  0.58297  0.55098  0.52762  1.0000
  H   H1397     1.0  0.58562  0.55353  0.48144  1.0000
  H   H1398     1.0  0.58161  0.56379  0.53945  1.0000
  N   N60       1.0  0.63888  0.83902  0.39697  1.0000
  C   C824      1.0  0.49941  0.89950  0.43975  1.0000
  C   C825      1.0  0.53662  0.58364  0.35280  1.0000
  H   H1399     1.0  0.60387  0.78405  0.38356  1.0000
  H   H1400     1.0  0.52720  0.59958  0.45318  1.0000
  C   C826      1.0  0.64386  0.93118  0.40174  1.0000
  C   C827      1.0  0.61876  0.93636  0.39412  1.0000
  C   C828      1.0  0.61528  0.93553  0.37512  1.0000
  C   C829      1.0  0.63659  0.92840  0.36365  1.0000
  C   C830      1.0  0.66148  0.92219  0.37134  1.0000
  C   C831      1.0  0.66521  0.92416  0.39030  1.0000
  H   H1401     1.0  0.60221  0.94193  0.40284  1.0000
  H   H1402     1.0  0.59605  0.94062  0.36936  1.0000
  H   H1403     1.0  0.67811  0.91704  0.36260  1.0000
  C   C832      1.0  0.68495  0.65807  0.36103  1.0000
  C   C833      1.0  0.59168  0.80819  0.47039  1.0000
  C   C834      1.0  0.57107  0.80723  0.48294  1.0000
  C   C835      1.0  0.56256  0.78256  0.48887  1.0000
  C   C836      1.0  0.57410  0.75859  0.48204  1.0000
  C   C837      1.0  0.59413  0.75959  0.46909  1.0000
  C   C838      1.0  0.60302  0.78421  0.46347  1.0000
  H   H1404     1.0  0.56218  0.82545  0.48844  1.0000
  H   H1405     1.0  0.54705  0.78208  0.49890  1.0000
  H   H1406     1.0  0.60327  0.74139  0.46372  1.0000
  H   H1407     1.0  0.61903  0.78464  0.45382  1.0000
  H   H1408     1.0  0.66868  0.94159  0.48537  1.0000
  C   C839      1.0  0.51441  0.87674  0.44502  1.0000
  S   S253      1.0  0.66870  0.79851  0.34285  1.0000
  H   H1409     1.0  0.53571  0.87624  0.44452  1.0000
  H   H1410     1.0  0.64259  0.87107  0.42949  1.0000
  H   H1411     1.0  0.70473  0.66360  0.36559  1.0000
  S   S254      1.0  0.58565  0.96794  0.50494  1.0000
  H   H1412     1.0  0.58349  0.51494  0.54359  1.0000
  H   H1413     1.0  0.70395  0.84492  0.38184  1.0000
  H   H1414     1.0  0.76578  0.61939  0.35607  1.0000
  C   C840      1.0  0.58623  0.51752  0.49742  1.0000
  C   C841      1.0  0.63211  0.81457  0.38648  1.0000
  H   H1415     1.0  0.50835  0.76131  0.35890  1.0000
  H   H1416     1.0  0.66463  0.63173  0.34427  1.0000
  H   H1417     1.0  0.52443  0.73547  0.45893  1.0000
  H   H1418     1.0  0.73687  0.63334  0.36681  1.0000
  H   H1419     1.0  0.51244  0.55861  0.38852  1.0000
  H   H1420     1.0  0.51360  0.83690  0.45515  1.0000
  N   N61       1.0  0.59508  0.67071  0.53815  1.0000
  C   C842      1.0  0.56873  0.65985  0.53320  1.0000
  C   C843      1.0  0.61599  0.64883  0.53484  1.0000
  C   C844      1.0  0.59917  0.69392  0.52577  1.0000
  C   C845      1.0  0.59396  0.67944  0.55779  1.0000
  C   C846      1.0  0.54454  0.67982  0.53347  1.0000
  C   C847      1.0  0.61497  0.62444  0.54731  1.0000
  C   C848      1.0  0.62777  0.70173  0.52253  1.0000
  C   C849      1.0  0.61980  0.68849  0.56644  1.0000
  H   H1421     1.0  0.56948  0.65107  0.51927  1.0000
  H   H1422     1.0  0.56382  0.64350  0.54244  1.0000
  H   H1423     1.0  0.63627  0.65573  0.53628  1.0000
  H   H1424     1.0  0.61490  0.64170  0.52047  1.0000
  H   H1425     1.0  0.59122  0.68993  0.51194  1.0000
  H   H1426     1.0  0.58778  0.71203  0.53062  1.0000
  H   H1427     1.0  0.57938  0.69650  0.55948  1.0000
  H   H1428     1.0  0.58604  0.66394  0.56665  1.0000
  H   H1429     1.0  0.54644  0.69621  0.52366  1.0000
  H   H1430     1.0  0.52676  0.66936  0.52920  1.0000
  H   H1431     1.0  0.54052  0.68791  0.54728  1.0000
  H   H1432     1.0  0.59654  0.61389  0.54549  1.0000
  H   H1433     1.0  0.63139  0.61002  0.54358  1.0000
  H   H1434     1.0  0.61774  0.62962  0.56186  1.0000
  H   H1435     1.0  0.63878  0.70530  0.53525  1.0000
  H   H1436     1.0  0.62711  0.72046  0.51463  1.0000
  H   H1437     1.0  0.63886  0.68673  0.51406  1.0000
  H   H1438     1.0  0.62174  0.71004  0.56438  1.0000
  H   H1439     1.0  0.63779  0.67750  0.56149  1.0000
  H   H1440     1.0  0.61955  0.68459  0.58133  1.0000
  H   H1441     1.0  0.53388  0.54096  0.50982  1.0000
  C   C850      1.0  0.54646  0.63052  0.37683  1.0000
  H   H1442     1.0  0.59571  0.84998  0.37110  1.0000
  H   H1443     1.0  0.64845  0.79903  0.38746  1.0000
  H   H1444     1.0  0.51105  0.83275  0.39517  1.0000
  C   C851      1.0  0.68834  0.83368  0.38836  1.0000
  H   H1445     1.0  0.58902  0.81460  0.39166  1.0000
  C   C852      1.0  0.64960  0.97730  0.47367  1.0000
  H   H1446     1.0  0.59972  0.85314  0.40576  1.0000
  H   H1447     1.0  0.69523  0.82896  0.40237  1.0000
  C   C853      1.0  0.74699  0.63120  0.35352  1.0000
  H   H1448     1.0  0.52991  0.49787  0.51757  1.0000
  H   H1449     1.0  0.58792  0.88226  0.38013  1.0000
  H   H1450     1.0  0.67586  0.85924  0.42394  1.0000
  H   H1451     1.0  0.52171  0.65705  0.39464  1.0000
  H   H1452     1.0  0.65894  0.84563  0.44265  1.0000
  H   H1453     1.0  0.68810  0.61541  0.35879  1.0000
  H   H1454     1.0  0.51516  0.58114  0.35441  1.0000
  H   H1455     1.0  0.51187  0.75564  0.47774  1.0000
  H   H1456     1.0  0.57282  0.58507  0.36836  1.0000
  H   H1457     1.0  0.51908  0.94836  0.50670  1.0000
  H   H1458     1.0  0.55618  0.65383  0.40148  1.0000
  H   H1459     1.0  0.62711  0.82518  0.42349  1.0000
  C   C854      1.0  0.51670  0.54162  0.50036  1.0000
  H   H1460     1.0  0.72673  0.59697  0.34604  1.0000
  C   C855      1.0  0.61608  0.85945  0.39700  1.0000
  H   H1461     1.0  0.61892  0.87583  0.36931  1.0000
  C   C856      1.0  0.58567  0.50618  0.51493  1.0000
  C   C857      1.0  0.55834  0.60121  0.40233  1.0000
  H   H1462     1.0  0.54633  0.67285  0.38204  1.0000
  H   H1463     1.0  0.50204  0.70347  0.47292  1.0000
  C   C858      1.0  0.55146  0.58314  0.37124  1.0000
  H   H1464     1.0  0.50051  0.60929  0.37718  1.0000
  C   C859      1.0  0.60701  0.80124  0.39265  1.0000
  H   H1465     1.0  0.58751  0.50468  0.48560  1.0000
  N   N62       1.0  0.54207  0.60377  0.38500  1.0000
  H   H1466     1.0  0.54017  0.92073  0.51365  1.0000
  C   C860      1.0  0.55690  0.93525  0.33941  1.0000
  C   C861      1.0  0.50141  0.53426  0.53971  1.0000
  H   H1467     1.0  0.49991  0.57863  0.51301  1.0000
  H   H1468     1.0  0.62981  0.98619  0.43842  1.0000
  H   H1469     1.0  0.67855  0.98370  0.44175  1.0000
  H   H1470     1.0  0.67317  0.65515  0.37350  1.0000
  H   H1471     1.0  0.65205  0.96648  0.46061  1.0000
  C   C862      1.0  0.50769  0.59720  0.44771  1.0000
  H   H1472     1.0  0.55043  0.56276  0.37652  1.0000
  H   H1473     1.0  0.67114  0.58631  0.33650  1.0000
  H   H1474     1.0  0.60913  0.79341  0.40671  1.0000
  C   C863      1.0  0.66865  0.96334  0.48751  1.0000
  H   H1475     1.0  0.51514  0.55021  0.53736  1.0000
  H   H1476     1.0  0.54453  0.56686  0.34427  1.0000
  C   C864      1.0  0.54232  0.65464  0.38970  1.0000
  C   C865      1.0  0.51301  0.60264  0.38900  1.0000
  H   H1477     1.0  0.50596  0.93366  0.34344  1.0000
  H   H1478     1.0  0.57585  0.57427  0.42257  1.0000
  H   H1479     1.0  0.67511  0.67495  0.35355  1.0000
  H   H1480     1.0  0.50674  0.86447  0.38496  1.0000
  H   H1481     1.0  0.68471  0.92027  0.39612  1.0000
  H   H1482     1.0  0.66612  0.87031  0.39411  1.0000
  C   C866      1.0  0.66218  0.85078  0.38797  1.0000
  H   H1483     1.0  0.65792  0.85487  0.37333  1.0000
  C   C867      1.0  0.62425  0.73410  0.33975  1.0000
  C   C868      1.0  0.58400  0.52319  0.53004  1.0000
  H   H1484     1.0  0.75245  0.65074  0.34845  1.0000
  H   H1485     1.0  0.68692  0.81516  0.38036  1.0000
  C   C869      1.0  0.64515  0.83141  0.41644  1.0000
  H   H1486     1.0  0.54789  0.61151  0.41387  1.0000
  H   H1487     1.0  0.65936  0.81386  0.41703  1.0000
  H   H1488     1.0  0.63012  0.81879  0.37164  1.0000
  C   C870      1.0  0.65627  0.85330  0.42856  1.0000
  H   H1489     1.0  0.62221  0.87830  0.40317  1.0000
  C   C871      1.0  0.64501  0.75073  0.34362  1.0000
  C   C872      1.0  0.60423  0.86696  0.37819  1.0000
  H   H1490     1.0  0.53308  0.63453  0.36497  1.0000
  C   C873      1.0  0.68530  0.63254  0.34935  1.0000
  C   C874      1.0  0.52077  0.93138  0.51619  1.0000
  H   H1491     1.0  0.51858  0.77033  0.45632  1.0000
  S   S255      1.0  0.50937  0.64776  0.43489  1.0000
  C   C875      1.0  0.49437  0.61793  0.43829  1.0000
  H   H1492     1.0  0.62912  0.97336  0.47799  1.0000
  H   H1493     1.0  0.53982  0.60182  0.34494  1.0000
  H   H1494     1.0  0.50713  0.61720  0.39979  1.0000
  C   C876      1.0  0.49848  0.91206  0.51339  1.0000
  H   H1495     1.0  0.57726  0.61124  0.40087  1.0000
  H   H1496     1.0  0.58195  0.56362  0.39976  1.0000
  H   H1497     1.0  0.50574  0.55735  0.45767  1.0000
  H   H1498     1.0  0.54987  0.56010  0.40999  1.0000
  H   H1499     1.0  0.51763  0.72682  0.33671  1.0000
  C   C877      1.0  0.50188  0.85440  0.45100  1.0000
  H   H1500     1.0  0.52221  0.58308  0.49479  1.0000
  H   H1501     1.0  0.58146  0.96884  0.34325  1.0000
  C   C878      1.0  0.56665  0.57302  0.40883  1.0000
  C   C879      1.0  0.50329  0.57602  0.39564  1.0000
  H   H1502     1.0  0.54668  0.97693  0.34622  1.0000
  S   S256      1.0  0.63216  0.92959  0.33978  1.0000
  C   C880      1.0  0.50604  0.57079  0.49948  1.0000
  C   C881      1.0  0.51089  0.75252  0.46282  1.0000
  H   H1503     1.0  0.66188  0.96720  0.50169  1.0000
  C   C882      1.0  0.53139  0.88301  0.34613  1.0000
  H   H1504     1.0  0.68926  0.96921  0.48605  1.0000
  N   N63       1.0  0.49723  0.52160  0.50579  1.0000
  H   H1505     1.0  0.54349  0.88962  0.35777  1.0000
  C   C883      1.0  0.49554  0.57330  0.45027  1.0000
  H   H1506     1.0  0.51291  0.51588  0.54368  1.0000
  H   H1507     1.0  0.66269  0.74293  0.35048  1.0000
  C   C884      1.0  0.51225  0.49537  0.50875  1.0000
  H   H1508     1.0  0.54932  0.93243  0.35341  1.0000
  H   H1509     1.0  0.53363  0.86104  0.34578  1.0000
  C   C885      1.0  0.73033  0.61634  0.33965  1.0000
  H   H1510     1.0  0.52160  0.93873  0.53043  1.0000
  H   H1511     1.0  0.50307  0.90095  0.50068  1.0000
  C   C886      1.0  0.56137  0.96510  0.33797  1.0000
  H   H1512     1.0  0.70701  0.98054  0.45669  1.0000
  H   H1513     1.0  0.62589  0.71353  0.34373  1.0000
  H   H1514     1.0  0.51016  0.88826  0.34851  1.0000
  C   C887      1.0  0.64289  0.77740  0.33844  1.0000
  H   H1515     1.0  0.50626  0.57380  0.41055  1.0000
  H   H1516     1.0  0.57660  0.92439  0.33972  1.0000
  C   C888      1.0  0.49661  0.84601  0.38764  1.0000
  H   H1517     1.0  0.49635  0.94975  0.47774  1.0000
  H   H1518     1.0  0.71650  0.67085  0.33589  1.0000
  H   H1519     1.0  0.81920  0.92625  0.96050  1.0000
  H   H1520     1.0  0.78672  0.93231  0.97042  1.0000
  H   H1521     1.0  0.89706  0.93680  0.98201  1.0000
  H   H1522     1.0  0.93701  0.87352  0.00173  1.0000
  H   H1523     1.0  0.82075  0.99186  0.93528  1.0000
  H   H1524     1.0  0.77342  0.96693  0.95195  1.0000
  H   H1525     1.0  0.86688  0.49390  0.99041  1.0000
  C   C889      1.0  0.88705  0.97710  0.99044  1.0000
  C   C890      1.0  0.80824  0.93401  0.97258  1.0000
  C   C891      1.0  0.88957  0.94935  0.99299  1.0000
  H   H1526     1.0  0.89293  0.98562  0.97772  1.0000
  H   H1527     1.0  0.96184  0.85589  0.98875  1.0000
  H   H1528     1.0  0.97004  0.90449  0.99385  1.0000
  H   H1529     1.0  0.81422  0.92089  0.98417  1.0000
  H   H1530     1.0  0.85736  0.95063  0.95547  1.0000
  C   C892      1.0  0.81490  0.96257  0.97746  1.0000
  H   H1531     1.0  0.81354  0.95845  0.93849  1.0000
  C   C893      1.0  0.82289  0.97535  0.94525  1.0000
  C   C894      1.0  0.85279  0.96804  0.94667  1.0000
  H   H1532     1.0  0.83599  0.96228  0.98176  1.0000
  H   H1533     1.0  0.86036  0.96284  0.93287  1.0000
  N   N64       1.0  0.80912  0.98291  0.96283  1.0000
  H   H1534     1.0  0.80372  0.96791  0.99008  1.0000
  H   H1535     1.0  0.76829  0.98538  0.97208  1.0000
  C   C895      1.0  0.77973  0.98493  0.95919  1.0000
  H   H1536     1.0  0.86397  0.98491  0.95148  1.0000
  C   C896      1.0  0.95805  0.86613  0.00197  1.0000
