data_image0
_chemical_formula_structural       HFeSH2SH2C6H4C3HNH3SC2H6SH2C2HCH3CSH2C2HCSH4FeH3SHCHCHC2NH6C3SH4C9H2FeSH3CNH4CFeCH2CHC2H3SHSH6C2H3SHSC7H2FeCSHSHSHFeHFeC2S2HFeCSHSH2FeHSFeCSCHFeS2HFeCH2SC6H4SNHCH2CH2CH3C2HCH3FeHCH2C2H2FeS2HC3H3SCH3C3HC2FeH2NHCHSFeH3CHCHCSH3CH4CH5C2H2NHCHSH2C2H2SHCHFeSC2HFeSHSCHCHCHCHC4HFeH3C2NC5HC2H5SH5SH2CH4FeH4CFeNHCH3CH3FeH3SFeHSH4SHSHCHCHC7H4CH3NC3HC2HSH2CHSFe2SCH2CH4C2SH3SH4CH2C2H5FeHCHNH3CHCHCH4SC3H2C2SCHFeCSFeH3S2HCHCH5C6H8NC5H5CHC2H3NCH5NH3CH2CH2CHCH2C2H4CHCH2S3H2CHC6H4CH4C3H2CHC2H2CH2FeCH3FeCH8SH2CH3CNH3NC2HC3H3SCS2H6CH4CHCHCH2CSCSCH2C6H8SHCH2CHCHCHNH2C3HSH4CH2CHFeCFeCH2CH2SH5
_chemical_formula_sum              "H384 Fe32 S64 C224 N16"
_cell_length_a       29.6867
_cell_length_b       29.9754
_cell_length_c       36.035
_cell_angle_alpha    89.1043
_cell_angle_beta     90.5123
_cell_angle_gamma    81.0395

_space_group_name_H-M_alt    "P 1"
_space_group_IT_number       1

loop_
  _space_group_symop_operation_xyz
  'x, y, z'

loop_
  _atom_site_type_symbol
  _atom_site_label
  _atom_site_symmetry_multiplicity
  _atom_site_fract_x
  _atom_site_fract_y
  _atom_site_fract_z
  _atom_site_occupancy
  H   H1        1.0  0.08521  0.04970  0.09058  1.0000
  Fe  Fe1       1.0  0.09001  0.24942  0.28309  1.0000
  S   S1        1.0  0.16005  0.23575  0.25732  1.0000
  H   H2        1.0  0.20879  0.07362  0.17289  1.0000
  H   H3        1.0  0.07430  0.18649  0.21489  1.0000
  S   S2        1.0  0.26491  0.03433  0.25669  1.0000
  H   H4        1.0  0.44370  0.01922  0.15391  1.0000
  H   H5        1.0  0.34481  0.04453  0.31420  1.0000
  C   C1        1.0  0.18936  0.17984  0.25774  1.0000
  C   C2        1.0  0.22235  0.16679  0.23067  1.0000
  C   C3        1.0  0.24497  0.12194  0.22946  1.0000
  C   C4        1.0  0.23544  0.09016  0.25590  1.0000
  C   C5        1.0  0.20336  0.10350  0.28354  1.0000
  C   C6        1.0  0.17997  0.14804  0.28421  1.0000
  H   H6        1.0  0.23004  0.19139  0.21035  1.0000
  H   H7        1.0  0.27032  0.11221  0.20851  1.0000
  H   H8        1.0  0.19634  0.07924  0.30440  1.0000
  H   H9        1.0  0.15510  0.15790  0.30549  1.0000
  C   C7        1.0  0.03395  0.44688  0.26905  1.0000
  C   C8        1.0  0.15723  0.12812  0.14909  1.0000
  C   C9        1.0  0.09427  0.08132  0.10218  1.0000
  H   H10       1.0  0.13575  0.12859  0.22041  1.0000
  N   N1        1.0  0.11397  0.11502  0.16459  1.0000
  H   H11       1.0  0.12550  0.04413  0.15023  1.0000
  H   H12       1.0  0.07951  0.05249  0.22428  1.0000
  H   H13       1.0  0.42429  0.09331  0.28795  1.0000
  S   S3        1.0  0.05272  0.19297  0.29980  1.0000
  C   C10       1.0  0.07646  0.15498  0.15984  1.0000
  C   C11       1.0  0.10043  0.07530  0.14463  1.0000
  H   H14       1.0  0.05230  0.22340  0.17763  1.0000
  H   H15       1.0  0.35550  0.09917  0.32725  1.0000
  H   H16       1.0  0.04753  0.10808  0.21652  1.0000
  H   H17       1.0  0.43372  0.08499  0.20417  1.0000
  H   H18       1.0  0.15113  0.14426  0.12108  1.0000
  H   H19       1.0  0.37599  0.08739  0.18970  1.0000
  S   S4        1.0  0.06801  0.29218  0.33276  1.0000
  H   H20       1.0  0.04214  0.14514  0.16367  1.0000
  H   H21       1.0  0.14932  0.07217  0.20810  1.0000
  C   C12       1.0  0.19796  0.08964  0.14573  1.0000
  C   C13       1.0  0.12200  0.10194  0.20490  1.0000
  H   H22       1.0  0.19092  0.06349  0.12606  1.0000
  C   C14       1.0  0.08067  0.08924  0.22616  1.0000
  H   H23       1.0  0.22764  0.10379  0.13461  1.0000
  H   H24       1.0  0.11266  0.20799  0.18283  1.0000
  H   H25       1.0  0.07557  0.16871  0.13092  1.0000
  C   C15       1.0  0.36005  0.07413  0.30466  1.0000
  S   S5        1.0  0.03368  0.28495  0.24615  1.0000
  H   H26       1.0  0.35491  0.04239  0.03472  1.0000
  H   H27       1.0  0.16934  0.15426  0.16651  1.0000
  C   C16       1.0  0.39903  0.08275  0.21436  1.0000
  C   C17       1.0  0.41140  0.06172  0.29631  1.0000
  H   H28       1.0  0.38751  0.11134  0.23286  1.0000
  C   C18       1.0  0.07976  0.19515  0.18541  1.0000
  S   S6        1.0  0.25520  0.02518  0.06754  1.0000
  H   H29       1.0  0.06752  0.06729  0.15542  1.0000
  H   H30       1.0  0.48144  0.05505  0.24831  1.0000
  H   H31       1.0  0.04787  0.41602  0.25530  1.0000
  H   H32       1.0  0.07588  0.48781  0.23918  1.0000
  Fe  Fe2       1.0  0.00832  0.32331  0.29702  1.0000
  H   H33       1.0  0.12599  0.08737  0.08827  1.0000
  H   H34       1.0  0.08359  0.09814  0.25583  1.0000
  H   H35       1.0  0.06608  0.10890  0.09473  1.0000
  S   S7        1.0  0.32667  0.01669  0.15653  1.0000
  H   H36       1.0  0.34025  0.09017  0.28040  1.0000
  C   C19       1.0  0.04974  0.48771  0.25991  1.0000
  H   H37       1.0  0.40699  0.01060  0.21147  1.0000
  C   C20       1.0  0.39625  0.03634  0.23274  1.0000
  H   H38       1.0  0.42846  0.05141  0.32341  1.0000
  C   C21       1.0  0.37879  0.03164  0.05823  1.0000
  C   C22       1.0  0.47359  0.02220  0.25912  1.0000
  N   N2        1.0  0.42366  0.02543  0.26802  1.0000
  H   H39       1.0  0.35958  0.03443  0.23731  1.0000
  H   H40       1.0  0.40832  0.04984  0.05674  1.0000
  H   H41       1.0  0.47513  0.02828  0.02026  1.0000
  H   H42       1.0  0.35995  0.04274  0.08376  1.0000
  H   H43       1.0  0.50465  0.03607  0.31270  1.0000
  H   H44       1.0  0.48341  0.01828  0.06977  1.0000
  C   C23       1.0  0.48972  0.00352  0.04182  1.0000
  C   C24       1.0  0.50701  0.00894  0.29191  1.0000
  C   C25       1.0  0.47799  0.00137  0.15780  1.0000
  S   S8        1.0  0.09237  0.30337  0.65215  1.0000
  H   H45       1.0  0.21536  0.11938  0.59983  1.0000
  H   H46       1.0  0.13313  0.14987  0.61022  1.0000
  H   H47       1.0  0.23552  0.26697  0.59539  1.0000
  H   H48       1.0  0.15236  0.13703  0.56299  1.0000
  C   C26       1.0  0.06434  0.26463  0.44275  1.0000
  C   C27       1.0  0.05752  0.27658  0.50948  1.0000
  C   C28       1.0  0.07669  0.28552  0.47518  1.0000
  C   C29       1.0  0.03269  0.23464  0.44443  1.0000
  C   C30       1.0  0.24264  0.13256  0.58448  1.0000
  C   C31       1.0  0.14775  0.20877  0.57700  1.0000
  C   C32       1.0  0.23100  0.18216  0.57032  1.0000
  C   C33       1.0  0.13243  0.16223  0.58106  1.0000
  C   C34       1.0  0.19726  0.20415  0.63249  1.0000
  H   H49       1.0  0.14401  0.21727  0.54690  1.0000
  H   H50       1.0  0.22134  0.18146  0.54039  1.0000
  Fe  Fe3       1.0  0.02538  0.23853  0.34624  1.0000
  S   S9        1.0  0.06892  0.30833  0.54826  1.0000
  H   H51       1.0  0.16928  0.22664  0.64642  1.0000
  H   H52       1.0  0.27280  0.19530  0.63689  1.0000
  H   H53       1.0  0.27428  0.12779  0.60173  1.0000
  C   C35       1.0  0.24217  0.21081  0.65200  1.0000
  N   N3        1.0  0.19495  0.21282  0.59110  1.0000
  H   H54       1.0  0.17589  0.28474  0.60018  1.0000
  H   H55       1.0  0.07850  0.27253  0.41635  1.0000
  H   H56       1.0  0.12187  0.23348  0.59114  1.0000
  H   H57       1.0  0.26376  0.19595  0.57122  1.0000
  C   C36       1.0  0.02737  0.24517  0.51148  1.0000
  Fe  Fe4       1.0  0.04393  0.29345  0.60569  1.0000
  C   C37       1.0  0.01505  0.22425  0.47902  1.0000
  H   H58       1.0  0.16488  0.28172  0.53179  1.0000
  H   H59       1.0  0.20930  0.31259  0.54283  1.0000
  C   C38       1.0  0.20168  0.26130  0.58464  1.0000
  H   H60       1.0  0.09637  0.16534  0.57144  1.0000
  C   C39       1.0  0.07261  0.49759  0.64709  1.0000
  C   C40       1.0  0.19974  0.27820  0.54383  1.0000
  H   H61       1.0  0.22397  0.25657  0.52598  1.0000
  H   H62       1.0  0.10009  0.30976  0.47345  1.0000
  H   H63       1.0  0.25050  0.11026  0.56028  1.0000
  S   S10       1.0  0.01192  0.21200  0.40386  1.0000
  H   H64       1.0  0.19135  0.16964  0.63996  1.0000
  S   S11       1.0  0.03055  0.22654  0.62727  1.0000
  H   H65       1.0  0.06821  0.42627  0.64448  1.0000
  H   H66       1.0  0.01238  0.23808  0.53777  1.0000
  H   H67       1.0  0.24350  0.24718  0.65627  1.0000
  H   H68       1.0  0.09132  0.49772  0.62153  1.0000
  H   H69       1.0  0.02789  0.37783  0.37460  1.0000
  H   H70       1.0  0.03298  0.37310  0.42371  1.0000
  C   C41       1.0  0.05961  0.45689  0.66009  1.0000
  C   C42       1.0  0.00793  0.38125  0.40060  1.0000
  H   H71       1.0  0.22636  0.21178  0.78464  1.0000
  H   H72       1.0  0.47251  0.05577  0.80641  1.0000
  H   H73       1.0  0.26204  0.06169  0.99373  1.0000
  S   S12       1.0  0.28278  0.12760  0.80590  1.0000
  H   H74       1.0  0.24365  0.19468  0.68009  1.0000
  S   S13       1.0  0.34571  0.01639  0.76417  1.0000
  C   C43       1.0  0.16332  0.16110  0.72318  1.0000
  C   C44       1.0  0.17819  0.19557  0.74349  1.0000
  C   C45       1.0  0.21507  0.18519  0.76873  1.0000
  C   C46       1.0  0.23706  0.14041  0.77379  1.0000
  C   C47       1.0  0.22234  0.10622  0.75312  1.0000
  C   C48       1.0  0.18571  0.11656  0.72792  1.0000
  C   C49       1.0  0.03650  0.45569  0.69365  1.0000
  H   H75       1.0  0.16122  0.23003  0.73996  1.0000
  H   H76       1.0  0.23906  0.07167  0.75665  1.0000
  Fe  Fe5       1.0  0.31050  0.05318  0.81214  1.0000
  C   C50       1.0  0.27031  0.02531  0.99234  1.0000
  S   S14       1.0  0.02094  0.40467  0.71177  1.0000
  H   H77       1.0  0.17449  0.08974  0.71225  1.0000
  S   S15       1.0  0.36426  0.02350  0.85437  1.0000
  H   H78       1.0  0.28456  0.02567  0.93349  1.0000
  S   S16       1.0  0.11755  0.17150  0.69099  1.0000
  H   H79       1.0  0.47954  0.05267  0.92142  1.0000
  Fe  Fe6       1.0  0.07448  0.23856  0.67609  1.0000
  H   H80       1.0  0.41315  0.01851  0.99336  1.0000
  Fe  Fe7       1.0  0.02953  0.33816  0.68050  1.0000
  C   C51       1.0  0.28298  0.00500  0.95820  1.0000
  C   C52       1.0  0.02588  0.49592  0.71365  1.0000
  S   S17       1.0  0.26406  0.00225  0.82350  1.0000
  S   S18       1.0  0.01615  0.27366  0.70918  1.0000
  H   H81       1.0  0.00818  0.49541  0.73970  1.0000
  Fe  Fe8       1.0  0.04983  0.74817  0.28541  1.0000
  C   C53       1.0  0.48598  0.95416  0.15814  1.0000
  S   S19       1.0  0.07136  0.81281  0.26313  1.0000
  H   H82       1.0  0.20520  0.88527  0.31012  1.0000
  S   S20       1.0  0.05072  0.57943  0.26288  1.0000
  H   H83       1.0  0.45978  0.87324  0.06925  1.0000
  H   H84       1.0  0.41275  0.84674  0.05527  1.0000
  Fe  Fe9       1.0  0.36500  0.94612  0.16134  1.0000
  H   H85       1.0  0.42522  0.97596  0.31302  1.0000
  S   S21       1.0  0.44107  0.92197  0.15491  1.0000
  Fe  Fe10      1.0  0.27709  0.90484  0.17272  1.0000
  C   C54       1.0  0.43223  0.93849  0.26227  1.0000
  S   S22       1.0  0.25690  0.83605  0.18400  1.0000
  C   C55       1.0  0.41299  0.98134  0.28376  1.0000
  H   H86       1.0  0.27752  0.93099  0.04707  1.0000
  Fe  Fe11      1.0  0.27774  0.98596  0.12043  1.0000
  S   S23       1.0  0.31846  0.91651  0.12249  1.0000
  S   S24       1.0  0.32690  0.92886  0.21181  1.0000
  H   H87       1.0  0.47995  0.94181  0.06761  1.0000
  Fe  Fe12      1.0  0.03258  0.64863  0.28913  1.0000
  C   C56       1.0  0.39244  0.97978  0.05984  1.0000
  H   H88       1.0  0.35955  0.96627  0.05998  1.0000
  H   H89       1.0  0.50222  0.97675  0.30566  1.0000
  S   S25       1.0  0.23174  0.97209  0.16738  1.0000
  C   C57       1.0  0.12294  0.81803  0.24067  1.0000
  C   C58       1.0  0.15459  0.78040  0.23143  1.0000
  C   C59       1.0  0.19562  0.78642  0.21414  1.0000
  C   C60       1.0  0.20531  0.82997  0.20612  1.0000
  C   C61       1.0  0.17384  0.86754  0.21580  1.0000
  C   C62       1.0  0.13275  0.86155  0.23287  1.0000
  H   H90       1.0  0.14730  0.74674  0.23719  1.0000
  H   H91       1.0  0.21983  0.75722  0.20661  1.0000
  H   H92       1.0  0.18104  0.90117  0.20984  1.0000
  H   H93       1.0  0.10847  0.89080  0.24008  1.0000
  S   S26       1.0  0.08766  0.68484  0.31194  1.0000
  N   N4        1.0  0.42300  0.95843  0.02945  1.0000
  H   H94       1.0  0.37540  0.98185  0.28496  1.0000
  C   C63       1.0  0.03186  0.52834  0.27716  1.0000
  H   H95       1.0  0.21773  0.82875  0.29480  1.0000
  H   H96       1.0  0.40279  0.89432  0.08457  1.0000
  C   C64       1.0  0.27934  0.95181  0.02255  1.0000
  H   H97       1.0  0.40807  0.97094  0.08769  1.0000
  H   H98       1.0  0.49552  0.93525  0.02119  1.0000
  C   C65       1.0  0.42327  0.87999  0.06093  1.0000
  H   H99       1.0  0.01661  0.88802  0.30150  1.0000
  H   H100      1.0  0.42156  0.94076  0.23275  1.0000
  H   H101      1.0  0.46995  0.93074  0.26397  1.0000
  C   C66       1.0  0.16336  0.84046  0.33642  1.0000
  C   C67       1.0  0.47250  0.95770  0.03960  1.0000
  H   H102      1.0  0.41887  0.90902  0.27459  1.0000
  C   C68       1.0  0.41509  0.91011  0.02562  1.0000
  H   H103      1.0  0.37954  0.90903  0.01593  1.0000
  H   H104      1.0  0.16427  0.75817  0.30855  1.0000
  H   H105      1.0  0.13838  0.84198  0.31308  1.0000
  Fe  Fe13      1.0  0.28420  0.99712  0.20363  1.0000
  H   H106      1.0  0.48323  0.99795  0.23639  1.0000
  C   C69       1.0  0.20890  0.84946  0.31978  1.0000
  H   H107      1.0  0.21991  0.76285  0.32494  1.0000
  H   H108      1.0  0.20071  0.68577  0.32978  1.0000
  C   C70       1.0  0.26899  0.99880  0.02471  1.0000
  C   C71       1.0  0.18525  0.75861  0.33433  1.0000
  H   H109      1.0  0.23734  0.84364  0.34028  1.0000
  H   H110      1.0  0.09152  0.63682  0.53871  1.0000
  Fe  Fe14      1.0  0.05610  0.75219  0.62056  1.0000
  S   S27       1.0  0.00961  0.71338  0.65251  1.0000
  S   S28       1.0  0.11846  0.70007  0.62926  1.0000
  H   H111      1.0  0.17122  0.83691  0.67048  1.0000
  C   C72       1.0  0.04503  0.76141  0.52348  1.0000
  C   C73       1.0  0.08475  0.72997  0.52035  1.0000
  C   C74       1.0  0.09574  0.70909  0.48627  1.0000
  H   H112      1.0  0.46819  0.94302  0.67199  1.0000
  H   H113      1.0  0.10690  0.72162  0.54427  1.0000
  H   H114      1.0  0.12632  0.68440  0.48422  1.0000
  S   S29       1.0  0.07895  0.68689  0.41492  1.0000
  C   C75       1.0  0.33541  0.90241  0.64942  1.0000
  H   H115      1.0  0.43665  0.87876  0.64338  1.0000
  H   H116      1.0  0.13722  0.57339  0.57333  1.0000
  H   H117      1.0  0.01431  0.57583  0.59329  1.0000
  C   C76       1.0  0.11199  0.56627  0.55209  1.0000
  C   C77       1.0  0.01253  0.56315  0.53249  1.0000
  C   C78       1.0  0.43253  0.86134  0.67041  1.0000
  H   H118      1.0  0.11465  0.76142  0.38463  1.0000
  C   C79       1.0  0.06670  0.71880  0.45527  1.0000
  C   C80       1.0  0.02761  0.75121  0.45798  1.0000
  Fe  Fe15      1.0  0.04061  0.70010  0.36016  1.0000
  H   H119      1.0  0.13095  0.55872  0.52600  1.0000
  H   H120      1.0  0.49707  0.81660  0.66395  1.0000
  N   N5        1.0  0.16492  0.79701  0.35862  1.0000
  H   H121      1.0  0.35322  0.87612  0.63112  1.0000
  C   C81       1.0  0.07464  0.60800  0.54793  1.0000
  H   H122      1.0  0.21993  0.70600  0.37234  1.0000
  S   S30       1.0  0.02909  0.78642  0.56637  1.0000
  Fe  Fe16      1.0  0.07293  0.66259  0.66402  1.0000
  H   H123      1.0  0.01348  0.67174  0.50243  1.0000
  H   H124      1.0  0.31553  0.92892  0.63135  1.0000
  H   H125      1.0  0.23037  0.78849  0.38715  1.0000
  C   C82       1.0  0.18220  0.77174  0.42766  1.0000
  H   H126      1.0  0.20868  0.77286  0.44945  1.0000
  C   C83       1.0  0.08758  0.83213  0.38595  1.0000
  H   H127      1.0  0.06317  0.61696  0.57628  1.0000
  C   C84       1.0  0.01994  0.59787  0.45146  1.0000
  S   S31       1.0  0.08047  0.58765  0.64903  1.0000
  H   H128      1.0  0.05699  0.82099  0.39845  1.0000
  H   H129      1.0  0.07783  0.62030  0.47705  1.0000
  H   H130      1.0  0.10662  0.84633  0.40831  1.0000
  C   C85       1.0  0.19360  0.79931  0.39323  1.0000
  H   H131      1.0  0.19137  0.83474  0.40280  1.0000
  H   H132      1.0  0.18143  0.73574  0.42199  1.0000
  H   H133      1.0  0.14914  0.78624  0.44000  1.0000
  H   H134      1.0  0.38624  0.94491  0.65411  1.0000
  C   C86       1.0  0.11639  0.79164  0.36702  1.0000
  H   H135      1.0  0.09805  0.78557  0.34097  1.0000
  H   H136      1.0  0.07517  0.85917  0.36522  1.0000
  H   H137      1.0  0.07654  0.56167  0.48213  1.0000
  H   H138      1.0  0.41556  0.83191  0.66321  1.0000
  H   H139      1.0  0.02029  0.68523  0.56855  1.0000
  C   C87       1.0  0.19138  0.71087  0.35189  1.0000
  C   C88       1.0  0.06232  0.53779  0.66712  1.0000
  H   H140      1.0  0.31000  0.88804  0.66633  1.0000
  H   H141      1.0  0.15998  0.70248  0.36475  1.0000
  N   N6        1.0  0.03537  0.60311  0.52222  1.0000
  H   H142      1.0  0.03508  0.53060  0.52724  1.0000
  C   C89       1.0  0.01701  0.77268  0.49200  1.0000
  H   H143      1.0  0.03880  0.59056  0.42517  1.0000
  S   S32       1.0  0.07206  0.79344  0.66934  1.0000
  H   H144      1.0  0.15099  0.87023  0.35372  1.0000
  H   H145      1.0  0.09808  0.53617  0.56222  1.0000
  C   C90       1.0  0.05485  0.59536  0.48380  1.0000
  C   C91       1.0  0.36882  0.92436  0.67369  1.0000
  H   H146      1.0  0.42761  0.84834  0.76719  1.0000
  H   H147      1.0  0.42227  0.80260  0.73519  1.0000
  S   S33       1.0  0.19837  0.74889  0.70682  1.0000
  H   H148      1.0  0.10075  0.76119  0.81344  1.0000
  C   C92       1.0  0.43633  0.96274  0.95854  1.0000
  H   H149      1.0  0.07825  0.91369  0.73676  1.0000
  Fe  Fe17      1.0  0.32062  0.96911  0.86130  1.0000
  S   S34       1.0  0.35516  0.92575  0.81617  1.0000
  C   C93       1.0  0.40406  0.83245  0.74950  1.0000
  C   C94       1.0  0.06053  0.88556  0.74596  1.0000
  H   H150      1.0  0.03413  0.89742  0.76661  1.0000
  Fe  Fe18      1.0  0.30211  0.96329  0.77774  1.0000
  S   S35       1.0  0.26233  0.93979  0.72938  1.0000
  H   H151      1.0  0.03734  0.82028  0.81280  1.0000
  S   S36       1.0  0.31301  0.93078  0.91497  1.0000
  C   C95       1.0  0.29384  0.95797  0.95626  1.0000
  H   H152      1.0  0.19771  0.91071  0.67964  1.0000
  C   C96       1.0  0.21197  0.88178  0.69664  1.0000
  H   H153      1.0  0.13259  0.75590  0.77080  1.0000
  C   C97       1.0  0.43017  0.92028  0.71962  1.0000
  H   H154      1.0  0.10627  0.86869  0.85368  1.0000
  C   C98       1.0  0.37646  0.86581  0.72178  1.0000
  H   H155      1.0  0.48278  0.82578  0.71146  1.0000
  C   C99       1.0  0.21563  0.80226  0.71277  1.0000
  C   C100      1.0  0.24936  0.80674  0.73954  1.0000
  C   C101      1.0  0.26323  0.84888  0.74575  1.0000
  C   C102      1.0  0.24482  0.88651  0.72406  1.0000
  H   H156      1.0  0.04230  0.87521  0.72123  1.0000
  Fe  Fe19      1.0  0.13052  0.73806  0.68109  1.0000
  H   H157      1.0  0.26417  0.77756  0.75605  1.0000
  H   H158      1.0  0.28833  0.85210  0.76707  1.0000
  H   H159      1.0  0.42661  0.92986  0.95057  1.0000
  C   C103      1.0  0.45244  0.95604  0.69823  1.0000
  C   C104      1.0  0.05085  0.83606  0.83710  1.0000
  N   N7        1.0  0.11900  0.85129  0.79634  1.0000
  C   C105      1.0  0.14726  0.88828  0.78920  1.0000
  C   C106      1.0  0.09438  0.84459  0.76051  1.0000
  C   C107      1.0  0.15103  0.80866  0.80715  1.0000
  C   C108      1.0  0.13416  0.76317  0.80086  1.0000
  C   C109      1.0  0.18184  0.89570  0.81995  1.0000
  H   H160      1.0  0.35524  0.84526  0.70574  1.0000
  C   C110      1.0  0.19685  0.84004  0.69142  1.0000
  C   C111      1.0  0.29144  0.93153  0.98844  1.0000
  H   H161      1.0  0.16701  0.88168  0.76334  1.0000
  H   H162      1.0  0.12525  0.92152  0.78449  1.0000
  H   H163      1.0  0.45769  0.89905  0.73578  1.0000
  H   H164      1.0  0.11948  0.83461  0.73815  1.0000
  H   H165      1.0  0.18314  0.80623  0.79110  1.0000
  S   S37       1.0  0.47215  0.95829  0.79994  1.0000
  H   H166      1.0  0.40809  0.93850  0.74108  1.0000
  H   H167      1.0  0.06886  0.90140  0.82280  1.0000
  H   H168      1.0  0.37983  0.81940  0.76868  1.0000
  H   H169      1.0  0.35216  0.88940  0.73836  1.0000
  H   H170      1.0  0.20848  0.86575  0.82451  1.0000
  S   S38       1.0  0.09007  0.69653  0.71647  1.0000
  H   H171      1.0  0.15920  0.73552  0.81341  1.0000
  H   H172      1.0  0.16505  0.90584  0.84652  1.0000
  C   C112      1.0  0.40988  0.98224  0.99280  1.0000
  H   H173      1.0  0.29936  0.89512  0.98703  1.0000
  H   H174      1.0  0.07496  0.81605  0.76241  1.0000
  H   H175      1.0  0.16154  0.80930  0.83687  1.0000
  H   H176      1.0  0.47954  0.96695  0.71585  1.0000
  Fe  Fe20      1.0  0.03070  0.75060  0.70203  1.0000
  H   H177      1.0  0.50354  0.86903  0.68432  1.0000
  H   H178      1.0  0.37306  0.98205  0.98689  1.0000
  H   H179      1.0  0.20003  0.92373  0.81101  1.0000
  H   H180      1.0  0.47373  0.95956  0.96250  1.0000
  C   C113      1.0  0.08681  0.86625  0.82746  1.0000
  Fe  Fe21      1.0  0.39588  0.98240  0.80700  1.0000
  N   N8        1.0  0.40311  0.89224  0.69636  1.0000
  H   H181      1.0  0.06467  0.80939  0.85773  1.0000
  C   C114      1.0  0.03851  0.53683  0.70040  1.0000
  H   H182      1.0  0.34806  0.94910  0.69201  1.0000
  H   H183      1.0  0.03048  0.56737  0.71619  1.0000
  H   H184      1.0  0.42673  0.98595  0.93441  1.0000
  C   C115      1.0  0.48148  0.84238  0.68381  1.0000
  H   H185      1.0  0.02057  0.85719  0.84910  1.0000
  H   H186      1.0  0.43764  0.89229  0.00428  1.0000
  H   H187      1.0  0.42705  0.98668  0.69219  1.0000
  Fe  Fe22      1.0  0.99514  0.22972  0.26511  1.0000
  H   H188      1.0  0.79400  0.26449  0.18258  1.0000
  H   H189      1.0  0.76439  0.20250  0.21118  1.0000
  H   H190      1.0  0.78397  0.25038  0.10014  1.0000
  S   S39       1.0  0.96609  0.18908  0.22002  1.0000
  Fe  Fe23      1.0  0.77115  0.03961  0.19429  1.0000
  H   H191      1.0  0.72003  0.18863  0.13522  1.0000
  S   S40       1.0  0.80258  0.07707  0.23980  1.0000
  H   H192      1.0  0.88874  0.01479  0.26209  1.0000
  H   H193      1.0  0.82990  0.27357  0.14351  1.0000
  H   H194      1.0  0.70651  0.19803  0.20076  1.0000
  H   H195      1.0  0.80317  0.12096  0.15666  1.0000
  S   S41       1.0  0.75546  0.06672  0.05665  1.0000
  H   H196      1.0  0.72516  0.20541  0.07529  1.0000
  S   S42       1.0  0.71449  0.07138  0.15640  1.0000
  H   H197      1.0  0.84375  0.13181  0.07889  1.0000
  C   C116      1.0  0.74219  0.18722  0.19178  1.0000
  H   H198      1.0  0.85455  0.25605  0.18768  1.0000
  C   C117      1.0  0.76099  0.03638  0.01492  1.0000
  H   H199      1.0  0.82871  0.20856  0.08541  1.0000
  C   C118      1.0  0.84392  0.11875  0.10781  1.0000
  C   C119      1.0  0.85050  0.10509  0.23509  1.0000
  C   C120      1.0  0.87978  0.09800  0.20483  1.0000
  C   C121      1.0  0.91596  0.12306  0.20113  1.0000
  C   C122      1.0  0.92350  0.15489  0.22786  1.0000
  C   C123      1.0  0.89543  0.16048  0.25889  1.0000
  C   C124      1.0  0.85909  0.13567  0.26244  1.0000
  H   H200      1.0  0.87406  0.07382  0.18403  1.0000
  H   H201      1.0  0.93779  0.11831  0.17718  1.0000
  H   H202      1.0  0.90101  0.18474  0.27971  1.0000
  H   H203      1.0  0.83695  0.14091  0.28620  1.0000
  C   C125      1.0  0.79360  0.21328  0.09689  1.0000
  H   H204      1.0  0.74905  0.15001  0.19507  1.0000
  H   H205      1.0  0.77110  0.12751  0.11504  1.0000
  H   H206      1.0  0.84500  0.08164  0.10590  1.0000
  N   N9        1.0  0.79294  0.18912  0.13384  1.0000
  C   C126      1.0  0.83042  0.20168  0.15817  1.0000
  C   C127      1.0  0.80075  0.13862  0.12921  1.0000
  C   C128      1.0  0.74679  0.20269  0.15109  1.0000
  H   H207      1.0  0.87566  0.12411  0.12226  1.0000
  C   C129      1.0  0.82622  0.25198  0.16821  1.0000
  C   C130      1.0  0.96188  0.01164  0.26662  1.0000
  H   H208      1.0  0.73628  0.23999  0.14972  1.0000
  S   S43       1.0  0.96431  0.27094  0.31277  1.0000
  H   H209      1.0  0.83324  0.18186  0.18458  1.0000
  H   H210      1.0  0.86421  0.19299  0.14482  1.0000
  C   C131      1.0  0.76129  0.19979  0.06664  1.0000
  H   H211      1.0  0.50820  0.06201  0.16352  1.0000
  S   S44       1.0  0.60369  0.03435  0.17686  1.0000
  Fe  Fe24      1.0  0.75039  0.02950  0.11131  1.0000
  Fe  Fe25      1.0  0.67984  0.01132  0.16855  1.0000
  S   S45       1.0  0.97482  0.39695  0.30479  1.0000
  C   C132      1.0  0.98143  0.48709  0.31233  1.0000
  H   H212      1.0  0.76360  0.22095  0.04135  1.0000
  H   H213      1.0  0.77082  0.16417  0.05825  1.0000
  C   C133      1.0  0.51461  0.02550  0.16284  1.0000
  H   H214      1.0  0.93422  0.00169  0.19409  1.0000
  H   H215      1.0  0.95201  0.04860  0.26164  1.0000
  H   H216      1.0  0.95456  0.48726  0.33236  1.0000
  H   H217      1.0  0.54242  0.00426  0.28117  1.0000
  C   C134      1.0  0.99922  0.44644  0.29497  1.0000
  C   C135      1.0  0.55955  0.00273  0.16718  1.0000
  S   S46       1.0  0.81014  0.00285  0.14832  1.0000
  H   H218      1.0  0.98366  0.00839  0.29204  1.0000
  H   H219      1.0  0.89262  0.39134  0.36457  1.0000
  H   H220      1.0  0.85876  0.43793  0.38566  1.0000
  S   S47       1.0  0.98197  0.33172  0.63273  1.0000
  H   H221      1.0  0.99074  0.20089  0.48054  1.0000
  H   H222      1.0  0.91644  0.44125  0.37615  1.0000
  H   H223      1.0  0.88475  0.31903  0.45174  1.0000
  H   H224      1.0  0.99133  0.41690  0.40211  1.0000
  C   C136      1.0  0.90618  0.40018  0.42560  1.0000
  H   H225      1.0  0.93304  0.28370  0.43361  1.0000
  H   H226      1.0  0.90239  0.30959  0.36824  1.0000
  C   C137      1.0  0.88166  0.31186  0.39362  1.0000
  C   C138      1.0  0.90989  0.31646  0.42893  1.0000
  H   H227      1.0  0.98097  0.38161  0.46955  1.0000
  H   H228      1.0  0.91904  0.32170  0.50649  1.0000
  H   H229      1.0  0.97691  0.07995  0.63804  1.0000
  H   H230      1.0  0.85244  0.33973  0.39090  1.0000
  H   H231      1.0  0.94924  0.01170  0.63825  1.0000
  Fe  Fe26      1.0  0.97327  0.26490  0.65924  1.0000
  H   H232      1.0  0.87389  0.39955  0.44096  1.0000
  C   C139      1.0  0.89341  0.41763  0.38559  1.0000
  H   H233      1.0  0.95834  0.34929  0.37185  1.0000
  N   N10       1.0  0.93687  0.35516  0.42960  1.0000
  H   H234      1.0  0.88802  0.07196  0.63798  1.0000
  H   H235      1.0  0.92290  0.42699  0.43858  1.0000
  H   H236      1.0  0.95236  0.35966  0.52631  1.0000
  C   C140      1.0  0.96119  0.35319  0.46673  1.0000
  H   H237      1.0  0.93124  0.12643  0.64698  1.0000
  C   C141      1.0  0.93119  0.35447  0.50158  1.0000
  H   H238      1.0  0.90201  0.38245  0.50041  1.0000
  C   C142      1.0  0.97305  0.34805  0.40016  1.0000
  H   H239      1.0  0.98646  0.32197  0.46912  1.0000
  H   H240      1.0  0.86710  0.27994  0.39568  1.0000
  H   H241      1.0  0.81265  0.05005  0.64453  1.0000
  H   H242      1.0  0.99274  0.31340  0.40254  1.0000
  S   S48       1.0  0.90539  0.23899  0.66207  1.0000
  C   C143      1.0  0.96102  0.10372  0.65916  1.0000
  C   C144      1.0  0.87831  0.06110  0.66606  1.0000
  C   C145      1.0  0.84248  0.03011  0.65911  1.0000
  H   H243      1.0  0.98630  0.12589  0.66678  1.0000
  H   H244      1.0  0.85553  0.00209  0.64046  1.0000
  C   C146      1.0  0.94879  0.00374  0.66853  1.0000
  C   C147      1.0  0.90531  0.02741  0.72656  1.0000
  S   S49       1.0  0.63278  0.07710  0.79443  1.0000
  C   C148      1.0  0.84266  0.32508  0.79947  1.0000
  H   H245      1.0  0.58199  0.00229  0.87075  1.0000
  Fe  Fe27      1.0  0.80530  0.07279  0.80054  1.0000
  C   C149      1.0  0.76290  0.06006  0.98120  1.0000
  S   S50       1.0  0.85572  0.12260  0.80086  1.0000
  Fe  Fe28      1.0  0.70852  0.04823  0.79582  1.0000
  H   H246      1.0  0.65717  0.10684  0.87481  1.0000
  H   H247      1.0  0.95093  0.43824  0.76941  1.0000
  H   H248      1.0  0.59603  0.04964  0.00403  1.0000
  S   S51       1.0  0.74942  0.07223  0.84234  1.0000
  S   S52       1.0  0.76229  0.05548  0.75285  1.0000
  H   H249      1.0  0.93318  0.30108  0.82152  1.0000
  C   C150      1.0  0.76842  0.03690  0.94752  1.0000
  H   H250      1.0  0.66129  0.00991  0.86002  1.0000
  C   C151      1.0  0.91398  0.44430  0.76234  1.0000
  H   H251      1.0  0.77084  0.05546  0.92187  1.0000
  H   H252      1.0  0.98057  0.06635  0.70920  1.0000
  H   H253      1.0  0.76083  0.09641  0.98118  1.0000
  H   H254      1.0  0.94685  0.27223  0.77795  1.0000
  H   H255      1.0  0.54719  0.00537  0.95345  1.0000
  C   C152      1.0  0.89204  0.20636  0.70066  1.0000
  C   C153      1.0  0.92091  0.19896  0.73175  1.0000
  C   C154      1.0  0.90875  0.17410  0.76252  1.0000
  C   C155      1.0  0.86840  0.15505  0.76203  1.0000
  C   C156      1.0  0.83975  0.16191  0.73076  1.0000
  C   C157      1.0  0.85136  0.18784  0.70034  1.0000
  H   H256      1.0  0.95269  0.21223  0.73209  1.0000
  H   H257      1.0  0.93124  0.16874  0.78653  1.0000
  H   H258      1.0  0.80841  0.14769  0.73020  1.0000
  H   H259      1.0  0.83494  0.32731  0.82957  1.0000
  H   H260      1.0  0.87540  0.38277  0.81244  1.0000
  H   H261      1.0  0.83815  0.31154  0.69070  1.0000
  H   H262      1.0  0.80939  0.32411  0.78539  1.0000
  H   H263      1.0  0.86504  0.29244  0.79578  1.0000
  N   N11       1.0  0.89922  0.36138  0.75792  1.0000
  C   C158      1.0  0.90043  0.40617  0.73833  1.0000
  C   C159      1.0  0.94561  0.34644  0.77539  1.0000
  C   C160      1.0  0.86267  0.36767  0.78710  1.0000
  C   C161      1.0  0.58844  0.04365  0.79564  1.0000
  C   C162      1.0  0.95336  0.30031  0.79574  1.0000
  H   H264      1.0  0.58548  0.10520  0.91866  1.0000
  H   H265      1.0  0.90805  0.47646  0.74598  1.0000
  H   H266      1.0  0.88988  0.29411  0.73995  1.0000
  H   H267      1.0  0.88184  0.05560  0.73930  1.0000
  H   H268      1.0  0.83302  0.39241  0.77689  1.0000
  C   C163      1.0  0.54323  0.06467  0.80099  1.0000
  H   H269      1.0  0.95348  0.37087  0.79647  1.0000
  C   C164      1.0  0.84600  0.34156  0.70570  1.0000
  C   C165      1.0  0.89053  0.32839  0.72848  1.0000
  H   H270      1.0  0.86650  0.41990  0.72603  1.0000
  H   H271      1.0  0.66805  0.01585  0.94664  1.0000
  H   H272      1.0  0.89356  0.44947  0.78794  1.0000
  N   N12       1.0  0.59956  0.03221  0.92229  1.0000
  C   C166      1.0  0.65430  0.08768  0.90112  1.0000
  H   H273      1.0  0.91910  0.32371  0.70834  1.0000
  H   H274      1.0  0.53602  0.10097  0.80378  1.0000
  H   H275      1.0  0.92435  0.40186  0.71447  1.0000
  H   H276      1.0  0.66117  0.11083  0.92351  1.0000
  H   H277      1.0  0.68169  0.05826  0.90086  1.0000
  N   N13       1.0  0.91995  0.04161  0.68872  1.0000
  H   H278      1.0  0.92957  0.10534  0.71264  1.0000
  H   H279      1.0  0.54428  0.06494  0.95617  1.0000
  H   H280      1.0  0.51630  0.07146  0.88757  1.0000
  C   C167      1.0  0.94436  0.01246  0.75477  1.0000
  H   H281      1.0  0.97259  0.34584  0.75410  1.0000
  H   H282      1.0  0.81631  0.35357  0.72324  1.0000
  C   C168      1.0  0.94788  0.07911  0.69446  1.0000
  H   H283      1.0  0.95825  0.04210  0.76563  1.0000
  H   H284      1.0  0.84994  0.36761  0.68424  1.0000
  C   C169      1.0  0.60526  0.07649  0.90363  1.0000
  H   H285      1.0  0.82917  0.01715  0.68507  1.0000
  C   C170      1.0  0.62647  0.05320  0.98725  1.0000
  H   H286      1.0  0.98981  0.29248  0.80441  1.0000
  H   H287      1.0  0.82876  0.19349  0.67644  1.0000
  C   C171      1.0  0.55154  0.03612  0.93688  1.0000
  C   C172      1.0  0.63180  0.01982  0.95482  1.0000
  H   H288      1.0  0.62461  0.08875  0.97772  1.0000
  H   H289      1.0  0.59075  0.07849  0.87490  1.0000
  H   H290      1.0  0.86029  0.09203  0.67940  1.0000
  H   H291      1.0  0.65660  0.04537  0.00616  1.0000
  C   C173      1.0  0.50716  0.03913  0.80250  1.0000
  H   H292      1.0  0.51056  0.01227  0.89177  1.0000
  C   C174      1.0  0.51279  0.04354  0.90738  1.0000
  H   H293      1.0  0.83581  0.65636  0.27643  1.0000
  H   H294      1.0  0.98460  0.55843  0.31783  1.0000
  S   S53       1.0  0.88302  0.75588  0.30436  1.0000
  S   S54       1.0  0.71311  0.97090  0.12117  1.0000
  S   S55       1.0  0.81365  0.87804  0.16340  1.0000
  H   H295      1.0  0.52707  0.99825  0.03697  1.0000
  H   H296      1.0  0.95615  0.63018  0.25168  1.0000
  C   C175      1.0  0.93538  0.61062  0.23419  1.0000
  H   H297      1.0  0.90498  0.57305  0.29937  1.0000
  C   C176      1.0  0.86533  0.79363  0.26689  1.0000
  C   C177      1.0  0.82104  0.81840  0.26618  1.0000
  C   C178      1.0  0.80530  0.84620  0.23533  1.0000
  C   C179      1.0  0.83343  0.84842  0.20461  1.0000
  C   C180      1.0  0.87771  0.82391  0.20550  1.0000
  C   C181      1.0  0.89392  0.79751  0.23677  1.0000
  H   H298      1.0  0.79862  0.81562  0.28933  1.0000
  H   H299      1.0  0.77088  0.86454  0.23473  1.0000
  H   H300      1.0  0.89960  0.82524  0.18177  1.0000
  H   H301      1.0  0.92814  0.77922  0.23693  1.0000
  C   C182      1.0  0.96233  0.91306  0.26187  1.0000
  H   H302      1.0  0.83494  0.73728  0.19822  1.0000
  H   H303      1.0  0.84445  0.57558  0.28912  1.0000
  H   H304      1.0  0.88396  0.88626  0.27153  1.0000
  H   H305      1.0  0.96019  0.87980  0.24895  1.0000
  C   C183      1.0  0.88200  0.67809  0.21711  1.0000
  C   C184      1.0  0.87135  0.59486  0.29846  1.0000
  C   C185      1.0  0.93332  0.96530  0.18985  1.0000
  H   H306      1.0  0.98986  0.92596  0.24652  1.0000
  H   H307      1.0  0.81927  0.61368  0.22297  1.0000
  C   C186      1.0  0.56771  0.95561  0.16570  1.0000
  H   H308      1.0  0.89359  0.67603  0.18783  1.0000
  C   C187      1.0  0.88281  0.92208  0.27975  1.0000
  C   C188      1.0  0.87118  0.63795  0.27469  1.0000
  H   H309      1.0  0.96813  0.94563  0.18969  1.0000
  H   H310      1.0  0.60213  0.93774  0.16903  1.0000
  C   C189      1.0  0.83378  0.70638  0.21544  1.0000
  H   H311      1.0  0.94144  0.57640  0.24694  1.0000
  H   H312      1.0  0.90480  0.69856  0.23164  1.0000
  Fe  Fe29      1.0  0.77005  0.94720  0.16259  1.0000
  C   C190      1.0  0.86769  0.55240  0.21621  1.0000
  H   H313      1.0  0.96181  0.87791  0.31590  1.0000
  H   H314      1.0  0.91352  0.99015  0.30391  1.0000
  H   H315      1.0  0.83581  0.53741  0.21437  1.0000
  Fe  Fe30      1.0  0.95791  0.72595  0.30829  1.0000
  C   C191      1.0  0.91815  0.99053  0.27325  1.0000
  H   H316      1.0  0.53750  0.89493  0.16120  1.0000
  H   H317      1.0  0.88536  0.53855  0.24196  1.0000
  H   H318      1.0  0.97716  0.93401  0.31888  1.0000
  H   H319      1.0  0.82201  0.71842  0.24317  1.0000
  H   H320      1.0  0.89102  0.92083  0.30998  1.0000
  H   H321      1.0  0.80821  0.68818  0.20236  1.0000
  H   H322      1.0  0.91887  0.96266  0.16154  1.0000
  H   H323      1.0  0.82827  0.98174  0.28178  1.0000
  S   S56       1.0  0.73374  0.98270  0.21086  1.0000
  H   H324      1.0  0.89667  0.91283  0.20820  1.0000
  H   H325      1.0  0.85539  0.61345  0.18374  1.0000
  C   C192      1.0  0.85527  0.60456  0.21390  1.0000
  H   H326      1.0  0.96702  0.63945  0.18636  1.0000
  H   H327      1.0  0.81194  0.92940  0.29682  1.0000
  H   H328      1.0  0.76237  0.97081  0.04054  1.0000
  C   C193      1.0  0.53100  0.93147  0.16133  1.0000
  N   N14       1.0  0.88576  0.63159  0.23486  1.0000
  H   H329      1.0  0.81818  0.93933  0.24859  1.0000
  H   H330      1.0  0.89314  0.65925  0.28929  1.0000
  H   H331      1.0  0.88804  0.53949  0.19182  1.0000
  N   N15       1.0  0.91716  0.94396  0.25809  1.0000
  C   C194      1.0  0.90190  0.94674  0.21795  1.0000
  C   C195      1.0  0.83265  0.94504  0.27625  1.0000
  H   H332      1.0  0.93510  0.59481  0.17419  1.0000
  C   C196      1.0  0.76379  0.98937  0.01469  1.0000
  C   C197      1.0  0.95736  0.60670  0.19548  1.0000
  C   C198      1.0  0.98001  0.90314  0.30203  1.0000
  H   H333      1.0  0.86327  0.60479  0.32753  1.0000
  H   H334      1.0  0.98946  0.58203  0.19702  1.0000
  H   H335      1.0  0.86841  0.96896  0.21453  1.0000
  S   S57       1.0  0.99950  0.71084  0.25717  1.0000
  C   C199      1.0  0.99817  0.52761  0.30398  1.0000
  S   S58       1.0  0.98718  0.66101  0.33851  1.0000
  S   S59       1.0  0.00641  0.76581  0.33544  1.0000
  H   H336      1.0  0.98252  0.99865  0.24268  1.0000
  H   H337      1.0  0.95810  0.57756  0.57361  1.0000
  H   H338      1.0  0.99667  0.57257  0.45446  1.0000
  H   H339      1.0  0.94401  0.93698  0.64714  1.0000
  H   H340      1.0  0.96823  0.64028  0.50881  1.0000
  H   H341      1.0  0.97834  0.64951  0.57971  1.0000
  C   C200      1.0  0.99047  0.67091  0.55794  1.0000
  H   H342      1.0  0.99624  0.52508  0.58130  1.0000
  H   H343      1.0  0.96308  0.70021  0.55292  1.0000
  H   H344      1.0  0.98268  0.56182  0.51394  1.0000
  H   H345      1.0  0.98633  0.79721  0.49425  1.0000
  C   C201      1.0  0.99420  0.56099  0.57228  1.0000
  H   H346      1.0  0.00001  0.63221  0.44781  1.0000
  C   C202      1.0  0.00131  0.64627  0.52102  1.0000
  H   H347      1.0  0.00502  0.75894  0.43424  1.0000
  C   C203      1.0  0.93578  0.95591  0.67312  1.0000
  H   H348      1.0  0.74072  0.84792  0.87147  1.0000
  H   H349      1.0  0.63172  0.98017  0.78735  1.0000
  C   C204      1.0  0.76930  0.96620  0.98094  1.0000
  S   S60       1.0  0.73368  0.97489  0.80667  1.0000
  C   C205      1.0  0.76530  0.82668  0.89027  1.0000
  S   S61       1.0  0.81525  0.93269  0.72427  1.0000
  C   C206      1.0  0.87060  0.80240  0.82686  1.0000
  H   H350      1.0  0.92334  0.88356  0.88829  1.0000
  H   H351      1.0  0.80422  0.83236  0.77483  1.0000
  C   C207      1.0  0.94600  0.83010  0.73863  1.0000
  C   C208      1.0  0.93707  0.86644  0.76294  1.0000
  C   C209      1.0  0.89765  0.89880  0.75833  1.0000
  C   C210      1.0  0.86689  0.89491  0.72939  1.0000
  C   C211      1.0  0.87713  0.85993  0.70394  1.0000
  C   C212      1.0  0.91665  0.82764  0.70846  1.0000
  H   H352      1.0  0.95993  0.86867  0.78611  1.0000
  H   H353      1.0  0.89063  0.92606  0.77763  1.0000
  H   H354      1.0  0.87918  0.82840  0.90146  1.0000
  H   H355      1.0  0.77204  0.92979  0.98103  1.0000
  H   H356      1.0  0.83275  0.88967  0.81391  1.0000
  H   H357      1.0  0.88635  0.82299  0.80638  1.0000
  H   H358      1.0  0.74664  0.80110  0.90310  1.0000
  H   H359      1.0  0.82665  0.77820  0.88962  1.0000
  S   S62       1.0  0.77987  0.95964  0.90554  1.0000
  H   H360      1.0  0.83642  0.87515  0.89851  1.0000
  C   C213      1.0  0.81003  0.86815  0.82732  1.0000
  H   H361      1.0  0.76261  0.88103  0.78059  1.0000
  H   H362      1.0  0.92337  0.79979  0.68950  1.0000
  C   C214      1.0  0.86138  0.85362  0.88111  1.0000
  H   H363      1.0  0.78680  0.89199  0.84449  1.0000
  C   C215      1.0  0.80683  0.80200  0.86926  1.0000
  H   H364      1.0  0.65284  0.95263  0.85957  1.0000
  C   C216      1.0  0.59724  0.99675  0.79182  1.0000
  H   H365      1.0  0.59668  0.96279  0.90793  1.0000
  N   N16       1.0  0.83727  0.83163  0.85111  1.0000
  H   H366      1.0  0.92945  0.74932  0.82664  1.0000
  H   H367      1.0  0.77526  0.84753  0.91317  1.0000
  C   C217      1.0  0.89496  0.88486  0.86780  1.0000
  C   C218      1.0  0.56122  0.97124  0.79333  1.0000
  C   C219      1.0  0.77196  0.98985  0.94729  1.0000
  H   H368      1.0  0.56840  0.93501  0.79015  1.0000
  S   S63       1.0  0.99050  0.78563  0.74943  1.0000
  H   H369      1.0  0.85276  0.78013  0.80937  1.0000
  H   H370      1.0  0.91102  0.87477  0.84110  1.0000
  H   H371      1.0  0.89667  0.74908  0.86815  1.0000
  H   H372      1.0  0.79343  0.78001  0.84858  1.0000
  C   C220      1.0  0.78193  0.85141  0.79565  1.0000
  H   H373      1.0  0.87735  0.92032  0.86500  1.0000
  H   H374      1.0  0.75664  0.83080  0.80598  1.0000
  C   C221      1.0  0.90960  0.77135  0.84727  1.0000
  H   H375      1.0  0.93387  0.79102  0.86057  1.0000
  Fe  Fe31      1.0  0.77688  0.99899  0.85123  1.0000
  C   C222      1.0  0.60555  0.99423  0.89492  1.0000
  Fe  Fe32      1.0  0.79109  0.98351  0.76840  1.0000
  C   C223      1.0  0.65304  0.98201  0.87794  1.0000
  H   H376      1.0  0.95702  0.93614  0.69507  1.0000
  H   H377      1.0  0.68016  0.97174  0.89900  1.0000
  C   C224      1.0  0.51601  0.99225  0.79854  1.0000
  H   H378      1.0  0.89943  0.95495  0.67842  1.0000
  H   H379      1.0  0.97219  0.98811  0.74290  1.0000
  S   S64       1.0  0.83662  0.00095  0.81384  1.0000
  H   H380      1.0  0.93083  0.99577  0.77904  1.0000
  H   H381      1.0  0.98494  0.00042  0.67824  1.0000
  H   H382      1.0  0.62779  0.98600  0.96646  1.0000
  H   H383      1.0  0.88503  0.99946  0.72519  1.0000
  H   H384      1.0  0.85383  0.85708  0.68113  1.0000
