data_image0
_chemical_formula_structural       HCH2CH2CH7CHC3SFeH2C2SH3C5H3NHC2HCH6CHC2H4CH6CH4FeH3CHC2S2H3C2SCH2NC2FeSHC3FeHCH3SCH2CHSCSCHCFeCSCSHSCFeH5C2H2C2HSH3SHCHCH6CH3FeC4H5FeCH2CNH3CHCH2NHCH3C2FeHNH8C2SCSC2SH2SHC2H6CHFeCHCH5CH2CSH2CHCFeCHCHC2HCNHCHSHSCHC2H2CNHCHC2SH4SH2FeH3SH5SHCH2SFeH2C3H4FeC2HNH2CHCH2CHCH2FeHC2HFeHCHCH5C2HCHSHCHC2SHSCH4NH2SHCHC2HCSH4NH5CSCHCHCHCH4C4HFeH3C2H7CH3CHCH4NC4H3C2HCH2C3HCH2CH4CH5NCH4SCHCH4CH3C3HSFeSC3H4CFeSH3S2H3C2SCFeSHFeHSFeSCFeCFeCHC2HFeHSFeSH2FeHSC2H3SFeCHCS2H3CH2SHSHCH9C3H6CH2C2HCH2CH2SHCHCHCH6C2SCSHNH2NHCH2C3H3SNHCHCHCH3CSCHCHC3H4CHFe2H3CSC2HCHSFeCH2FeSHC2HFeCHSHCSHSCHFeH2SCHCSFeC3HCSHSFeHSHNFeCHCSCHSHCH2CHSHCSCH3C3H2CH5CH3CH2CH3CNHCH2C2H2SHC4H3FeHSHS2HNHCSC2H2CH2SCHCH5CHFeH4C2H2C2HCHC4FeNH4CHCH2C3H5C3HSNSHCH4C3H2CHC2HCHCHCSCHSNHC2FeH2CSHFeCH8SHCHCSHCSH2C2FeCH2CH2CH5C2HC3H2CH3CH4FeC2HCHC3HSHCH7C3FeS2HCHSC3H3CHSH2CHCH3CH5C3H2FeHCHNH2CH7SCHCH2SC2H2FeCHC2SC2H4SH4SCHCH2FeH5CH2NC2HC4HCH2C2NCH2CH3CHCH2CH2CH3SHCH3CHSH5
_chemical_formula_sum              "H576 C336 S96 Fe48 N24"
_cell_length_a       26.2071
_cell_length_b       30.903
_cell_length_c       22.4602
_cell_angle_alpha    77.251
_cell_angle_beta     87.5642
_cell_angle_gamma    88.4672

_space_group_name_H-M_alt    "P 1"
_space_group_IT_number       1

loop_
  _space_group_symop_operation_xyz
  'x, y, z'

loop_
  _atom_site_type_symbol
  _atom_site_label
  _atom_site_symmetry_multiplicity
  _atom_site_fract_x
  _atom_site_fract_y
  _atom_site_fract_z
  _atom_site_occupancy
  H   H1        1.0  0.27734  0.97778  0.88554  1.0000
  C   C1        1.0  0.26178  0.94993  0.92117  1.0000
  H   H2        1.0  0.34212  0.93241  0.92824  1.0000
  H   H3        1.0  0.24471  0.96490  0.95788  1.0000
  C   C2        1.0  0.30511  0.91518  0.94043  1.0000
  H   H4        1.0  0.23132  0.93584  0.89861  1.0000
  H   H5        1.0  0.55933  0.90355  0.89269  1.0000
  C   C3        1.0  0.22720  0.88596  0.78976  1.0000
  H   H6        1.0  0.10247  0.88872  0.82022  1.0000
  H   H7        1.0  0.11336  0.89992  0.89316  1.0000
  H   H8        1.0  0.30302  0.89167  0.90967  1.0000
  H   H9        1.0  0.07482  0.36992  0.96052  1.0000
  H   H10       1.0  0.57070  0.90422  0.79020  1.0000
  H   H11       1.0  0.31541  0.98507  0.00348  1.0000
  H   H12       1.0  0.25706  0.90837  0.16246  1.0000
  C   C4        1.0  0.17776  0.91382  0.18918  1.0000
  H   H13       1.0  0.52298  0.95721  0.08790  1.0000
  C   C5        1.0  0.40489  0.91601  0.19311  1.0000
  C   C6        1.0  0.46924  0.90452  0.11727  1.0000
  C   C7        1.0  0.46820  0.97229  0.15502  1.0000
  S   S1        1.0  0.49661  0.02224  0.15841  1.0000
  Fe  Fe1       1.0  0.07651  0.93673  0.10352  1.0000
  H   H14       1.0  0.26818  0.96129  0.06273  1.0000
  H   H15       1.0  0.40780  0.97838  0.22093  1.0000
  C   C8        1.0  0.42503  0.95776  0.19211  1.0000
  C   C9        1.0  0.49005  0.94579  0.11727  1.0000
  S   S2        1.0  0.16075  0.93596  0.11383  1.0000
  H   H16       1.0  0.22769  0.90937  0.03205  1.0000
  H   H17       1.0  0.10216  0.91603  0.23031  1.0000
  H   H18       1.0  0.33004  0.97448  0.08212  1.0000
  C   C10       1.0  0.30904  0.96147  0.04797  1.0000
  C   C11       1.0  0.22897  0.90214  0.19973  1.0000
  C   C12       1.0  0.42739  0.88922  0.15622  1.0000
  C   C13       1.0  0.33061  0.91497  0.04609  1.0000
  C   C14       1.0  0.14172  0.90654  0.23809  1.0000
  H   H19       1.0  0.37164  0.90479  0.22192  1.0000
  H   H20       1.0  0.37144  0.92022  0.03158  1.0000
  H   H21       1.0  0.33039  0.89537  0.09408  1.0000
  N   N1        1.0  0.30415  0.88981  0.00621  1.0000
  H   H22       1.0  0.10727  0.99950  0.26795  1.0000
  C   C15       1.0  0.35183  0.03019  0.44727  1.0000
  C   C16       1.0  0.56913  0.96343  0.31343  1.0000
  H   H23       1.0  0.50584  0.90194  0.27093  1.0000
  C   C17       1.0  0.26245  0.89656  0.49849  1.0000
  H   H24       1.0  0.49283  0.91205  0.36958  1.0000
  H   H25       1.0  0.50796  0.05243  0.45103  1.0000
  H   H26       1.0  0.41444  0.07150  0.45265  1.0000
  H   H27       1.0  0.54646  0.97146  0.35248  1.0000
  H   H28       1.0  0.43245  0.02090  0.43159  1.0000
  H   H29       1.0  0.26743  0.93185  0.50002  1.0000
  C   C18       1.0  0.53468  0.88631  0.45110  1.0000
  H   H30       1.0  0.34877  0.04165  0.39702  1.0000
  C   C19       1.0  0.15695  0.88649  0.29724  1.0000
  C   C20       1.0  0.40756  0.03507  0.46426  1.0000
  H   H31       1.0  0.32523  0.05157  0.46844  1.0000
  H   H32       1.0  0.33859  0.99562  0.45945  1.0000
  H   H33       1.0  0.50017  0.89193  0.47897  1.0000
  H   H34       1.0  0.09150  0.05213  0.28470  1.0000
  C   C21       1.0  0.07480  0.02186  0.27529  1.0000
  H   H35       1.0  0.07442  0.06311  0.38373  1.0000
  H   H36       1.0  0.29281  0.88811  0.46695  1.0000
  H   H37       1.0  0.22452  0.89485  0.47908  1.0000
  H   H38       1.0  0.54465  0.96644  0.27362  1.0000
  H   H39       1.0  0.56080  0.91420  0.44949  1.0000
  H   H40       1.0  0.38682  0.93048  0.48749  1.0000
  C   C22       1.0  0.51564  0.03700  0.49929  1.0000
  H   H41       1.0  0.53109  0.00277  0.50314  1.0000
  H   H42       1.0  0.46362  0.96112  0.50229  1.0000
  H   H43       1.0  0.37265  0.06057  0.56777  1.0000
  H   H44       1.0  0.34230  0.01154  0.56376  1.0000
  Fe  Fe2       1.0  0.17584  0.96883  0.59956  1.0000
  H   H45       1.0  0.39494  0.96819  0.65126  1.0000
  H   H46       1.0  0.35273  0.01014  0.66851  1.0000
  H   H47       1.0  0.48165  0.02404  0.58930  1.0000
  C   C23       1.0  0.38799  0.00453  0.64170  1.0000
  H   H48       1.0  0.41940  0.02093  0.65930  1.0000
  C   C24       1.0  0.22281  0.91787  0.73491  1.0000
  C   C25       1.0  0.37945  0.02415  0.57339  1.0000
  S   S3        1.0  0.08232  0.11059  0.51107  1.0000
  S   S4        1.0  0.25846  0.96090  0.62067  1.0000
  H   H49       1.0  0.49778  0.95842  0.72375  1.0000
  H   H50       1.0  0.45409  0.95388  0.58102  1.0000
  H   H51       1.0  0.18797  0.93740  0.72612  1.0000
  C   C26       1.0  0.54501  0.94797  0.64710  1.0000
  C   C27       1.0  0.26354  0.92435  0.69161  1.0000
  S   S5        1.0  0.12521  0.01186  0.64506  1.0000
  C   C28       1.0  0.46845  0.03845  0.54256  1.0000
  H   H52       1.0  0.35390  0.94491  0.55298  1.0000
  H   H53       1.0  0.45959  0.07409  0.54163  1.0000
  N   N2        1.0  0.42152  0.01525  0.52940  1.0000
  C   C29       1.0  0.50614  0.93705  0.69222  1.0000
  C   C30       1.0  0.39099  0.93483  0.53481  1.0000
  Fe  Fe3       1.0  0.09025  0.94536  0.52538  1.0000
  S   S6        1.0  0.12118  0.91244  0.61594  1.0000
  H   H54       1.0  0.39990  0.90196  0.56462  1.0000
  C   C31       1.0  0.43467  0.96658  0.53760  1.0000
  C   C32       1.0  0.30841  0.89919  0.70315  1.0000
  C   C33       1.0  0.55536  0.92064  0.60593  1.0000
  Fe  Fe4       1.0  0.09562  0.03829  0.55182  1.0000
  H   H55       1.0  0.33977  0.90368  0.66963  1.0000
  C   C34       1.0  0.47913  0.89766  0.69767  1.0000
  H   H56       1.0  0.54665  0.05616  0.51314  1.0000
  H   H57       1.0  0.44905  0.88920  0.73236  1.0000
  H   H58       1.0  0.09174  0.09840  0.64232  1.0000
  S   S7        1.0  0.14982  0.99799  0.50530  1.0000
  C   C35       1.0  0.31204  0.86661  0.75684  1.0000
  H   H59       1.0  0.19602  0.88111  0.82338  1.0000
  H   H60       1.0  0.12777  0.75716  0.97756  1.0000
  C   C36       1.0  0.38944  0.84916  0.98803  1.0000
  H   H61       1.0  0.21264  0.66144  0.87823  1.0000
  S   S8        1.0  0.27620  0.81714  0.86605  1.0000
  C   C37       1.0  0.19239  0.59950  0.94510  1.0000
  S   S9        1.0  0.38848  0.62777  0.82257  1.0000
  C   C38       1.0  0.21950  0.84972  0.00075  1.0000
  H   H62       1.0  0.29883  0.62969  0.90356  1.0000
  C   C39       1.0  0.56332  0.86717  0.90983  1.0000
  Fe  Fe5       1.0  0.35107  0.78278  0.85543  1.0000
  C   C40       1.0  0.28702  0.60954  0.94926  1.0000
  S   S10       1.0  0.38480  0.72266  0.91750  1.0000
  C   C41       1.0  0.09633  0.83074  0.89800  1.0000
  S   S11       1.0  0.42502  0.81957  0.83759  1.0000
  H   H63       1.0  0.54878  0.82859  0.80857  1.0000
  S   S12       1.0  0.52729  0.75338  0.94844  1.0000
  C   C42       1.0  0.10461  0.50799  0.85835  1.0000
  Fe  Fe6       1.0  0.45945  0.75698  0.89134  1.0000
  H   H64       1.0  0.07877  0.82653  0.94507  1.0000
  H   H65       1.0  0.31463  0.82579  0.98213  1.0000
  H   H66       1.0  0.16224  0.57427  0.94768  1.0000
  H   H67       1.0  0.14597  0.65553  0.89978  1.0000
  H   H68       1.0  0.15143  0.73498  0.91314  1.0000
  C   C43       1.0  0.11816  0.73687  0.94463  1.0000
  C   C44       1.0  0.52452  0.66691  0.94138  1.0000
  H   H69       1.0  0.17359  0.62411  0.84874  1.0000
  H   H70       1.0  0.53089  0.85031  0.89516  1.0000
  C   C45       1.0  0.30077  0.53572  0.87709  1.0000
  C   C46       1.0  0.34687  0.63143  0.76296  1.0000
  H   H71       1.0  0.25391  0.59298  0.84529  1.0000
  S   S13       1.0  0.35892  0.75426  0.77222  1.0000
  H   H72       1.0  0.21894  0.54427  0.87642  1.0000
  H   H73       1.0  0.10045  0.75924  0.79990  1.0000
  H   H74       1.0  0.18504  0.61320  0.98639  1.0000
  S   S14       1.0  0.47517  0.72819  0.80949  1.0000
  H   H75       1.0  0.52132  0.60049  0.92671  1.0000
  C   C47       1.0  0.25219  0.56376  0.88432  1.0000
  H   H76       1.0  0.30757  0.53528  0.82804  1.0000
  C   C48       1.0  0.18120  0.63737  0.88954  1.0000
  H   H77       1.0  0.53066  0.60945  0.80093  1.0000
  H   H78       1.0  0.11153  0.70288  0.97198  1.0000
  H   H79       1.0  0.29325  0.67523  0.79680  1.0000
  H   H80       1.0  0.40336  0.81571  0.98357  1.0000
  H   H81       1.0  0.33528  0.54948  0.89235  1.0000
  H   H82       1.0  0.48361  0.66997  0.94812  1.0000
  C   C49       1.0  0.54584  0.62758  0.92941  1.0000
  H   H83       1.0  0.21775  0.51292  0.98762  1.0000
  H   H84       1.0  0.13806  0.82422  0.90371  1.0000
  H   H85       1.0  0.14880  0.78723  0.82628  1.0000
  Fe  Fe7       1.0  0.39882  0.69735  0.83211  1.0000
  C   C50       1.0  0.09324  0.42494  0.99981  1.0000
  C   C51       1.0  0.10832  0.79131  0.81252  1.0000
  C   C52       1.0  0.55585  0.70256  0.94291  1.0000
  C   C53       1.0  0.08984  0.88047  0.86882  1.0000
  H   H86       1.0  0.39526  0.87156  0.94255  1.0000
  H   H87       1.0  0.31132  0.66026  0.99508  1.0000
  H   H88       1.0  0.56038  0.86089  0.96053  1.0000
  H   H89       1.0  0.34602  0.84644  0.76398  1.0000
  H   H90       1.0  0.13859  0.52607  0.83541  1.0000
  Fe  Fe8       1.0  0.43404  0.78770  0.75738  1.0000
  C   C54       1.0  0.27150  0.85966  0.80021  1.0000
  H   H91       1.0  0.29613  0.50074  0.90208  1.0000
  H   H92       1.0  0.32215  0.59063  0.96646  1.0000
  C   C55       1.0  0.24679  0.53690  0.99458  1.0000
  N   N3        1.0  0.24485  0.57823  0.94420  1.0000
  H   H93       1.0  0.22019  0.86179  0.95056  1.0000
  H   H94       1.0  0.11347  0.47217  0.86322  1.0000
  H   H95       1.0  0.24830  0.66992  0.96806  1.0000
  C   C56       1.0  0.27548  0.64351  0.98954  1.0000
  H   H96       1.0  0.28437  0.51942  0.99395  1.0000
  C   C57       1.0  0.30301  0.65854  0.76021  1.0000
  H   H97       1.0  0.12984  0.43037  0.97550  1.0000
  H   H98       1.0  0.10013  0.51600  0.90400  1.0000
  N   N4        1.0  0.07380  0.79828  0.86537  1.0000
  H   H99       1.0  0.57093  0.65380  0.76458  1.0000
  C   C58       1.0  0.54762  0.62658  0.75597  1.0000
  H   H100      1.0  0.27347  0.55696  0.07569  1.0000
  H   H101      1.0  0.45883  0.74776  0.18575  1.0000
  H   H102      1.0  0.56419  0.88337  0.24330  1.0000
  C   C59       1.0  0.20146  0.64652  0.20442  1.0000
  C   C60       1.0  0.33274  0.84619  0.01013  1.0000
  Fe  Fe9       1.0  0.07987  0.54783  0.09086  1.0000
  H   H103      1.0  0.56484  0.78589  0.18280  1.0000
  N   N5        1.0  0.51810  0.71179  0.14572  1.0000
  H   H104      1.0  0.16852  0.76444  0.16179  1.0000
  H   H105      1.0  0.10407  0.77815  0.17939  1.0000
  H   H106      1.0  0.12520  0.72081  0.19183  1.0000
  H   H107      1.0  0.33068  0.70495  0.20206  1.0000
  H   H108      1.0  0.48642  0.88406  0.08823  1.0000
  H   H109      1.0  0.26068  0.62845  0.03599  1.0000
  H   H110      1.0  0.50643  0.68829  0.06354  1.0000
  H   H111      1.0  0.53424  0.72176  0.23550  1.0000
  C   C61       1.0  0.46282  0.72454  0.15449  1.0000
  C   C62       1.0  0.07644  0.45274  0.03842  1.0000
  S   S15       1.0  0.11396  0.49820  0.04076  1.0000
  C   C63       1.0  0.43473  0.74600  0.09593  1.0000
  S   S16       1.0  0.07333  0.61784  0.03728  1.0000
  C   C64       1.0  0.54068  0.69634  0.20763  1.0000
  C   C65       1.0  0.23894  0.54318  0.06038  1.0000
  S   S17       1.0  0.18183  0.68364  0.08664  1.0000
  H   H112      1.0  0.49205  0.83464  0.23799  1.0000
  H   H113      1.0  0.25200  0.86210  0.08171  1.0000
  S   S18       1.0  0.12894  0.56475  0.16116  1.0000
  H   H114      1.0  0.16428  0.63223  0.20666  1.0000
  C   C66       1.0  0.26586  0.69634  0.14983  1.0000
  C   C67       1.0  0.21918  0.67521  0.15092  1.0000
  H   H115      1.0  0.20487  0.56373  0.06654  1.0000
  H   H116      1.0  0.45161  0.77808  0.07268  1.0000
  H   H117      1.0  0.33118  0.82603  0.05797  1.0000
  H   H118      1.0  0.52660  0.62408  0.22627  1.0000
  H   H119      1.0  0.43324  0.72381  0.06350  1.0000
  H   H120      1.0  0.44021  0.69506  0.17703  1.0000
  C   C68       1.0  0.29486  0.68827  0.20244  1.0000
  H   H121      1.0  0.41382  0.85930  0.02157  1.0000
  Fe  Fe10      1.0  0.11817  0.63529  0.11057  1.0000
  C   C69       1.0  0.54808  0.75077  0.11051  1.0000
  H   H122      1.0  0.27939  0.71902  0.10867  1.0000
  C   C70       1.0  0.13593  0.75462  0.19492  1.0000
  H   H123      1.0  0.56933  0.81876  0.10668  1.0000
  H   H124      1.0  0.50792  0.80585  0.14161  1.0000
  H   H125      1.0  0.49464  0.64808  0.13134  1.0000
  H   H126      1.0  0.39450  0.75328  0.10875  1.0000
  H   H127      1.0  0.23284  0.51020  0.09139  1.0000
  C   C71       1.0  0.52056  0.67565  0.11015  1.0000
  H   H128      1.0  0.53476  0.76135  0.06350  1.0000
  H   H129      1.0  0.23275  0.81454  0.01231  1.0000
  C   C72       1.0  0.54706  0.79235  0.13779  1.0000
  S   S19       1.0  0.40518  0.83580  0.15975  1.0000
  H   H130      1.0  0.57011  0.62819  0.07627  1.0000
  H   H131      1.0  0.08581  0.82670  0.24288  1.0000
  C   C73       1.0  0.25087  0.87906  0.03248  1.0000
  H   H132      1.0  0.17901  0.85025  0.01749  1.0000
  C   C74       1.0  0.51925  0.65292  0.24744  1.0000
  Fe  Fe11      1.0  0.37696  0.80441  0.25456  1.0000
  C   C75       1.0  0.55672  0.64286  0.42849  1.0000
  H   H133      1.0  0.34549  0.49051  0.44061  1.0000
  C   C76       1.0  0.53633  0.87598  0.28254  1.0000
  H   H134      1.0  0.10223  0.74684  0.40517  1.0000
  C   C77       1.0  0.13235  0.75272  0.36791  1.0000
  C   C78       1.0  0.11146  0.41785  0.40366  1.0000
  H   H135      1.0  0.43591  0.68541  0.43127  1.0000
  C   C79       1.0  0.31203  0.49070  0.47268  1.0000
  N   N6        1.0  0.23245  0.54271  0.47641  1.0000
  H   H136      1.0  0.36905  0.84275  0.49474  1.0000
  C   C80       1.0  0.29584  0.60457  0.48047  1.0000
  H   H137      1.0  0.21754  0.61446  0.29647  1.0000
  S   S20       1.0  0.22686  0.84116  0.37737  1.0000
  H   H138      1.0  0.13943  0.78895  0.35906  1.0000
  S   S21       1.0  0.41468  0.74200  0.30510  1.0000
  C   C81       1.0  0.55708  0.71707  0.44728  1.0000
  H   H139      1.0  0.20387  0.82447  0.50326  1.0000
  C   C82       1.0  0.27754  0.65833  0.25529  1.0000
  C   C83       1.0  0.11057  0.69046  0.32054  1.0000
  H   H140      1.0  0.18478  0.53525  0.36497  1.0000
  H   H141      1.0  0.17737  0.69330  0.41196  1.0000
  C   C84       1.0  0.47711  0.68368  0.43326  1.0000
  N   N7        1.0  0.11449  0.74012  0.31121  1.0000
  H   H142      1.0  0.16396  0.79118  0.25805  1.0000
  C   C85       1.0  0.16410  0.55516  0.39398  1.0000
  H   H143      1.0  0.32406  0.59166  0.45029  1.0000
  C   C86       1.0  0.20023  0.57540  0.43280  1.0000
  C   C87       1.0  0.23121  0.63713  0.25584  1.0000
  S   S22       1.0  0.47007  0.76823  0.44887  1.0000
  H   H144      1.0  0.27471  0.63360  0.45399  1.0000
  H   H145      1.0  0.14452  0.58252  0.36217  1.0000
  H   H146      1.0  0.19286  0.74375  0.43239  1.0000
  H   H147      1.0  0.53881  0.64545  0.29160  1.0000
  S   S23       1.0  0.37345  0.83636  0.33513  1.0000
  H   H148      1.0  0.47792  0.65589  0.25882  1.0000
  H   H149      1.0  0.48268  0.61691  0.41942  1.0000
  Fe  Fe12      1.0  0.33579  0.71693  0.32912  1.0000
  H   H150      1.0  0.22471  0.59919  0.40025  1.0000
  H   H151      1.0  0.18545  0.48413  0.49087  1.0000
  H   H152      1.0  0.09448  0.68134  0.28004  1.0000
  S   S24       1.0  0.29862  0.77688  0.27195  1.0000
  H   H153      1.0  0.29199  0.81312  0.48090  1.0000
  H   H154      1.0  0.24873  0.49871  0.41497  1.0000
  H   H155      1.0  0.54138  0.80451  0.28222  1.0000
  H   H156      1.0  0.28771  0.54499  0.40034  1.0000
  H   H157      1.0  0.13906  0.44502  0.40050  1.0000
  S   S25       1.0  0.32784  0.74175  0.41545  1.0000
  H   H158      1.0  0.13368  0.53519  0.42233  1.0000
  C   C88       1.0  0.50395  0.71990  0.44282  1.0000
  H   H159      1.0  0.09132  0.67211  0.42018  1.0000
  H   H160      1.0  0.48387  0.82073  0.31909  1.0000
  S   S26       1.0  0.31035  0.64986  0.32304  1.0000
  Fe  Fe13      1.0  0.40454  0.77157  0.38745  1.0000
  H   H161      1.0  0.09514  0.45872  0.28337  1.0000
  H   H162      1.0  0.55255  0.85481  0.47561  1.0000
  C   C89       1.0  0.26944  0.52046  0.43880  1.0000
  C   C90       1.0  0.50346  0.64490  0.42699  1.0000
  C   C91       1.0  0.51218  0.83125  0.28113  1.0000
  H   H163      1.0  0.12014  0.39326  0.44630  1.0000
  H   H164      1.0  0.21437  0.73510  0.35992  1.0000
  H   H165      1.0  0.14914  0.67437  0.32496  1.0000
  H   H166      1.0  0.49219  0.85431  0.39482  1.0000
  Fe  Fe14      1.0  0.29724  0.80433  0.35616  1.0000
  C   C92       1.0  0.18201  0.72939  0.39382  1.0000
  C   C93       1.0  0.20783  0.87273  0.30686  1.0000
  H   H167      1.0  0.17605  0.59625  0.45777  1.0000
  N   N8        1.0  0.56040  0.87829  0.34164  1.0000
  H   H168      1.0  0.56719  0.80744  0.37985  1.0000
  H   H169      1.0  0.18895  0.73658  0.26628  1.0000
  C   C94       1.0  0.24388  0.88143  0.25828  1.0000
  H   H170      1.0  0.29902  0.45605  0.48909  1.0000
  C   C95       1.0  0.15274  0.75641  0.25941  1.0000
  H   H171      1.0  0.28341  0.87209  0.26574  1.0000
  H   H172      1.0  0.12016  0.40304  0.36388  1.0000
  C   C96       1.0  0.51800  0.88290  0.38737  1.0000
  H   H173      1.0  0.07594  0.40564  0.26869  1.0000
  C   C97       1.0  0.07711  0.66750  0.37629  1.0000
  H   H174      1.0  0.07777  0.63133  0.37858  1.0000
  H   H175      1.0  0.12917  0.88069  0.33510  1.0000
  Fe  Fe15      1.0  0.09033  0.56765  0.64151  1.0000
  H   H176      1.0  0.56425  0.77999  0.60974  1.0000
  C   C98       1.0  0.28559  0.64413  0.66154  1.0000
  C   C99       1.0  0.56219  0.64763  0.62085  1.0000
  H   H177      1.0  0.27839  0.75912  0.63989  1.0000
  Fe  Fe16      1.0  0.16731  0.64160  0.62392  1.0000
  H   H178      1.0  0.31806  0.61723  0.51383  1.0000
  C   C100      1.0  0.42943  0.70446  0.62815  1.0000
  H   H179      1.0  0.16064  0.52609  0.52735  1.0000
  C   C101      1.0  0.30215  0.80205  0.52954  1.0000
  H   H180      1.0  0.07862  0.84226  0.56520  1.0000
  H   H181      1.0  0.24286  0.78626  0.72959  1.0000
  H   H182      1.0  0.38413  0.78796  0.53349  1.0000
  H   H183      1.0  0.19428  0.78372  0.67739  1.0000
  H   H184      1.0  0.28121  0.54714  0.55139  1.0000
  C   C102      1.0  0.19903  0.75915  0.55756  1.0000
  C   C103      1.0  0.22945  0.80122  0.68313  1.0000
  H   H185      1.0  0.39719  0.70335  0.59799  1.0000
  C   C104      1.0  0.52821  0.88161  0.61115  1.0000
  H   H186      1.0  0.48103  0.61468  0.70919  1.0000
  S   S27       1.0  0.45929  0.81999  0.66216  1.0000
  H   H187      1.0  0.48598  0.69117  0.56188  1.0000
  C   C105      1.0  0.25899  0.56866  0.51514  1.0000
  H   H188      1.0  0.21701  0.50621  0.61093  1.0000
  C   C106      1.0  0.55005  0.60142  0.61002  1.0000
  C   C107      1.0  0.21654  0.48411  0.57804  1.0000
  S   S28       1.0  0.14401  0.58872  0.70454  1.0000
  H   H189      1.0  0.13952  0.85127  0.75153  1.0000
  S   S29       1.0  0.08970  0.49407  0.64705  1.0000
  C   C108      1.0  0.27165  0.66406  0.71008  1.0000
  H   H190      1.0  0.20239  0.73989  0.60497  1.0000
  H   H191      1.0  0.39296  0.58843  0.71821  1.0000
  H   H192      1.0  0.56948  0.78535  0.73355  1.0000
  H   H193      1.0  0.45862  0.64342  0.60850  1.0000
  N   N9        1.0  0.51982  0.67060  0.65000  1.0000
  H   H194      1.0  0.32725  0.50278  0.51101  1.0000
  H   H195      1.0  0.52409  0.58214  0.64555  1.0000
  S   S30       1.0  0.11774  0.61791  0.55950  1.0000
  H   H196      1.0  0.22999  0.58511  0.54070  1.0000
  C   C109      1.0  0.19695  0.50944  0.51593  1.0000
  H   H197      1.0  0.23767  0.68494  0.70799  1.0000
  C   C110      1.0  0.35923  0.60957  0.71591  1.0000
  C   C111      1.0  0.35762  0.81641  0.53490  1.0000
  H   H198      1.0  0.41510  0.69191  0.67574  1.0000
  C   C112      1.0  0.49060  0.86981  0.65735  1.0000
  S   S31       1.0  0.11011  0.69095  0.64638  1.0000
  H   H199      1.0  0.43961  0.73976  0.62168  1.0000
  H   H200      1.0  0.36496  0.82710  0.57752  1.0000
  H   H201      1.0  0.30742  0.80734  0.65129  1.0000
  H   H202      1.0  0.22461  0.74423  0.52678  1.0000
  N   N10       1.0  0.26236  0.81841  0.57018  1.0000
  H   H203      1.0  0.25461  0.46856  0.57454  1.0000
  H   H204      1.0  0.51841  0.75818  0.56866  1.0000
  H   H205      1.0  0.15941  0.75603  0.54355  1.0000
  H   H206      1.0  0.22030  0.83655  0.68201  1.0000
  H   H207      1.0  0.51039  0.73085  0.68396  1.0000
  C   C113      1.0  0.53874  0.71475  0.65724  1.0000
  S   S32       1.0  0.24933  0.65401  0.59654  1.0000
  C   C114      1.0  0.32925  0.61681  0.66439  1.0000
  H   H208      1.0  0.30296  0.76511  0.53902  1.0000
  C   C115      1.0  0.21007  0.80847  0.55174  1.0000
  H   H209      1.0  0.18956  0.45715  0.59814  1.0000
  C   C116      1.0  0.27178  0.79543  0.63553  1.0000
  H   H210      1.0  0.33978  0.60120  0.62693  1.0000
  C   C117      1.0  0.26538  0.86779  0.56396  1.0000
  H   H211      1.0  0.53308  0.60446  0.56470  1.0000
  H   H212      1.0  0.17948  0.82284  0.57786  1.0000
  H   H213      1.0  0.53746  0.85983  0.58053  1.0000
  H   H214      1.0  0.11435  0.81167  0.71329  1.0000
  C   C118      1.0  0.55181  0.74904  0.59770  1.0000
  C   C119      1.0  0.47443  0.67626  0.60987  1.0000
  C   C120      1.0  0.10832  0.82757  0.75284  1.0000
  C   C121      1.0  0.50400  0.64372  0.71235  1.0000
  H   H215      1.0  0.47778  0.66337  0.73664  1.0000
  Fe  Fe17      1.0  0.08165  0.63607  0.72134  1.0000
  H   H216      1.0  0.30073  0.87662  0.58372  1.0000
  H   H217      1.0  0.57255  0.60181  0.73938  1.0000
  H   H218      1.0  0.23350  0.87972  0.59068  1.0000
  C   C122      1.0  0.91717  0.17224  0.90340  1.0000
  C   C123      1.0  0.83294  0.37808  0.78113  1.0000
  H   H219      1.0  0.83559  0.28055  0.92382  1.0000
  H   H220      1.0  0.84111  0.01092  0.84719  1.0000
  H   H221      1.0  0.88740  0.21902  0.98824  1.0000
  H   H222      1.0  0.70411  0.04879  0.85981  1.0000
  H   H223      1.0  0.83880  0.34398  0.98369  1.0000
  H   H224      1.0  0.90207  0.95406  0.86969  1.0000
  H   H225      1.0  0.92076  0.26838  0.95499  1.0000
  C   C124      1.0  0.00795  0.23092  0.99121  1.0000
  H   H226      1.0  0.68366  0.93210  0.78512  1.0000
  H   H227      1.0  0.76144  0.32119  0.99346  1.0000
  H   H228      1.0  0.04967  0.89195  0.87391  1.0000
  C   C125      1.0  0.93317  0.89966  0.78919  1.0000
  H   H229      1.0  0.02005  0.25962  0.95489  1.0000
  C   C126      1.0  0.68058  0.32782  0.98737  1.0000
  H   H230      1.0  0.74051  0.34066  0.91805  1.0000
  H   H231      1.0  0.93154  0.99950  0.89324  1.0000
  H   H232      1.0  0.85454  0.89557  0.93442  1.0000
  H   H233      1.0  0.65073  0.34521  0.95689  1.0000
  N   N11       1.0  0.80277  0.98007  0.93211  1.0000
  C   C127      1.0  0.96740  0.24011  0.86007  1.0000
  C   C128      1.0  0.78795  0.94024  0.90791  1.0000
  C   C129      1.0  0.64273  0.93446  0.79910  1.0000
  C   C130      1.0  0.98183  0.19486  0.96611  1.0000
  H   H234      1.0  0.96651  0.04733  0.79540  1.0000
  H   H235      1.0  0.62773  0.96620  0.77136  1.0000
  H   H236      1.0  0.74602  0.93478  0.91411  1.0000
  C   C131      1.0  0.89921  0.97615  0.90244  1.0000
  C   C132      1.0  0.73916  0.02791  0.85838  1.0000
  H   H237      1.0  0.63902  0.93693  0.84757  1.0000
  C   C133      1.0  0.73455  0.34508  0.96587  1.0000
  H   H238      1.0  0.96595  0.15329  0.83082  1.0000
  H   H239      1.0  0.05096  0.24636  0.85951  1.0000
  C   C134      1.0  0.81233  0.89491  0.93690  1.0000
  C   C135      1.0  0.75825  0.01273  0.92402  1.0000
  C   C136      1.0  0.90363  0.23859  0.94405  1.0000
  H   H240      1.0  0.72486  0.99864  0.95384  1.0000
  C   C137      1.0  0.78117  0.36832  0.78521  1.0000
  H   H241      1.0  0.85477  0.03566  0.90699  1.0000
  H   H242      1.0  0.89667  0.15333  0.94533  1.0000
  C   C138      1.0  0.85830  0.25636  0.90319  1.0000
  H   H243      1.0  0.76747  0.04374  0.93833  1.0000
  H   H244      1.0  0.90544  0.95628  0.94885  1.0000
  H   H245      1.0  0.79919  0.17918  0.99934  1.0000
  H   H246      1.0  0.87590  0.38494  0.93401  1.0000
  C   C139      1.0  0.02231  0.22742  0.84116  1.0000
  H   H247      1.0  0.76743  0.04900  0.82791  1.0000
  H   H248      1.0  0.01262  0.17416  0.95081  1.0000
  H   H249      1.0  0.83172  0.22963  0.90019  1.0000
  H   H250      1.0  0.94287  0.24122  0.82038  1.0000
  H   H251      1.0  0.67926  0.29218  0.98559  1.0000
  N   N12       1.0  0.94369  0.21143  0.91737  1.0000
  C   C140      1.0  0.84835  0.00263  0.89659  1.0000
  H   H252      1.0  0.95044  0.89654  0.83292  1.0000
  H   H253      1.0  0.92690  0.11034  0.87361  1.0000
  H   H254      1.0  0.02733  0.23805  0.79071  1.0000
  H   H255      1.0  0.96958  0.27501  0.86554  1.0000
  S   S33       1.0  0.76540  0.31314  0.79057  1.0000
  C   C141      1.0  0.95086  0.13862  0.87753  1.0000
  H   H256      1.0  0.87091  0.27398  0.85662  1.0000
  C   C142      1.0  0.61203  0.89592  0.78574  1.0000
  H   H257      1.0  0.86120  0.35173  0.78648  1.0000
  H   H258      1.0  0.98222  0.12425  0.90764  1.0000
  H   H259      1.0  0.88762  0.18336  0.86894  1.0000
  H   H260      1.0  0.79608  0.94595  0.85767  1.0000
  C   C143      1.0  0.81207  0.96698  0.99955  1.0000
  H   H261      1.0  0.72863  0.99985  0.83825  1.0000
  H   H262      1.0  0.03185  0.19161  0.85285  1.0000
  H   H263      1.0  0.88716  0.07494  0.75600  1.0000
  C   C144      1.0  0.88221  0.88802  0.78713  1.0000
  C   C145      1.0  0.84313  0.38022  0.96753  1.0000
  C   C146      1.0  0.90988  0.14065  0.14602  1.0000
  H   H264      1.0  0.87621  0.15876  0.15680  1.0000
  S   S34       1.0  0.95550  0.16927  0.23761  1.0000
  Fe  Fe18      1.0  0.93155  0.31586  0.09641  1.0000
  S   S35       1.0  0.96733  0.29806  0.18748  1.0000
  C   C147      1.0  0.95400  0.14005  0.17925  1.0000
  C   C148      1.0  0.95210  0.09260  0.08656  1.0000
  C   C149      1.0  0.99719  0.11590  0.16583  1.0000
  H   H265      1.0  0.03176  0.11629  0.19033  1.0000
  H   H266      1.0  0.88348  0.96323  0.18498  1.0000
  H   H267      1.0  0.79587  0.10613  0.14850  1.0000
  H   H268      1.0  0.65215  0.15314  0.09004  1.0000
  C   C150      1.0  0.80870  0.96517  0.22748  1.0000
  Fe  Fe19      1.0  0.57909  0.01706  0.13067  1.0000
  S   S36       1.0  0.61742  0.95123  0.16519  1.0000
  H   H269      1.0  0.77680  0.95309  0.02507  1.0000
  H   H270      1.0  0.76492  0.06316  0.20244  1.0000
  H   H271      1.0  0.02995  0.07402  0.10867  1.0000
  S   S37       1.0  0.89044  0.25218  0.10882  1.0000
  S   S38       1.0  0.63846  0.05620  0.16385  1.0000
  H   H272      1.0  0.76925  0.16271  0.19964  1.0000
  H   H273      1.0  0.96299  0.17234  0.00589  1.0000
  H   H274      1.0  0.87489  0.11766  0.07369  1.0000
  C   C151      1.0  0.99616  0.09201  0.11969  1.0000
  C   C152      1.0  0.78541  0.09469  0.19786  1.0000
  S   S39       1.0  0.74303  0.27925  0.13121  1.0000
  C   C153      1.0  0.83169  0.00414  0.02824  1.0000
  Fe  Fe20      1.0  0.92090  0.23648  0.20269  1.0000
  S   S40       1.0  0.86488  0.35167  0.12924  1.0000
  H   H275      1.0  0.80572  0.37047  0.22505  1.0000
  Fe  Fe21      1.0  0.89703  0.32895  0.22201  1.0000
  H   H276      1.0  0.71544  0.13229  0.19308  1.0000
  S   S41       1.0  0.72354  0.11350  0.01330  1.0000
  Fe  Fe22      1.0  0.99104  0.90235  0.04158  1.0000
  S   S42       1.0  0.85317  0.26593  0.24479  1.0000
  C   C154      1.0  0.76885  0.18784  0.02898  1.0000
  Fe  Fe23      1.0  0.82582  0.28627  0.14924  1.0000
  C   C155      1.0  0.90901  0.11714  0.09940  1.0000
  Fe  Fe24      1.0  0.97542  0.91604  0.17189  1.0000
  C   C156      1.0  0.68607  0.17304  0.08033  1.0000
  H   H277      1.0  0.82122  0.08874  0.22287  1.0000
  C   C157      1.0  0.77346  0.22486  0.05465  1.0000
  C   C158      1.0  0.75124  0.13039  0.21846  1.0000
  H   H278      1.0  0.83529  0.99129  0.07811  1.0000
  Fe  Fe25      1.0  0.67682  0.05939  0.07169  1.0000
  H   H279      1.0  0.79485  0.99124  0.19143  1.0000
  S   S43       1.0  0.67615  0.91208  0.01768  1.0000
  Fe  Fe26      1.0  0.98461  0.99589  0.06420  1.0000
  S   S44       1.0  0.72167  0.99678  0.10382  1.0000
  H   H280      1.0  0.98236  0.24286  0.02504  1.0000
  H   H281      1.0  0.97242  0.03607  0.24549  1.0000
  Fe  Fe27      1.0  0.67894  0.99070  0.19261  1.0000
  H   H282      1.0  0.05460  0.03091  0.23206  1.0000
  S   S45       1.0  0.02391  0.97613  0.15293  1.0000
  C   C159      1.0  0.69060  0.21036  0.10579  1.0000
  C   C160      1.0  0.73502  0.23553  0.09431  1.0000
  H   H283      1.0  0.80643  0.24548  0.04306  1.0000
  H   H284      1.0  0.84060  0.93963  0.01063  1.0000
  H   H285      1.0  0.66035  0.21892  0.13564  1.0000
  S   S46       1.0  0.93194  0.93840  0.08698  1.0000
  Fe  Fe28      1.0  0.65730  0.96235  0.07379  1.0000
  C   C161      1.0  0.72567  0.16136  0.04278  1.0000
  H   H286      1.0  0.76998  0.36646  0.06176  1.0000
  C   C162      1.0  0.85895  0.94911  0.22365  1.0000
  S   S47       1.0  0.61420  0.02532  0.03592  1.0000
  S   S48       1.0  0.95135  0.06369  0.02801  1.0000
  H   H287      1.0  0.87012  0.01447  0.00929  1.0000
  H   H288      1.0  0.67104  0.32967  0.03527  1.0000
  H   H289      1.0  0.04239  0.21643  0.01593  1.0000
  C   C163      1.0  0.01482  0.38378  0.02247  1.0000
  H   H290      1.0  0.80614  0.03372  0.02269  1.0000
  H   H291      1.0  0.78783  0.89069  0.15470  1.0000
  S   S49       1.0  0.04118  0.96135  0.01263  1.0000
  H   H292      1.0  0.75351  0.21472  0.24585  1.0000
  S   S50       1.0  0.97583  0.34198  0.00953  1.0000
  H   H293      1.0  0.03840  0.11250  0.38647  1.0000
  C   C164      1.0  0.90213  0.03979  0.29531  1.0000
  H   H294      1.0  0.82764  0.17596  0.33121  1.0000
  H   H295      1.0  0.83662  0.21186  0.47453  1.0000
  H   H296      1.0  0.90581  0.95665  0.38143  1.0000
  H   H297      1.0  0.67619  0.08161  0.27177  1.0000
  H   H298      1.0  0.65900  0.33657  0.40239  1.0000
  H   H299      1.0  0.99113  0.35832  0.35295  1.0000
  H   H300      1.0  0.02079  0.06166  0.43721  1.0000
  H   H301      1.0  0.70469  0.35740  0.29791  1.0000
  H   H302      1.0  0.75024  0.20954  0.32763  1.0000
  C   C165      1.0  0.79023  0.10735  0.49437  1.0000
  C   C166      1.0  0.78494  0.11670  0.32489  1.0000
  C   C167      1.0  0.94318  0.95192  0.40361  1.0000
  H   H303      1.0  0.03259  0.30617  0.44285  1.0000
  H   H304      1.0  0.74738  0.30997  0.32221  1.0000
  H   H305      1.0  0.67015  0.16336  0.26962  1.0000
  H   H306      1.0  0.96815  0.93014  0.38144  1.0000
  H   H307      1.0  0.86648  0.35471  0.43502  1.0000
  H   H308      1.0  0.59898  0.98903  0.30044  1.0000
  C   C168      1.0  0.70017  0.32826  0.39751  1.0000
  H   H309      1.0  0.69771  0.23195  0.28235  1.0000
  H   H310      1.0  0.05744  0.36082  0.35699  1.0000
  C   C169      1.0  0.81097  0.18434  0.48917  1.0000
  C   C170      1.0  0.72865  0.20630  0.28746  1.0000
  H   H311      1.0  0.79971  0.34821  0.36395  1.0000
  C   C171      1.0  0.82932  0.14934  0.30519  1.0000
  H   H312      1.0  0.87356  0.02108  0.27665  1.0000
  H   H313      1.0  0.01989  0.18881  0.49539  1.0000
  C   C172      1.0  0.59536  0.91733  0.33086  1.0000
  H   H314      1.0  0.86604  0.13118  0.31601  1.0000
  H   H315      1.0  0.79324  0.30961  0.43521  1.0000
  S   S51       1.0  0.93834  0.89163  0.26458  1.0000
  H   H316      1.0  0.85722  0.13946  0.44754  1.0000
  C   C173      1.0  0.03531  0.07618  0.39026  1.0000
  H   H317      1.0  0.65229  0.08920  0.37584  1.0000
  C   C174      1.0  0.01842  0.34017  0.44427  1.0000
  H   H318      1.0  0.77331  0.11921  0.37207  1.0000
  C   C175      1.0  0.95568  0.01860  0.29021  1.0000
  H   H319      1.0  0.68063  0.30269  0.31892  1.0000
  H   H320      1.0  0.61877  0.91676  0.37134  1.0000
  H   H321      1.0  0.62405  0.91517  0.29379  1.0000
  H   H322      1.0  0.80149  0.08247  0.33072  1.0000
  H   H323      1.0  0.71417  0.06741  0.40349  1.0000
  H   H324      1.0  0.93597  0.93431  0.45185  1.0000
  C   C176      1.0  0.02137  0.36973  0.37909  1.0000
  C   C177      1.0  0.79658  0.91634  0.32692  1.0000
  S   S52       1.0  0.89863  0.37580  0.28494  1.0000
  C   C178      1.0  0.77719  0.94841  0.27875  1.0000
  S   S53       1.0  0.06461  0.91083  0.45409  1.0000
  H   H325      1.0  0.97830  0.33674  0.46246  1.0000
  N   N13       1.0  0.99069  0.02041  0.34099  1.0000
  H   H326      1.0  0.82116  0.37165  0.48710  1.0000
  H   H327      1.0  0.70522  0.29412  0.42617  1.0000
  N   N14       1.0  0.73322  0.36017  0.42000  1.0000
  H   H328      1.0  0.88875  0.03937  0.34279  1.0000
  C   C179      1.0  0.82257  0.14344  0.47392  1.0000
  H   H329      1.0  0.73297  0.05169  0.29730  1.0000
  H   H330      1.0  0.96176  0.08488  0.35117  1.0000
  C   C180      1.0  0.99861  0.06829  0.34212  1.0000
  C   C181      1.0  0.78819  0.34540  0.41282  1.0000
  C   C182      1.0  0.68547  0.06768  0.36860  1.0000
  H   H331      1.0  0.06463  0.99209  0.37022  1.0000
  H   H332      1.0  0.67079  0.03341  0.37616  1.0000
  H   H333      1.0  0.03387  0.96382  0.32183  1.0000
  S   S54       1.0  0.80794  0.05535  0.48015  1.0000
  N   N15       1.0  0.73861  0.12270  0.28613  1.0000
  H   H334      1.0  0.93907  0.01798  0.42051  1.0000
  C   C183      1.0  0.70949  0.32498  0.33026  1.0000
  H   H335      1.0  0.95158  0.98412  0.28405  1.0000
  C   C184      1.0  0.96806  0.99683  0.40215  1.0000
  H   H336      1.0  0.99780  0.99026  0.43707  1.0000
  C   C185      1.0  0.70841  0.08048  0.30285  1.0000
  H   H337      1.0  0.69004  0.15351  0.34638  1.0000
  H   H338      1.0  0.63692  0.36842  0.48500  1.0000
  H   H339      1.0  0.04184  0.35267  0.47658  1.0000
  C   C186      1.0  0.72152  0.35848  0.48701  1.0000
  S   S55       1.0  0.71360  0.96679  0.28374  1.0000
  C   C187      1.0  0.04063  0.99759  0.32949  1.0000
  H   H340      1.0  0.01260  0.08732  0.29679  1.0000
  C   C188      1.0  0.70451  0.16017  0.29807  1.0000
  H   H341      1.0  0.77252  0.90356  0.36703  1.0000
  C   C189      1.0  0.84668  0.89991  0.32259  1.0000
  C   C190      1.0  0.87761  0.91574  0.27058  1.0000
  C   C191      1.0  0.82861  0.37125  0.43835  1.0000
  H   H342      1.0  0.83245  0.16444  0.25595  1.0000
  H   H343      1.0  0.90196  0.07467  0.26916  1.0000
  H   H344      1.0  0.85058  0.03127  0.62283  1.0000
  H   H345      1.0  0.98042  0.37243  0.62974  1.0000
  C   C192      1.0  0.74482  0.11293  0.52697  1.0000
  H   H346      1.0  0.97459  0.22561  0.57017  1.0000
  Fe  Fe29      1.0  0.06763  0.95845  0.65329  1.0000
  Fe  Fe30      1.0  0.87663  0.34316  0.60214  1.0000
  H   H347      1.0  0.90661  0.00471  0.65681  1.0000
  H   H348      1.0  0.81741  0.98535  0.71049  1.0000
  H   H349      1.0  0.96443  0.11019  0.61521  1.0000
  C   C193      1.0  0.02625  0.17746  0.54368  1.0000
  S   S56       1.0  0.02319  0.93473  0.74107  1.0000
  C   C194      1.0  0.00030  0.19818  0.58598  1.0000
  C   C195      1.0  0.76585  0.18973  0.52250  1.0000
  H   H350      1.0  0.81923  0.11478  0.72237  1.0000
  C   C196      1.0  0.04087  0.14719  0.66874  1.0000
  H   H351      1.0  0.66252  0.35253  0.55941  1.0000
  S   S57       1.0  0.79346  0.33031  0.62241  1.0000
  Fe  Fe31      1.0  0.81523  0.29519  0.71571  1.0000
  C   C197      1.0  0.73227  0.15430  0.54021  1.0000
  H   H352      1.0  0.86951  0.91405  0.63344  1.0000
  H   H353      1.0  0.97381  0.05183  0.62941  1.0000
  Fe  Fe32      1.0  0.75764  0.92550  0.64596  1.0000
  S   S58       1.0  0.89794  0.31215  0.69746  1.0000
  H   H354      1.0  0.91689  0.11150  0.52544  1.0000
  C   C198      1.0  0.86262  0.11138  0.63652  1.0000
  C   C199      1.0  0.94501  0.07889  0.61540  1.0000
  H   H355      1.0  0.96108  0.93110  0.63695  1.0000
  Fe  Fe33      1.0  0.75816  0.00098  0.53342  1.0000
  C   C200      1.0  0.05801  0.14049  0.56406  1.0000
  H   H356      1.0  0.91023  0.05146  0.54345  1.0000
  S   S59       1.0  0.74953  0.24086  0.54038  1.0000
  H   H357      1.0  0.04627  0.13512  0.71711  1.0000
  C   C201      1.0  0.96146  0.91616  0.73514  1.0000
  S   S60       1.0  0.96871  0.20228  0.70319  1.0000
  H   H358      1.0  0.99878  0.05561  0.72265  1.0000
  S   S61       1.0  0.78744  0.93062  0.54980  1.0000
  C   C202      1.0  0.00658  0.18234  0.64858  1.0000
  H   H359      1.0  0.79124  0.14401  0.65402  1.0000
  Fe  Fe34      1.0  0.90533  0.24884  0.66496  1.0000
  H   H360      1.0  0.61899  0.89704  0.73647  1.0000
  H   H361      1.0  0.88169  0.14398  0.63117  1.0000
  S   S62       1.0  0.88975  0.28093  0.56708  1.0000
  C   C203      1.0  0.06633  0.12612  0.62650  1.0000
  H   H362      1.0  0.93258  0.11262  0.71694  1.0000
  C   C204      1.0  0.91828  0.07849  0.72051  1.0000
  S   S63       1.0  0.03338  0.98841  0.56370  1.0000
  Fe  Fe35      1.0  0.65874  0.97545  0.60542  1.0000
  C   C205      1.0  0.93914  0.91933  0.67884  1.0000
  C   C206      1.0  0.93421  0.07939  0.54831  1.0000
  C   C207      1.0  0.81271  0.11321  0.67453  1.0000
  H   H363      1.0  0.85010  0.10999  0.59061  1.0000
  C   C208      1.0  0.87597  0.02934  0.66197  1.0000
  S   S64       1.0  0.82409  0.22922  0.69067  1.0000
  H   H364      1.0  0.71927  0.08542  0.54191  1.0000
  S   S65       1.0  0.68079  0.90350  0.62779  1.0000
  Fe  Fe36      1.0  0.80790  0.26550  0.59520  1.0000
  H   H365      1.0  0.69704  0.15855  0.56540  1.0000
  S   S66       1.0  0.73377  0.99712  0.63151  1.0000
  H   H366      1.0  0.78753  0.08538  0.67222  1.0000
  N   N16       1.0  0.89950  0.07374  0.65968  1.0000
  Fe  Fe37      1.0  0.70816  0.91370  0.53050  1.0000
  C   C209      1.0  0.66640  0.34752  0.51191  1.0000
  H   H367      1.0  0.74521  0.33236  0.51550  1.0000
  C   C210      1.0  0.84560  0.00830  0.72122  1.0000
  S   S67       1.0  0.79252  0.88800  0.73184  1.0000
  C   C211      1.0  0.88735  0.90945  0.67685  1.0000
  H   H368      1.0  0.58454  0.92949  0.57010  1.0000
  S   S68       1.0  0.58289  0.99424  0.64287  1.0000
  H   H369      1.0  0.82392  0.03214  0.74280  1.0000
  C   C212      1.0  0.96162  0.04604  0.74697  1.0000
  H   H370      1.0  0.65833  0.31201  0.51448  1.0000
  H   H371      1.0  0.95368  0.01133  0.74545  1.0000
  C   C213      1.0  0.85866  0.89463  0.73118  1.0000
  H   H372      1.0  0.97106  0.07652  0.52318  1.0000
  S   S69       1.0  0.68078  0.98457  0.50612  1.0000
  H   H373      1.0  0.87078  0.98675  0.75425  1.0000
  C   C214      1.0  0.96620  0.52677  0.80326  1.0000
  S   S70       1.0  0.76660  0.58664  0.85485  1.0000
  C   C215      1.0  0.61556  0.84920  0.89065  1.0000
  H   H374      1.0  0.06832  0.51639  0.77300  1.0000
  H   H375      1.0  0.92781  0.51984  0.82589  1.0000
  H   H376      1.0  0.80378  0.44021  0.92881  1.0000
  C   C216      1.0  0.99664  0.55346  0.91955  1.0000
  C   C217      1.0  0.92500  0.67473  0.88741  1.0000
  C   C218      1.0  0.91442  0.67713  0.78053  1.0000
  H   H377      1.0  0.87500  0.72801  0.98597  1.0000
  H   H378      1.0  0.67604  0.48828  0.89846  1.0000
  C   C219      1.0  0.58940  0.81750  0.80602  1.0000
  H   H379      1.0  0.92668  0.44536  0.84617  1.0000
  H   H380      1.0  0.73832  0.78740  0.82884  1.0000
  H   H381      1.0  0.82155  0.61784  0.94910  1.0000
  H   H382      1.0  0.68883  0.84430  0.76194  1.0000
  H   H383      1.0  0.98717  0.55197  0.96865  1.0000
  C   C220      1.0  0.95209  0.81073  0.00279  1.0000
  H   H384      1.0  0.02072  0.44965  0.79381  1.0000
  H   H385      1.0  0.66686  0.41724  0.96697  1.0000
  H   H386      1.0  0.71851  0.48717  0.95791  1.0000
  C   C221      1.0  0.89366  0.68136  0.83724  1.0000
  H   H387      1.0  0.04158  0.43673  0.86927  1.0000
  H   H388      1.0  0.87523  0.55599  0.93893  1.0000
  C   C222      1.0  0.05807  0.52322  0.81865  1.0000
  H   H389      1.0  0.96999  0.56337  0.79662  1.0000
  H   H390      1.0  0.70500  0.86202  0.82819  1.0000
  H   H391      1.0  0.02335  0.48548  0.93876  1.0000
  C   C223      1.0  0.76023  0.44663  0.77474  1.0000
  N   N17       1.0  0.00774  0.50257  0.84276  1.0000
  H   H392      1.0  0.61933  0.81463  0.91811  1.0000
  C   C224      1.0  0.71144  0.47201  0.91902  1.0000
  H   H393      1.0  0.97887  0.75313  0.84741  1.0000
  H   H394      1.0  0.01502  0.77331  0.77645  1.0000
  C   C225      1.0  0.81243  0.45603  0.77006  1.0000
  C   C226      1.0  0.70270  0.42155  0.93794  1.0000
  H   H395      1.0  0.90899  0.67717  0.93154  1.0000
  H   H396      1.0  0.69366  0.41130  0.89503  1.0000
  S   S71       1.0  0.83655  0.50893  0.76430  1.0000
  H   H397      1.0  0.70612  0.83804  0.97249  1.0000
  C   C227      1.0  0.62995  0.65957  0.92032  1.0000
  C   C228      1.0  0.01050  0.45414  0.84076  1.0000
  C   C229      1.0  0.02058  0.81335  0.84658  1.0000
  C   C230      1.0  0.99192  0.78296  0.81407  1.0000
  H   H398      1.0  0.99651  0.81725  0.88702  1.0000
  H   H399      1.0  0.03465  0.56882  0.90954  1.0000
  H   H400      1.0  0.67060  0.65706  0.91116  1.0000
  Fe  Fe38      1.0  0.78171  0.56444  0.76797  1.0000
  H   H401      1.0  0.03863  0.75582  0.94586  1.0000
  S   S72       1.0  0.95925  0.86765  0.97459  1.0000
  H   H402      1.0  0.59144  0.78487  0.83894  1.0000
  S   S73       1.0  0.06334  0.64964  0.81418  1.0000
  S   S74       1.0  0.69910  0.66952  0.77561  1.0000
  H   H403      1.0  0.05739  0.72782  0.88756  1.0000
  N   N18       1.0  0.62421  0.85042  0.82350  1.0000
  H   H404      1.0  0.79535  0.39790  0.89018  1.0000
  C   C231      1.0  0.99627  0.50629  0.90776  1.0000
  S   S75       1.0  0.62291  0.57748  0.89341  1.0000
  C   C232      1.0  0.67956  0.83919  0.81181  1.0000
  C   C233      1.0  0.74450  0.40253  0.78190  1.0000
  H   H405      1.0  0.02007  0.84673  0.81660  1.0000
  H   H406      1.0  0.80454  0.68430  0.97104  1.0000
  C   C234      1.0  0.99817  0.66196  0.82316  1.0000
  H   H407      1.0  0.96410  0.39528  0.85087  1.0000
  H   H408      1.0  0.88514  0.80895  0.95106  1.0000
  S   S76       1.0  0.82907  0.69625  0.84474  1.0000
  C   C235      1.0  0.60876  0.69841  0.93447  1.0000
  H   H409      1.0  0.95784  0.49310  0.92392  1.0000
  C   C236      1.0  0.97714  0.66462  0.88061  1.0000
  H   H410      1.0  0.67597  0.76565  0.82923  1.0000
  H   H411      1.0  0.73800  0.67991  0.99663  1.0000
  H   H412      1.0  0.86062  0.87541  0.82903  1.0000
  H   H413      1.0  0.96750  0.57506  0.89280  1.0000
  H   H414      1.0  0.00108  0.65917  0.91978  1.0000
  C   C237      1.0  0.91195  0.78976  0.98221  1.0000
  H   H415      1.0  0.95872  0.42094  0.91478  1.0000
  Fe  Fe39      1.0  0.78093  0.65506  0.80007  1.0000
  H   H416      1.0  0.81499  0.53322  0.96817  1.0000
  H   H417      1.0  0.64520  0.86827  0.90711  1.0000
  H   H418      1.0  0.70429  0.39500  0.78427  1.0000
  H   H419      1.0  0.69613  0.78688  0.89333  1.0000
  C   C238      1.0  0.06210  0.39091  0.99115  1.0000
  C   C239      1.0  0.59832  0.62438  0.91706  1.0000
  H   H420      1.0  0.80043  0.86978  0.91196  1.0000
  H   H421      1.0  0.74198  0.48072  0.88300  1.0000
  C   C240      1.0  0.69766  0.79195  0.84287  1.0000
  C   C241      1.0  0.84834  0.55071  0.97938  1.0000
  H   H422      1.0  0.95699  0.80059  0.79417  1.0000
  C   C242      1.0  0.79576  0.40439  0.93663  1.0000
  H   H423      1.0  0.73567  0.61110  0.97234  1.0000
  C   C243      1.0  0.96675  0.66868  0.77313  1.0000
  C   C244      1.0  0.84848  0.42181  0.77170  1.0000
  C   C245      1.0  0.90645  0.74387  0.00158  1.0000
  C   C246      1.0  0.96189  0.42783  0.86426  1.0000
  Fe  Fe40      1.0  0.68657  0.59896  0.82523  1.0000
  N   N19       1.0  0.74507  0.39235  0.96972  1.0000
  H   H424      1.0  0.88863  0.42898  0.76575  1.0000
  H   H425      1.0  0.86863  0.61170  0.00328  1.0000
  H   H426      1.0  0.63304  0.72577  0.93630  1.0000
  H   H427      1.0  0.79840  0.88303  0.98501  1.0000
  C   C247      1.0  0.06923  0.75424  0.91045  1.0000
  H   H428      1.0  0.05539  0.55992  0.81099  1.0000
  C   C248      1.0  0.83321  0.59623  0.99301  1.0000
  H   H429      1.0  0.73218  0.47314  0.77264  1.0000
  H   H430      1.0  0.66508  0.86469  0.14823  1.0000
  C   C249      1.0  0.02926  0.44549  0.07015  1.0000
  C   C250      1.0  0.69935  0.78112  0.04637  1.0000
  C   C251      1.0  0.94230  0.71844  0.03942  1.0000
  H   H431      1.0  0.90748  0.82969  0.19739  1.0000
  H   H432      1.0  0.01623  0.46688  0.09999  1.0000
  H   H433      1.0  0.78679  0.42937  0.09281  1.0000
  H   H434      1.0  0.86842  0.52925  0.01784  1.0000
  H   H435      1.0  0.87891  0.72154  0.13620  1.0000
  C   C252      1.0  0.98701  0.78580  0.04244  1.0000
  C   C253      1.0  0.68354  0.85662  0.05674  1.0000
  C   C254      1.0  0.80736  0.40300  0.23496  1.0000
  H   H436      1.0  0.78143  0.71062  0.02982  1.0000
  S   S77       1.0  0.69074  0.70759  0.13374  1.0000
  N   N20       1.0  0.79207  0.59576  0.04225  1.0000
  S   S78       1.0  0.76908  0.62348  0.23468  1.0000
  H   H437      1.0  0.59966  0.67998  0.07144  1.0000
  C   C255      1.0  0.76696  0.43323  0.21932  1.0000
  H   H438      1.0  0.77276  0.56186  0.13456  1.0000
  H   H439      1.0  0.81710  0.69944  0.13775  1.0000
  H   H440      1.0  0.65935  0.58507  0.03412  1.0000
  H   H441      1.0  0.77720  0.75310  0.18610  1.0000
  C   C256      1.0  0.89669  0.79789  0.18626  1.0000
  C   C257      1.0  0.98255  0.73955  0.05997  1.0000
  C   C258      1.0  0.76661  0.47373  0.23722  1.0000
  H   H442      1.0  0.95594  0.58509  0.24494  1.0000
  H   H443      1.0  0.05626  0.45671  0.22119  1.0000
  C   C259      1.0  0.69020  0.76548  0.10908  1.0000
  H   H444      1.0  0.70734  0.38732  0.05862  1.0000
  C   C260      1.0  0.74587  0.39395  0.03625  1.0000
  C   C261      1.0  0.57395  0.65547  0.10067  1.0000
  H   H445      1.0  0.69390  0.56714  0.10198  1.0000
  C   C262      1.0  0.69739  0.82645  0.02070  1.0000
  H   H446      1.0  0.77206  0.81859  0.22871  1.0000
  C   C263      1.0  0.67521  0.84139  0.12001  1.0000
  H   H447      1.0  0.70754  0.75805  0.01721  1.0000
  C   C264      1.0  0.81749  0.76019  0.16970  1.0000
  S   S79       1.0  0.03076  0.87455  0.12856  1.0000
  C   C265      1.0  0.80176  0.55966  0.09789  1.0000
  H   H448      1.0  0.01857  0.80191  0.05761  1.0000
  S   S80       1.0  0.71250  0.50762  0.22409  1.0000
  N   N21       1.0  0.84312  0.78518  0.21033  1.0000
  H   H449      1.0  0.78835  0.45764  0.01580  1.0000
  C   C266      1.0  0.94046  0.76477  0.20940  1.0000
  C   C267      1.0  0.81158  0.82689  0.21003  1.0000
  Fe  Fe41      1.0  0.05591  0.57486  0.21190  1.0000
  H   H450      1.0  0.85156  0.58205  0.16146  1.0000
  H   H451      1.0  0.82789  0.84644  0.24027  1.0000
  C   C268      1.0  0.67915  0.79561  0.14643  1.0000
  S   S81       1.0  0.64661  0.60831  0.25482  1.0000
  H   H452      1.0  0.81568  0.78011  0.12212  1.0000
  Fe  Fe42      1.0  0.00500  0.62404  0.09803  1.0000
  C   C269      1.0  0.79146  0.63955  0.06110  1.0000
  H   H453      1.0  0.78367  0.84671  0.11590  1.0000
  H   H454      1.0  0.01035  0.72032  0.08904  1.0000
  H   H455      1.0  0.82944  0.64574  0.07731  1.0000
  H   H456      1.0  0.84516  0.86921  0.12539  1.0000
  H   H457      1.0  0.73008  0.45794  0.06152  1.0000
  H   H458      1.0  0.86498  0.52639  0.15119  1.0000
  H   H459      1.0  0.89883  0.80456  0.13536  1.0000
  H   H460      1.0  0.58888  0.74150  0.10533  1.0000
  S   S82       1.0  0.93446  0.66078  0.06134  1.0000
  H   H461      1.0  0.67185  0.78360  0.19495  1.0000
  C   C270      1.0  0.85376  0.56062  0.12768  1.0000
  H   H462      1.0  0.73476  0.42428  0.19619  1.0000
  C   C271      1.0  0.84269  0.71597  0.16346  1.0000
  S   S83       1.0  0.04947  0.64681  0.16764  1.0000
  H   H463      1.0  0.88547  0.57225  0.09451  1.0000
  C   C272      1.0  0.74155  0.58784  0.01704  1.0000
  S   S84       1.0  0.00670  0.55195  0.14569  1.0000
  H   H464      1.0  0.68798  0.62565  0.06653  1.0000
  H   H465      1.0  0.79626  0.52599  0.08931  1.0000
  C   C273      1.0  0.69357  0.59182  0.05798  1.0000
  C   C274      1.0  0.80727  0.85972  0.14753  1.0000
  Fe  Fe43      1.0  0.69840  0.66620  0.22822  1.0000
  C   C275      1.0  0.99867  0.41060  0.06272  1.0000
  H   H466      1.0  0.76467  0.63921  0.10088  1.0000
  H   H467      1.0  0.84883  0.69278  0.20774  1.0000
  C   C276      1.0  0.76349  0.43742  0.05151  1.0000
  H   H468      1.0  0.85377  0.39489  0.00589  1.0000
  H   H469      1.0  0.97620  0.77656  0.18314  1.0000
  C   C277      1.0  0.77783  0.68049  0.01115  1.0000
  H   H470      1.0  0.96218  0.40500  0.08718  1.0000
  H   H471      1.0  0.58295  0.69242  0.20331  1.0000
  H   H472      1.0  0.59221  0.64104  0.14419  1.0000
  H   H473      1.0  0.93420  0.73084  0.20325  1.0000
  H   H474      1.0  0.74093  0.55415  0.00727  1.0000
  C   C278      1.0  0.01481  0.44269  0.30862  1.0000
  C   C279      1.0  0.04733  0.85498  0.47590  1.0000
  H   H475      1.0  0.03657  0.67857  0.37276  1.0000
  C   C280      1.0  0.85401  0.83855  0.48461  1.0000
  C   C281      1.0  0.98758  0.58188  0.33280  1.0000
  C   C282      1.0  0.97863  0.59043  0.39098  1.0000
  H   H476      1.0  0.04613  0.43125  0.45777  1.0000
  H   H477      1.0  0.88739  0.85759  0.49249  1.0000
  C   C283      1.0  0.02308  0.76452  0.50370  1.0000
  H   H478      1.0  0.67172  0.84295  0.33220  1.0000
  H   H479      1.0  0.86520  0.81695  0.45270  1.0000
  H   H480      1.0  0.62871  0.83813  0.27404  1.0000
  C   C284      1.0  0.90227  0.60977  0.30524  1.0000
  H   H481      1.0  0.93338  0.41285  0.38258  1.0000
  H   H482      1.0  0.89142  0.80197  0.31031  1.0000
  H   H483      1.0  0.64270  0.79046  0.33121  1.0000
  H   H484      1.0  0.85912  0.69788  0.49083  1.0000
  Fe  Fe44      1.0  0.65539  0.61342  0.35135  1.0000
  C   C285      1.0  0.80389  0.49613  0.46075  1.0000
  C   C286      1.0  0.06244  0.76071  0.29711  1.0000
  H   H485      1.0  0.82554  0.80175  0.33776  1.0000
  C   C287      1.0  0.96448  0.42698  0.40421  1.0000
  H   H486      1.0  0.94749  0.76322  0.25814  1.0000
  C   C288      1.0  0.00862  0.79185  0.44849  1.0000
  C   C289      1.0  0.84145  0.75740  0.27481  1.0000
  C   C290      1.0  0.93239  0.61029  0.40538  1.0000
  H   H487      1.0  0.67450  0.46127  0.35094  1.0000
  S   S85       1.0  0.83612  0.64371  0.38270  1.0000
  H   H488      1.0  0.60966  0.83925  0.40879  1.0000
  C   C291      1.0  0.84846  0.45495  0.28308  1.0000
  H   H489      1.0  0.64577  0.40844  0.36185  1.0000
  H   H490      1.0  0.79864  0.56575  0.45890  1.0000
  H   H491      1.0  0.97879  0.49233  0.42509  1.0000
  H   H492      1.0  0.87298  0.61708  0.27202  1.0000
  H   H493      1.0  0.86576  0.72700  0.27906  1.0000
  H   H494      1.0  0.76355  0.48895  0.45503  1.0000
  H   H495      1.0  0.73211  0.38998  0.49936  1.0000
  C   C292      1.0  0.05996  0.81182  0.28179  1.0000
  C   C293      1.0  0.81045  0.53514  0.49196  1.0000
  C   C294      1.0  0.69481  0.77761  0.47485  1.0000
  Fe  Fe45      1.0  0.71704  0.56636  0.26615  1.0000
  S   S86       1.0  0.69207  0.86541  0.47278  1.0000
  S   S87       1.0  0.04656  0.55923  0.31381  1.0000
  H   H496      1.0  0.92656  0.61849  0.44956  1.0000
  C   C295      1.0  0.85753  0.78098  0.32472  1.0000
  H   H497      1.0  0.98317  0.43025  0.28581  1.0000
  S   S88       1.0  0.70071  0.67608  0.32425  1.0000
  C   C296      1.0  0.02115  0.83684  0.43438  1.0000
  C   C297      1.0  0.84843  0.41402  0.26613  1.0000
  C   C298      1.0  0.89388  0.61952  0.36280  1.0000
  H   H498      1.0  0.00779  0.58257  0.42457  1.0000
  H   H499      1.0  0.00672  0.47860  0.30373  1.0000
  H   H500      1.0  0.01087  0.85756  0.39093  1.0000
  C   C299      1.0  0.72741  0.40691  0.38324  1.0000
  H   H501      1.0  0.94178  0.49536  0.35777  1.0000
  S   S89       1.0  0.72298  0.56743  0.36473  1.0000
  H   H502      1.0  0.98845  0.77812  0.41610  1.0000
  H   H503      1.0  0.80684  0.51616  0.28296  1.0000
  C   C300      1.0  0.63619  0.82694  0.32317  1.0000
  H   H504      1.0  0.86701  0.75570  0.36643  1.0000
  C   C301      1.0  0.58361  0.67883  0.43867  1.0000
  H   H505      1.0  0.82196  0.50491  0.41407  1.0000
  H   H506      1.0  0.80216  0.74481  0.28816  1.0000
  H   H507      1.0  0.91377  0.47637  0.43177  1.0000
  C   C302      1.0  0.67334  0.42759  0.38130  1.0000
  H   H508      1.0  0.03519  0.75031  0.33664  1.0000
  H   H509      1.0  0.69690  0.78798  0.42567  1.0000
  H   H510      1.0  0.75204  0.42988  0.40025  1.0000
  H   H511      1.0  0.86125  0.87444  0.35901  1.0000
  H   H512      1.0  0.82523  0.86303  0.46178  1.0000
  C   C303      1.0  0.94969  0.47573  0.40404  1.0000
  C   C304      1.0  0.05662  0.43710  0.40797  1.0000
  C   C305      1.0  0.59161  0.83704  0.36578  1.0000
  H   H513      1.0  0.96275  0.40958  0.45300  1.0000
  H   H514      1.0  0.82424  0.46607  0.48482  1.0000
  Fe  Fe46      1.0  0.76854  0.62931  0.33227  1.0000
  H   H515      1.0  0.88015  0.46353  0.30704  1.0000
  C   C306      1.0  0.94938  0.59172  0.28988  1.0000
  H   H516      1.0  0.69963  0.70811  0.47426  1.0000
  N   N22       1.0  0.01584  0.41905  0.37501  1.0000
  H   H517      1.0  0.65957  0.43206  0.42686  1.0000
  H   H518      1.0  0.05862  0.47376  0.39191  1.0000
  C   C307      1.0  0.80728  0.48480  0.26899  1.0000
  H   H519      1.0  0.85233  0.53769  0.49600  1.0000
  H   H520      1.0  0.62474  0.67680  0.44103  1.0000
  H   H521      1.0  0.02051  0.82300  0.26915  1.0000
  H   H522      1.0  0.81886  0.74597  0.48162  1.0000
  H   H523      1.0  0.83237  0.40568  0.41120  1.0000
  H   H524      1.0  0.74096  0.40865  0.33572  1.0000
  H   H525      1.0  0.57778  0.74445  0.45667  1.0000
  S   S90       1.0  0.58893  0.59517  0.41695  1.0000
  C   C308      1.0  0.69658  0.73241  0.50239  1.0000
  H   H526      1.0  0.06851  0.82541  0.32182  1.0000
  C   C309      1.0  0.06383  0.44014  0.26927  1.0000
  H   H527      1.0  0.04594  0.74881  0.25892  1.0000
  H   H528      1.0  0.79386  0.79768  0.53363  1.0000
  S   S91       1.0  0.70018  0.57069  0.74223  1.0000
  C   C310      1.0  0.80388  0.49606  0.60150  1.0000
  C   C311      1.0  0.03577  0.47247  0.62071  1.0000
  H   H529      1.0  0.89045  0.68169  0.74193  1.0000
  H   H530      1.0  0.98288  0.66836  0.72842  1.0000
  Fe  Fe47      1.0  0.05824  0.66395  0.58719  1.0000
  C   C312      1.0  0.05939  0.82827  0.53248  1.0000
  H   H531      1.0  0.83802  0.80901  0.68471  1.0000
  C   C313      1.0  0.90918  0.79889  0.59991  1.0000
  C   C314      1.0  0.84023  0.72162  0.51581  1.0000
  S   S92       1.0  0.02595  0.61134  0.66372  1.0000
  C   C315      1.0  0.04730  0.78309  0.54629  1.0000
  C   C316      1.0  0.98577  0.40790  0.61709  1.0000
  H   H532      1.0  0.77173  0.60450  0.53715  1.0000
  H   H533      1.0  0.69197  0.73949  0.65145  1.0000
  H   H534      1.0  0.90327  0.71598  0.57494  1.0000
  H   H535      1.0  0.79990  0.50463  0.64701  1.0000
  S   S93       1.0  0.69868  0.66158  0.59710  1.0000
  H   H536      1.0  0.84578  0.49186  0.59366  1.0000
  H   H537      1.0  0.81317  0.70213  0.55001  1.0000
  H   H538      1.0  0.77975  0.43760  0.56762  1.0000
  H   H539      1.0  0.59474  0.83906  0.70511  1.0000
  S   S94       1.0  0.89768  0.41247  0.55318  1.0000
  C   C317      1.0  0.84620  0.58954  0.57475  1.0000
  H   H540      1.0  0.80366  0.42564  0.64258  1.0000
  C   C318      1.0  0.82958  0.81215  0.54472  1.0000
  H   H541      1.0  0.00623  0.53517  0.57099  1.0000
  H   H542      1.0  0.71714  0.49650  0.53423  1.0000
  Fe  Fe48      1.0  0.71986  0.64024  0.69462  1.0000
  H   H543      1.0  0.63655  0.79273  0.73565  1.0000
  H   H544      1.0  0.77155  0.57699  0.61559  1.0000
  H   H545      1.0  0.65305  0.51966  0.59602  1.0000
  H   H546      1.0  0.86844  0.56274  0.60431  1.0000
  H   H547      1.0  0.74109  0.44873  0.63108  1.0000
  C   C319      1.0  0.00064  0.49971  0.58392  1.0000
  H   H548      1.0  0.05588  0.76294  0.59024  1.0000
  H   H549      1.0  0.70674  0.51523  0.64434  1.0000
  N   N23       1.0  0.78245  0.53294  0.55265  1.0000
  C   C320      1.0  0.69276  0.75009  0.60223  1.0000
  C   C321      1.0  0.69078  0.79551  0.57452  1.0000
  H   H550      1.0  0.68871  0.81970  0.60246  1.0000
  C   C322      1.0  0.95847  0.48094  0.56314  1.0000
  C   C323      1.0  0.79017  0.57674  0.57020  1.0000
  C   C324      1.0  0.81204  0.78213  0.68140  1.0000
  C   C325      1.0  0.72602  0.52874  0.54496  1.0000
  H   H551      1.0  0.81674  0.83682  0.57176  1.0000
  C   C326      1.0  0.94063  0.77023  0.65110  1.0000
  H   H552      1.0  0.86529  0.59927  0.52897  1.0000
  H   H553      1.0  0.77408  0.79719  0.66818  1.0000
  C   C327      1.0  0.59878  0.80862  0.74135  1.0000
  C   C328      1.0  0.88169  0.74355  0.54559  1.0000
  N   N24       1.0  0.86317  0.77704  0.58181  1.0000
  C   C329      1.0  0.78023  0.44977  0.61020  1.0000
  H   H554      1.0  0.89842  0.83034  0.61408  1.0000
  H   H555      1.0  0.00199  0.52064  0.71450  1.0000
  C   C330      1.0  0.95070  0.43503  0.58016  1.0000
  H   H556      1.0  0.05557  0.40533  0.66531  1.0000
  H   H557      1.0  0.97529  0.78858  0.65695  1.0000
  H   H558      1.0  0.95370  0.73843  0.63995  1.0000
  C   C331      1.0  0.83211  0.75344  0.63673  1.0000
  H   H559      1.0  0.59795  0.64529  0.64639  1.0000
  C   C332      1.0  0.69186  0.80933  0.51070  1.0000
  H   H560      1.0  0.68509  0.56863  0.60178  1.0000
  H   H561      1.0  0.93620  0.80937  0.55998  1.0000
  C   C333      1.0  0.69119  0.53321  0.60044  1.0000
  H   H562      1.0  0.58399  0.73789  0.57091  1.0000
  H   H563      1.0  0.85288  0.72401  0.66254  1.0000
  C   C334      1.0  0.69570  0.71861  0.56598  1.0000
  H   H564      1.0  0.84692  0.61917  0.59500  1.0000
  H   H565      1.0  0.79762  0.73890  0.62239  1.0000
  H   H566      1.0  0.93766  0.54113  0.71104  1.0000
  S   S95       1.0  0.80280  0.63190  0.71495  1.0000
  H   H567      1.0  0.91907  0.76378  0.69565  1.0000
  C   C335      1.0  0.02841  0.42655  0.63697  1.0000
  H   H568      1.0  0.80856  0.76116  0.72833  1.0000
  H   H569      1.0  0.93182  0.50206  0.53406  1.0000
  H   H570      1.0  0.58594  0.58138  0.61136  1.0000
  C   C336      1.0  0.96440  0.51717  0.73882  1.0000
  H   H571      1.0  0.95018  0.48353  0.74029  1.0000
  S   S96       1.0  0.00982  0.70764  0.51710  1.0000
  H   H572      1.0  0.90952  0.75856  0.50850  1.0000
  H   H573      1.0  0.57402  0.71022  0.68392  1.0000
  H   H574      1.0  0.57348  0.66763  0.57494  1.0000
  H   H575      1.0  0.07218  0.84638  0.74357  1.0000
  H   H576      1.0  0.71282  0.55447  0.50524  1.0000
