data_image0
_chemical_formula_structural       H6CH5C2SH2SC3HC3H2CH2SHNHC2NH2CH3C3HCH4FeCHCHCHCHCHSH2C2H3SHCH2CFeSHC3H2CHC2H2CHCHCSHCFeH2C2FeHC2HCHCSCHC2NCHFeHCHFeSH2CHC2HCH2CH2FeH6S3H3SH2CFeHCH10CH2SHC2HCH2CHCNC2H3CHCSCHCH3C2H4S2HNH2CHFe2SHCH3SCH2C2H2S2HFeCH2C3H4CHCFeC2H5CH3CH3SCHCHCHSCH2CH2FeCH3NCFeCHCNH7CHCHCHC2H4CH3CHCH2C3HCSH4CH3SNHCH2C2HCH2SHFeHCHS2FeCSH3SCHC2HSCH4CFe2CHC2HCHSHCH2FeHC2H5SHSCHFeCH6FeHCSHSH2SCSHSCH2S2FeH2CH2SFeCH2CFeC2H3CHCH2CHCSHS2HSCHFeC3H4SHCH2CHFeSH4C2HC2H2CSH3CHC2SCH2C2HCH2C2H2FeHCH3CNC3HCH3NHFeH3CHCSCH2C2H5CH4CSCH3CHCHC2HC3H3CHN2CHSH3CHCH3SCNSHCH3C3HFeC2H3C3H5C2HCH4CHCNHCH13SHCH5CH2C2H2CH2SHNHCH2CNH2C2H2CHCHC2H2C2HFeCSH3FeC2HCSCSFeHCSCH2SH3C2HCH5SCSH
_chemical_formula_sum              "H384 C224 S64 N16 Fe32"
_cell_length_a       20.3737
_cell_length_b       11.4508
_cell_length_c       39.5236
_cell_angle_alpha    96.7248
_cell_angle_beta     91.8026
_cell_angle_gamma    70.9549

_space_group_name_H-M_alt    "P 1"
_space_group_IT_number       1

loop_
  _space_group_symop_operation_xyz
  'x, y, z'

loop_
  _atom_site_type_symbol
  _atom_site_label
  _atom_site_symmetry_multiplicity
  _atom_site_fract_x
  _atom_site_fract_y
  _atom_site_fract_z
  _atom_site_occupancy
  H   H1        1.0  0.03538  0.08778  0.33163  1.0000
  H   H2        1.0  0.33147  0.12762  0.26495  1.0000
  H   H3        1.0  0.90163  0.97040  0.43004  1.0000
  H   H4        1.0  0.01093  0.14726  0.27362  1.0000
  H   H5        1.0  0.28604  0.26421  0.29150  1.0000
  H   H6        1.0  0.94575  0.24839  0.36918  1.0000
  C   C1        1.0  0.15778  0.28193  0.27619  1.0000
  H   H7        1.0  0.33496  0.95730  0.39784  1.0000
  H   H8        1.0  0.24359  0.08942  0.43914  1.0000
  H   H9        1.0  0.99740  0.03088  0.45261  1.0000
  H   H10       1.0  0.34771  0.07035  0.37386  1.0000
  H   H11       1.0  0.32257  0.36046  0.25248  1.0000
  C   C2        1.0  0.22337  0.04166  0.45730  1.0000
  C   C3        1.0  0.05685  0.02072  0.31015  1.0000
  S   S1        1.0  0.92061  0.29573  0.47433  1.0000
  H   H12       1.0  0.26391  0.14062  0.32849  1.0000
  H   H13       1.0  0.19435  0.28487  0.46499  1.0000
  S   S2        1.0  0.33467  0.40921  0.40096  1.0000
  C   C4        1.0  0.06927  0.96592  0.24932  1.0000
  C   C5        1.0  0.04057  0.28251  0.38152  1.0000
  C   C6        1.0  0.13747  0.40481  0.26011  1.0000
  H   H14       1.0  0.18588  0.02630  0.27284  1.0000
  C   C7        1.0  0.08419  0.34930  0.37537  1.0000
  C   C8        1.0  0.22936  0.08698  0.31897  1.0000
  C   C9        1.0  0.97676  0.30494  0.36514  1.0000
  H   H15       1.0  0.97545  0.35485  0.25592  1.0000
  H   H16       1.0  0.05628  0.21144  0.39858  1.0000
  C   C10       1.0  0.95601  0.39202  0.34180  1.0000
  H   H17       1.0  0.16621  0.30796  0.30354  1.0000
  H   H18       1.0  0.29697  0.26901  0.49216  1.0000
  S   S3        1.0  0.16488  0.31433  0.39601  1.0000
  H   H19       1.0  0.11124  0.25066  0.27523  1.0000
  N   N1        1.0  0.20247  0.12337  0.49062  1.0000
  H   H20       1.0  0.11471  0.25735  0.46895  1.0000
  C   C11       1.0  0.16566  0.00161  0.43850  1.0000
  C   C12       1.0  0.04282  0.05383  0.27723  1.0000
  N   N2        1.0  0.22005  0.17805  0.26114  1.0000
  H   H21       1.0  0.17612  0.13478  0.32943  1.0000
  H   H22       1.0  0.90635  0.95833  0.47368  1.0000
  C   C13       1.0  0.16376  0.25387  0.48271  1.0000
  H   H23       1.0  0.11733  0.08055  0.43665  1.0000
  H   H24       1.0  0.27701  0.98963  0.27178  1.0000
  H   H25       1.0  0.33739  0.11654  0.46897  1.0000
  C   C14       1.0  0.22825  0.06589  0.27971  1.0000
  C   C15       1.0  0.28542  0.21306  0.26580  1.0000
  C   C16       1.0  0.00463  0.93010  0.45165  1.0000
  H   H26       1.0  0.15437  0.92806  0.45080  1.0000
  C   C17       1.0  0.37523  0.98454  0.38555  1.0000
  H   H27       1.0  0.24784  0.99555  0.32923  1.0000
  H   H28       1.0  0.18392  0.96160  0.41220  1.0000
  H   H29       1.0  0.26736  0.95548  0.46055  1.0000
  H   H30       1.0  0.14260  0.14072  0.53633  1.0000
  Fe  Fe1       1.0  0.95430  0.29494  0.70706  1.0000
  C   C18       1.0  0.32065  0.24212  0.59118  1.0000
  H   H31       1.0  0.25342  0.16959  0.53630  1.0000
  C   C19       1.0  0.25344  0.32721  0.59504  1.0000
  H   H32       1.0  0.27813  0.25635  0.70500  1.0000
  C   C20       1.0  0.95220  0.34984  0.54027  1.0000
  H   H33       1.0  0.95716  0.05974  0.56637  1.0000
  C   C21       1.0  0.19846  0.28757  0.60364  1.0000
  H   H34       1.0  0.35364  0.29359  0.66291  1.0000
  C   C22       1.0  0.21063  0.16305  0.60847  1.0000
  H   H35       1.0  0.89990  0.05661  0.63607  1.0000
  S   S4        1.0  0.95331  0.27198  0.65022  1.0000
  H   H36       1.0  0.14648  0.35250  0.60539  1.0000
  H   H37       1.0  0.97665  0.38804  0.59268  1.0000
  C   C23       1.0  0.15584  0.08087  0.51159  1.0000
  C   C24       1.0  0.00927  0.99106  0.56940  1.0000
  H   H38       1.0  0.19022  0.36454  0.52761  1.0000
  H   H39       1.0  0.01550  0.01559  0.62378  1.0000
  H   H40       1.0  0.10701  0.34019  0.53107  1.0000
  S   S5        1.0  0.06896  0.26026  0.71145  1.0000
  H   H41       1.0  0.29637  0.02109  0.51552  1.0000
  C   C25       1.0  0.33264  0.11727  0.59537  1.0000
  H   H42       1.0  0.99824  0.26937  0.53566  1.0000
  H   H43       1.0  0.36536  0.15447  0.51082  1.0000
  C   C26       1.0  0.14402  0.35528  0.51348  1.0000
  Fe  Fe2       1.0  0.06563  0.25731  0.65445  1.0000
  S   S6        1.0  0.14264  0.11202  0.61955  1.0000
  H   H44       1.0  0.94177  0.95894  0.68391  1.0000
  C   C27       1.0  0.26708  0.11831  0.51069  1.0000
  C   C28       1.0  0.27751  0.07762  0.60367  1.0000
  C   C29       1.0  0.89477  0.97841  0.61791  1.0000
  H   H45       1.0  0.28684  0.98083  0.60674  1.0000
  H   H46       1.0  0.04742  0.04100  0.56801  1.0000
  C   C30       1.0  0.18636  0.94673  0.52119  1.0000
  H   H47       1.0  0.36436  0.15289  0.70809  1.0000
  C   C31       1.0  0.01710  0.93751  0.60395  1.0000
  C   C32       1.0  0.33183  0.25232  0.71221  1.0000
  H   H48       1.0  0.30233  0.99059  0.68463  1.0000
  H   H49       1.0  0.10444  0.09290  0.49927  1.0000
  C   C33       1.0  0.90463  0.38511  0.51409  1.0000
  H   H50       1.0  0.33451  0.28234  0.73968  1.0000
  C   C34       1.0  0.93960  0.41660  0.57270  1.0000
  H   H51       1.0  0.21006  0.94649  0.54692  1.0000
  C   C35       1.0  0.36077  0.32655  0.69002  1.0000
  S   S7        1.0  0.89969  0.21544  0.74178  1.0000
  H   H52       1.0  0.03176  0.93557  0.67413  1.0000
  C   C36       1.0  0.31893  0.16793  0.49428  1.0000
  Fe  Fe3       1.0  0.93345  0.12147  0.92439  1.0000
  H   H53       1.0  0.99160  0.35175  0.88441  1.0000
  H   H54       1.0  0.89362  0.40505  0.85491  1.0000
  C   C37       1.0  0.24091  0.36565  0.79235  1.0000
  C   C38       1.0  0.10515  0.96822  0.93413  1.0000
  Fe  Fe4       1.0  0.36202  0.18174  0.84120  1.0000
  H   H55       1.0  0.18761  0.98536  0.96784  1.0000
  C   C39       1.0  0.30730  0.38530  0.93699  1.0000
  C   C40       1.0  0.99023  0.92689  0.79079  1.0000
  H   H56       1.0  0.96160  0.98209  0.77072  1.0000
  C   C41       1.0  0.21601  0.38407  0.97532  1.0000
  H   H57       1.0  0.07331  0.10550  0.78647  1.0000
  C   C42       1.0  0.11187  0.12807  0.80417  1.0000
  S   S8        1.0  0.97487  0.25301  0.95755  1.0000
  C   C43       1.0  0.08717  0.93927  0.90051  1.0000
  H   H58       1.0  0.09123  0.30790  0.78739  1.0000
  C   C44       1.0  0.36442  0.30307  0.95861  1.0000
  C   C45       1.0  0.09596  0.26963  0.81226  1.0000
  N   N3        1.0  0.03193  0.33731  0.83363  1.0000
  C   C46       1.0  0.17363  0.96208  0.94194  1.0000
  H   H59       1.0  0.14280  0.29295  0.87746  1.0000
  Fe  Fe5       1.0  0.88790  0.40272  0.93707  1.0000
  H   H60       1.0  0.35218  0.21867  0.96340  1.0000
  C   C47       1.0  0.03383  0.28805  0.86758  1.0000
  H   H61       1.0  0.00269  0.99031  0.81156  1.0000
  Fe  Fe6       1.0  0.34962  0.95283  0.79971  1.0000
  S   S9        1.0  0.00065  0.96161  0.88980  1.0000
  H   H62       1.0  0.37179  0.35327  0.98333  1.0000
  H   H63       1.0  0.06626  0.99559  0.95411  1.0000
  C   C48       1.0  0.10203  0.26416  0.88817  1.0000
  H   H64       1.0  0.26788  0.26670  0.79063  1.0000
  C   C49       1.0  0.22342  0.92969  0.91597  1.0000
  C   C50       1.0  0.89835  0.39860  0.82698  1.0000
  H   H65       1.0  0.11538  0.08178  0.82754  1.0000
  C   C51       1.0  0.97121  0.31786  0.81365  1.0000
  H   H66       1.0  0.97396  0.33622  0.78673  1.0000
  H   H67       1.0  0.97243  0.21960  0.81244  1.0000
  C   C52       1.0  0.18582  0.41234  0.77013  1.0000
  H   H68       1.0  0.09042  0.31370  0.91431  1.0000
  H   H69       1.0  0.02244  0.19852  0.86433  1.0000
  Fe  Fe7       1.0  0.34837  0.96927  0.87665  1.0000
  H   H70       1.0  0.16290  0.08744  0.79085  1.0000
  H   H71       1.0  0.12469  0.16391  0.89126  1.0000
  H   H72       1.0  0.14324  0.28411  0.82364  1.0000
  H   H73       1.0  0.21121  0.30324  0.95788  1.0000
  H   H74       1.0  0.17114  0.34920  0.75134  1.0000
  H   H75       1.0  0.29427  0.32121  0.91639  1.0000
  S   S10       1.0  0.28114  0.08883  0.83978  1.0000
  S   S11       1.0  0.32889  0.38957  0.84486  1.0000
  S   S12       1.0  0.30624  0.93723  0.92498  1.0000
  H   H76       1.0  0.87876  0.02256  0.85255  1.0000
  H   H77       1.0  0.07052  0.24837  0.03697  1.0000
  H   H78       1.0  0.94541  0.35871  0.13277  1.0000
  S   S13       1.0  0.92816  0.23990  0.04957  1.0000
  H   H79       1.0  0.34461  0.99193  0.10340  1.0000
  H   H80       1.0  0.09255  0.08839  0.01786  1.0000
  C   C53       1.0  0.17626  0.13141  0.04919  1.0000
  Fe  Fe8       1.0  0.89532  0.25176  0.99522  1.0000
  H   H81       1.0  0.12833  0.19238  0.00143  1.0000
  C   C54       1.0  0.31665  0.38644  0.08154  1.0000
  H   H82       1.0  0.23596  0.97234  0.11826  1.0000
  H   H83       1.0  0.34248  0.23000  0.22121  1.0000
  H   H84       1.0  0.25372  0.02202  0.17873  1.0000
  H   H85       1.0  0.31277  0.93512  0.06451  1.0000
  H   H86       1.0  0.95941  0.26598  0.18663  1.0000
  H   H87       1.0  0.11293  0.25488  0.10516  1.0000
  H   H88       1.0  0.13936  0.09891  0.15147  1.0000
  H   H89       1.0  0.05770  0.17476  0.08596  1.0000
  H   H90       1.0  0.05409  0.20414  0.14926  1.0000
  H   H91       1.0  0.25640  0.34174  0.22437  1.0000
  C   C55       1.0  0.26234  0.02749  0.20660  1.0000
  H   H92       1.0  0.12454  0.39324  0.23278  1.0000
  H   H93       1.0  0.18878  0.21817  0.05733  1.0000
  S   S14       1.0  0.16082  0.38792  0.16108  1.0000
  H   H94       1.0  0.30737  0.09717  0.07285  1.0000
  C   C56       1.0  0.15211  0.95252  0.07055  1.0000
  C   C57       1.0  0.90586  0.31773  0.17888  1.0000
  H   H95       1.0  0.22081  0.07210  0.03301  1.0000
  C   C58       1.0  0.23183  0.04836  0.10226  1.0000
  H   H96       1.0  0.22817  0.13130  0.12071  1.0000
  H   H97       1.0  0.19923  0.21849  0.20863  1.0000
  C   C59       1.0  0.22094  0.37511  0.12918  1.0000
  H   H98       1.0  0.30990  0.27118  0.15654  1.0000
  C   C60       1.0  0.30267  0.01597  0.08420  1.0000
  N   N4        1.0  0.16788  0.07145  0.08010  1.0000
  C   C61       1.0  0.29185  0.31612  0.13383  1.0000
  C   C62       1.0  0.20622  0.14214  0.22436  1.0000
  H   H99       1.0  0.15599  0.12298  0.22198  1.0000
  H   H100      1.0  0.88860  0.24575  0.16370  1.0000
  H   H101      1.0  0.07078  0.04645  0.13179  1.0000
  C   C63       1.0  0.09302  0.12357  0.13505  1.0000
  H   H102      1.0  0.10075  0.96964  0.05811  1.0000
  C   C64       1.0  0.10688  0.16118  0.10039  1.0000
  S   S15       1.0  0.04993  0.00936  0.20837  1.0000
  C   C65       1.0  0.33980  0.32183  0.10991  1.0000
  H   H103      1.0  0.91667  0.08701  0.09885  1.0000
  C   C66       1.0  0.11287  0.16627  0.02538  1.0000
  H   H104      1.0  0.31554  0.03170  0.21096  1.0000
  H   H105      1.0  0.25898  0.94006  0.21479  1.0000
  H   H106      1.0  0.13972  0.39235  0.01400  1.0000
  C   C67       1.0  0.90953  0.40985  0.15413  1.0000
  C   C68       1.0  0.30105  0.29004  0.23919  1.0000
  H   H107      1.0  0.91757  0.22621  0.23872  1.0000
  H   H108      1.0  0.25348  0.34351  0.99535  1.0000
  H   H109      1.0  0.88378  0.08916  0.20048  1.0000
  H   H110      1.0  0.99463  0.41154  0.21759  1.0000
  S   S16       1.0  0.37585  0.41532  0.05534  1.0000
  S   S17       1.0  0.11517  0.86891  0.35765  1.0000
  H   H111      1.0  0.04446  0.48849  0.44088  1.0000
  N   N5        1.0  0.93189  0.77894  0.44198  1.0000
  H   H112      1.0  0.03893  0.88300  0.42957  1.0000
  H   H113      1.0  0.97851  0.86072  0.38138  1.0000
  C   C69       1.0  0.12699  0.81318  0.28777  1.0000
  H   H114      1.0  0.32110  0.62464  0.30182  1.0000
  Fe  Fe9       1.0  0.30105  0.60896  0.42350  1.0000
  Fe  Fe10      1.0  0.20062  0.69640  0.36679  1.0000
  S   S18       1.0  0.31138  0.68531  0.37523  1.0000
  H   H115      1.0  0.09514  0.49540  0.34850  1.0000
  C   C70       1.0  0.99927  0.46036  0.33554  1.0000
  H   H116      1.0  0.97728  0.72512  0.35502  1.0000
  H   H117      1.0  0.00071  0.71843  0.48364  1.0000
  H   H118      1.0  0.95243  0.53110  0.43902  1.0000
  S   S19       1.0  0.18798  0.63647  0.41726  1.0000
  C   C71       1.0  0.99562  0.55073  0.45352  1.0000
  H   H119      1.0  0.89473  0.74709  0.25114  1.0000
  H   H120      1.0  0.03647  0.70755  0.38935  1.0000
  C   C72       1.0  0.35966  0.68202  0.25886  1.0000
  C   C73       1.0  0.99470  0.68755  0.45632  1.0000
  H   H121      1.0  0.96936  0.51350  0.25581  1.0000
  H   H122      1.0  0.31543  0.76543  0.25818  1.0000
  S   S20       1.0  0.22607  0.50734  0.33777  1.0000
  S   S21       1.0  0.34172  0.69490  0.46956  1.0000
  H   H123      1.0  0.16004  0.72068  0.29183  1.0000
  Fe  Fe11      1.0  0.33614  0.48758  0.35179  1.0000
  C   C74       1.0  0.09922  0.90164  0.31557  1.0000
  H   H124      1.0  0.04312  0.68625  0.44402  1.0000
  H   H125      1.0  0.92602  0.65017  0.39768  1.0000
  C   C75       1.0  0.98349  0.76145  0.38175  1.0000
  C   C76       1.0  0.11116  0.84507  0.25446  1.0000
  C   C77       1.0  0.92669  0.74698  0.40402  1.0000
  H   H126      1.0  0.99534  0.52092  0.47924  1.0000
  H   H127      1.0  0.96015  0.77049  0.27947  1.0000
  H   H128      1.0  0.98328  0.52962  0.31793  1.0000
  H   H129      1.0  0.09027  0.47083  0.27324  1.0000
  C   C78       1.0  0.93272  0.91153  0.44927  1.0000
  H   H130      1.0  0.17783  0.45044  0.26407  1.0000
  C   C79       1.0  0.36290  0.60211  0.28357  1.0000
  Fe  Fe12      1.0  0.22181  0.44605  0.38899  1.0000
  C   C80       1.0  0.06286  0.44060  0.35284  1.0000
  C   C81       1.0  0.90440  0.80982  0.27284  1.0000
  H   H131      1.0  0.03160  0.89841  0.47539  1.0000
  H   H132      1.0  0.37667  0.84734  0.34289  1.0000
  H   H133      1.0  0.87942  0.86712  0.32603  1.0000
  H   H134      1.0  0.89743  0.90204  0.26435  1.0000
  H   H135      1.0  0.07123  0.69899  0.57528  1.0000
  C   C82       1.0  0.33942  0.51616  0.73229  1.0000
  H   H136      1.0  0.23239  0.69021  0.67450  1.0000
  H   H137      1.0  0.21253  0.68595  0.71864  1.0000
  H   H138      1.0  0.32528  0.61928  0.73496  1.0000
  C   C83       1.0  0.95677  0.78742  0.58200  1.0000
  H   H139      1.0  0.00936  0.82741  0.69646  1.0000
  H   H140      1.0  0.24344  0.45851  0.66346  1.0000
  H   H141      1.0  0.33167  0.52856  0.64621  1.0000
  S   S22       1.0  0.92610  0.50153  0.71175  1.0000
  C   C84       1.0  0.36040  0.52477  0.67079  1.0000
  H   H142      1.0  0.22632  0.88505  0.50305  1.0000
  C   C85       1.0  0.87925  0.51881  0.57916  1.0000
  H   H143      1.0  0.22717  0.46158  0.70737  1.0000
  C   C86       1.0  0.25303  0.50014  0.68930  1.0000
  H   H144      1.0  0.07109  0.87259  0.60539  1.0000
  S   S23       1.0  0.04781  0.46144  0.65525  1.0000
  C   C87       1.0  0.36091  0.85868  0.71812  1.0000
  H   H145      1.0  0.15734  0.65418  0.68552  1.0000
  H   H146      1.0  0.14468  0.90400  0.52114  1.0000
  C   C88       1.0  0.21248  0.64099  0.69218  1.0000
  H   H147      1.0  0.03967  0.73762  0.63774  1.0000
  H   H148      1.0  0.90132  0.69232  0.50535  1.0000
  Fe  Fe13      1.0  0.93589  0.47636  0.65510  1.0000
  C   C89       1.0  0.99233  0.88872  0.67583  1.0000
  H   H149      1.0  0.02593  0.59709  0.58619  1.0000
  H   H150      1.0  0.02052  0.64536  0.54401  1.0000
  H   H151      1.0  0.35402  0.62329  0.68009  1.0000
  N   N6        1.0  0.96408  0.87770  0.61160  1.0000
  C   C90       1.0  0.02260  0.67614  0.57161  1.0000
  Fe  Fe14      1.0  0.04077  0.46663  0.71177  1.0000
  C   C91       1.0  0.98727  0.80820  0.64227  1.0000
  H   H152      1.0  0.92622  0.78977  0.73813  1.0000
  C   C92       1.0  0.34980  0.91508  0.68791  1.0000
  N   N7        1.0  0.33000  0.46606  0.69602  1.0000
  H   H153      1.0  0.91696  0.74564  0.58759  1.0000
  H   H154      1.0  0.95278  0.75345  0.64681  1.0000
  H   H155      1.0  0.93526  0.83519  0.55930  1.0000
  H   H156      1.0  0.11764  0.44629  0.50391  1.0000
  H   H157      1.0  0.02079  0.91654  0.54770  1.0000
  H   H158      1.0  0.24391  0.42332  0.59116  1.0000
  H   H159      1.0  0.18014  0.44759  0.91223  1.0000
  C   C93       1.0  0.02128  0.47504  0.83763  1.0000
  H   H160      1.0  0.36365  0.54957  0.97281  1.0000
  C   C94       1.0  0.13789  0.90003  0.87488  1.0000
  H   H161      1.0  0.91622  0.76050  0.86476  1.0000
  C   C95       1.0  0.17214  0.62137  0.79564  1.0000
  H   H162      1.0  0.97200  0.52831  0.85140  1.0000
  C   C96       1.0  0.07579  0.51906  0.85794  1.0000
  C   C97       1.0  0.22790  0.57500  0.81742  1.0000
  H   H163      1.0  0.30313  0.49701  0.74961  1.0000
  H   H164      1.0  0.12942  0.47037  0.84856  1.0000
  H   H165      1.0  0.25364  0.58356  0.89758  1.0000
  H   H166      1.0  0.06494  0.61936  0.85547  1.0000
  C   C98       1.0  0.97623  0.72027  0.95397  1.0000
  H   H167      1.0  0.92283  0.51327  0.99120  1.0000
  H   H168      1.0  0.30399  0.65869  0.94774  1.0000
  H   H169      1.0  0.03929  0.86438  0.77847  1.0000
  C   C99       1.0  0.25505  0.56708  0.98148  1.0000
  H   H170      1.0  0.97638  0.75538  0.92972  1.0000
  C   C100      1.0  0.94595  0.62865  0.95699  1.0000
  H   H171      1.0  0.33134  0.44060  0.92334  1.0000
  H   H172      1.0  0.96847  0.75307  0.79173  1.0000
  C   C101      1.0  0.00634  0.76705  0.98250  1.0000
  C   C102      1.0  0.95090  0.84886  0.80524  1.0000
  C   C103      1.0  0.20237  0.61801  0.91042  1.0000
  H   H173      1.0  0.24445  0.63857  0.83538  1.0000
  C   C104      1.0  0.31175  0.62061  0.97250  1.0000
  S   S24       1.0  0.07838  0.60098  0.74640  1.0000
  H   H174      1.0  0.24481  0.86953  0.86249  1.0000
  H   H175      1.0  0.88547  0.49384  0.81967  1.0000
  H   H176      1.0  0.07100  0.51221  0.88544  1.0000
  H   H177      1.0  0.12411  0.87636  0.84894  1.0000
  C   C105      1.0  0.26171  0.44689  0.81620  1.0000
  H   H178      1.0  0.01730  0.50941  0.81211  1.0000
  H   H179      1.0  0.14608  0.72050  0.79698  1.0000
  H   H180      1.0  0.16284  0.64254  0.89026  1.0000
  S   S25       1.0  0.90827  0.56925  0.92152  1.0000
  N   N8        1.0  0.24260  0.46669  0.95625  1.0000
  H   H181      1.0  0.19658  0.70545  0.92704  1.0000
  C   C106      1.0  0.18810  0.52246  0.93078  1.0000
  H   H182      1.0  0.10152  0.45480  0.97601  1.0000
  H   H183      1.0  0.02955  0.83834  0.98019  1.0000
  C   C107      1.0  0.15033  0.54009  0.77229  1.0000
  C   C108      1.0  0.20598  0.89682  0.88252  1.0000
  H   H184      1.0  0.13692  0.57270  0.94330  1.0000
  C   C109      1.0  0.94602  0.58390  0.98851  1.0000
  H   H185      1.0  0.97200  0.83383  0.83110  1.0000
  H   H186      1.0  0.20619  0.64684  0.98627  1.0000
  S   S26       1.0  0.29879  0.90866  0.75090  1.0000
  H   H187      1.0  0.31202  0.69784  0.99224  1.0000
  Fe  Fe15      1.0  0.92940  0.72371  0.15718  1.0000
  H   H188      1.0  0.22850  0.88002  0.02798  1.0000
  C   C110      1.0  0.00501  0.72407  0.01415  1.0000
  H   H189      1.0  0.14552  0.91106  0.09378  1.0000
  S   S27       1.0  0.04246  0.78530  0.04922  1.0000
  S   S28       1.0  0.01283  0.69346  0.19647  1.0000
  Fe  Fe16      1.0  0.03753  0.84666  0.17504  1.0000
  C   C111      1.0  0.24556  0.43783  0.07586  1.0000
  S   S29       1.0  0.94955  0.88553  0.13858  1.0000
  H   H190      1.0  0.92956  0.48286  0.16669  1.0000
  H   H191      1.0  0.22713  0.48970  0.05449  1.0000
  H   H192      1.0  0.18170  0.78235  0.03621  1.0000
  S   S30       1.0  0.99450  0.58409  0.11632  1.0000
  C   C112      1.0  0.19779  0.43174  0.09959  1.0000
  H   H193      1.0  0.14295  0.47531  0.09552  1.0000
  C   C113      1.0  0.88266  0.47114  0.23064  1.0000
  C   C114      1.0  0.97479  0.63255  0.01718  1.0000
  H   H194      1.0  0.97387  0.59869  0.04150  1.0000
  S   S31       1.0  0.11404  0.72055  0.13688  1.0000
  C   C115      1.0  0.20707  0.84756  0.04897  1.0000
  H   H195      1.0  0.13245  0.77718  0.23282  1.0000
  H   H196      1.0  0.88647  0.91142  0.05731  1.0000
  H   H197      1.0  0.24964  0.79532  0.06515  1.0000
  H   H198      1.0  0.27038  0.53294  0.00668  1.0000
  C   C116      1.0  0.14550  0.44801  0.99385  1.0000
  Fe  Fe17      1.0  0.08003  0.56959  0.15429  1.0000
  Fe  Fe18      1.0  0.02353  0.74435  0.10160  1.0000
  C   C117      1.0  0.96013  0.43335  0.24023  1.0000
  H   H199      1.0  0.14078  0.54158  0.00679  1.0000
  C   C118      1.0  0.68900  0.08390  0.44570  1.0000
  C   C119      1.0  0.64586  0.03503  0.46232  1.0000
  H   H200      1.0  0.70367  0.13880  0.32984  1.0000
  C   C120      1.0  0.76964  0.00583  0.28993  1.0000
  H   H201      1.0  0.52961  0.03204  0.30154  1.0000
  S   S32       1.0  0.71917  0.39634  0.44879  1.0000
  H   H202      1.0  0.53040  0.07235  0.40029  1.0000
  C   C121      1.0  0.50931  0.06762  0.37411  1.0000
  H   H203      1.0  0.65456  0.08358  0.29667  1.0000
  H   H204      1.0  0.77169  0.00075  0.26163  1.0000
  Fe  Fe19      1.0  0.71954  0.27307  0.40030  1.0000
  H   H205      1.0  0.49587  0.94738  0.26757  1.0000
  C   C122      1.0  0.70181  0.10968  0.30210  1.0000
  C   C123      1.0  0.52443  0.92915  0.36003  1.0000
  H   H206      1.0  0.83498  0.30771  0.25556  1.0000
  H   H207      1.0  0.78091  0.13828  0.45019  1.0000
  H   H208      1.0  0.49912  0.35632  0.46743  1.0000
  H   H209      1.0  0.39340  0.96678  0.29965  1.0000
  H   H210      1.0  0.45405  0.12509  0.37613  1.0000
  S   S33       1.0  0.42282  0.39215  0.31476  1.0000
  H   H211      1.0  0.66042  0.92978  0.25673  1.0000
  S   S34       1.0  0.67093  0.12550  0.40410  1.0000
  C   C124      1.0  0.74595  0.10444  0.46297  1.0000
  H   H212      1.0  0.51500  0.37614  0.25948  1.0000
  Fe  Fe20      1.0  0.83226  0.35084  0.43773  1.0000
  C   C125      1.0  0.43384  0.99476  0.31493  1.0000
  H   H213      1.0  0.60230  0.01709  0.44909  1.0000
  H   H214      1.0  0.40493  0.08509  0.32930  1.0000
  H   H215      1.0  0.81154  0.04397  0.29947  1.0000
  H   H216      1.0  0.69627  0.19297  0.28893  1.0000
  H   H217      1.0  0.45395  0.10990  0.27888  1.0000
  H   H218      1.0  0.53788  0.11238  0.35921  1.0000
  Fe  Fe21      1.0  0.80929  0.38320  0.36272  1.0000
  H   H219      1.0  0.40974  0.00328  0.40627  1.0000
  C   C126      1.0  0.48183  0.02130  0.28949  1.0000
  S   S35       1.0  0.83391  0.21631  0.39167  1.0000
  H   H220      1.0  0.77125  0.94283  0.35461  1.0000
  S   S36       1.0  0.87421  0.41793  0.32251  1.0000
  H   H221      1.0  0.69269  0.93831  0.33525  1.0000
  H   H222      1.0  0.60036  0.95641  0.70882  1.0000
  S   S37       1.0  0.59472  0.22153  0.70870  1.0000
  C   C127      1.0  0.67970  0.38861  0.57400  1.0000
  S   S38       1.0  0.73423  0.99920  0.55566  1.0000
  H   H223      1.0  0.55636  0.26953  0.49733  1.0000
  S   S39       1.0  0.48564  0.08377  0.64724  1.0000
  C   C128      1.0  0.71509  0.03292  0.51361  1.0000
  H   H224      1.0  0.41767  0.29613  0.69434  1.0000
  H   H225      1.0  0.66958  0.36272  0.51931  1.0000
  S   S40       1.0  0.58097  0.21099  0.60925  1.0000
  S   S41       1.0  0.38925  0.29074  0.58016  1.0000
  Fe  Fe22      1.0  0.48728  0.15367  0.59700  1.0000
  H   H226      1.0  0.38419  0.05054  0.59155  1.0000
  H   H227      1.0  0.70704  0.21200  0.66399  1.0000
  C   C129      1.0  0.63542  0.37733  0.54194  1.0000
  H   H228      1.0  0.78815  0.02057  0.63440  1.0000
  H   H229      1.0  0.62343  0.28914  0.54182  1.0000
  S   S42       1.0  0.54499  0.96632  0.56972  1.0000
  Fe  Fe23      1.0  0.58444  0.12491  0.65722  1.0000
  C   C130      1.0  0.67883  0.22514  0.71672  1.0000
  H   H230      1.0  0.46892  0.36700  0.50986  1.0000
  H   H231      1.0  0.44388  0.37056  0.64416  1.0000
  C   C131      1.0  0.65869  0.01010  0.49635  1.0000
  Fe  Fe24      1.0  0.63971  0.01788  0.58627  1.0000
  C   C132      1.0  0.75866  0.08000  0.49684  1.0000
  C   C133      1.0  0.79170  0.22149  0.69746  1.0000
  H   H232      1.0  0.80223  0.09817  0.51009  1.0000
  H   H233      1.0  0.70113  0.29601  0.58348  1.0000
  H   H234      1.0  0.51043  0.39148  0.56330  1.0000
  C   C134      1.0  0.72420  0.21860  0.69012  1.0000
  H   H235      1.0  0.82698  0.21517  0.67699  1.0000
  C   C135      1.0  0.81364  0.22893  0.73132  1.0000
  H   H236      1.0  0.62568  0.97105  0.50888  1.0000
  H   H237      1.0  0.72570  0.41344  0.56741  1.0000
  C   C136      1.0  0.51522  0.35907  0.49456  1.0000
  H   H238      1.0  0.87464  0.02022  0.59405  1.0000
  C   C137      1.0  0.83600  0.93849  0.63148  1.0000
  S   S43       1.0  0.65158  0.93525  0.63575  1.0000
  H   H239      1.0  0.39407  0.92306  0.63966  1.0000
  S   S44       1.0  0.42681  0.05449  0.79858  1.0000
  S   S45       1.0  0.81121  0.41353  0.97755  1.0000
  H   H240      1.0  0.41464  0.27125  0.94453  1.0000
  S   S46       1.0  0.67360  0.29892  0.92833  1.0000
  C   C138      1.0  0.73054  0.93220  0.99093  1.0000
  H   H241      1.0  0.54963  0.96746  0.96684  1.0000
  Fe  Fe25      1.0  0.48056  0.93778  0.83955  1.0000
  C   C139      1.0  0.58031  0.09960  0.86594  1.0000
  C   C140      1.0  0.67908  0.95147  0.89003  1.0000
  C   C141      1.0  0.59674  0.19752  0.88465  1.0000
  H   H242      1.0  0.53618  0.11985  0.84908  1.0000
  H   H243      1.0  0.77166  0.95772  0.97879  1.0000
  H   H244      1.0  0.66448  0.24539  0.77103  1.0000
  H   H245      1.0  0.47540  0.94578  0.94550  1.0000
  S   S47       1.0  0.85383  0.27177  0.90007  1.0000
  H   H246      1.0  0.78356  0.25008  0.78384  1.0000
  C   C142      1.0  0.69656  0.05021  0.90826  1.0000
  H   H247      1.0  0.68375  0.95996  0.97465  1.0000
  H   H248      1.0  0.74450  0.10973  0.81007  1.0000
  C   C143      1.0  0.65497  0.17317  0.90563  1.0000
  H   H249      1.0  0.56463  0.29248  0.88247  1.0000
  Fe  Fe26      1.0  0.78447  0.26817  0.94217  1.0000
  S   S48       1.0  0.42270  0.07570  0.88225  1.0000
  H   H250      1.0  0.76492  0.18413  0.84923  1.0000
  H   H251      1.0  0.85287  0.00210  0.76131  1.0000
  H   H252      1.0  0.63627  0.16519  0.97994  1.0000
  H   H253      1.0  0.74213  0.03152  0.92412  1.0000
  C   C144      1.0  0.76737  0.23964  0.75771  1.0000
  C   C145      1.0  0.70017  0.23732  0.75048  1.0000
  H   H254      1.0  0.75249  0.03706  0.84810  1.0000
  C   C146      1.0  0.77431  0.09268  0.83381  1.0000
  C   C147      1.0  0.62073  0.97659  0.86889  1.0000
  H   H255      1.0  0.78590  0.94641  0.77157  1.0000
  H   H256      1.0  0.85903  0.35845  0.81534  1.0000
  C   C148      1.0  0.85292  0.02918  0.82740  1.0000
  S   S49       1.0  0.86121  0.10540  0.96362  1.0000
  H   H257      1.0  0.42904  0.36464  0.74925  1.0000
  H   H258      1.0  0.87171  0.09524  0.81514  1.0000
  H   H259      1.0  0.65137  0.93251  0.74623  1.0000
  C   C149      1.0  0.84342  0.92221  0.77116  1.0000
  H   H260      1.0  0.76646  0.00220  0.07531  1.0000
  C   C150      1.0  0.84720  0.94920  0.03782  1.0000
  C   C151      1.0  0.74784  0.25618  0.11729  1.0000
  S   S50       1.0  0.67832  0.25422  0.14214  1.0000
  C   C152      1.0  0.74065  0.35120  0.09666  1.0000
  H   H261      1.0  0.81720  0.08808  0.13413  1.0000
  H   H262      1.0  0.57789  0.03492  0.08209  1.0000
  C   C153      1.0  0.79561  0.34650  0.07539  1.0000
  C   C154      1.0  0.70481  0.13593  0.02488  1.0000
  H   H263      1.0  0.61341  0.15434  0.07638  1.0000
  C   C155      1.0  0.63872  0.20767  0.00635  1.0000
  H   H264      1.0  0.84769  0.04391  0.03530  1.0000
  H   H265      1.0  0.39475  0.27888  0.11386  1.0000
  C   C156      1.0  0.62622  0.05242  0.07552  1.0000
  C   C157      1.0  0.65195  0.98269  0.04007  1.0000
  H   H266      1.0  0.66405  0.01809  0.09583  1.0000
  H   H267      1.0  0.59069  0.21613  0.02025  1.0000
  Fe  Fe27      1.0  0.58232  0.40565  0.12987  1.0000
  H   H268      1.0  0.77238  0.37764  0.17592  1.0000
  C   C158      1.0  0.86324  0.27125  0.23090  1.0000
  H   H269      1.0  0.79768  0.19391  0.19470  1.0000
  H   H270      1.0  0.60788  0.00834  0.02207  1.0000
  H   H271      1.0  0.81747  0.12474  0.23290  1.0000
  C   C159      1.0  0.86740  0.16043  0.09830  1.0000
  N   N9        1.0  0.71584  0.99998  0.02638  1.0000
  C   C160      1.0  0.83942  0.16398  0.21349  1.0000
  C   C161      1.0  0.77587  0.94889  0.04963  1.0000
  C   C162      1.0  0.85903  0.25085  0.07629  1.0000
  H   H272      1.0  0.74898  0.14892  0.01187  1.0000
  C   C163      1.0  0.81144  0.16135  0.11819  1.0000
  H   H273      1.0  0.70360  0.18525  0.05088  1.0000
  H   H274      1.0  0.63917  0.30374  0.00490  1.0000
  H   H275      1.0  0.72093  0.38064  0.23190  1.0000
  N   N10       1.0  0.85946  0.37362  0.20948  1.0000
  H   H276      1.0  0.78935  0.41814  0.05884  1.0000
  Fe  Fe28      1.0  0.70183  0.54417  0.41422  1.0000
  H   H277      1.0  0.73960  0.52132  0.24801  1.0000
  H   H278      1.0  0.73055  0.78458  0.37468  1.0000
  H   H279      1.0  0.54421  0.78652  0.29911  1.0000
  C   C164      1.0  0.50282  0.77755  0.31526  1.0000
  H   H280      1.0  0.46427  0.75590  0.29711  1.0000
  C   C165      1.0  0.41540  0.87566  0.35953  1.0000
  S   S51       1.0  0.81478  0.51287  0.40852  1.0000
  C   C166      1.0  0.53711  0.66028  0.33334  1.0000
  H   H281      1.0  0.49778  0.62495  0.34341  1.0000
  H   H282      1.0  0.43935  0.79797  0.37513  1.0000
  C   C167      1.0  0.54791  0.72796  0.43907  1.0000
  C   C168      1.0  0.74926  0.88723  0.33521  1.0000
  H   H283      1.0  0.64803  0.84647  0.29117  1.0000
  H   H284      1.0  0.78088  0.79240  0.24891  1.0000
  H   H285      1.0  0.87623  0.80682  0.39452  1.0000
  H   H286      1.0  0.53581  0.87437  0.38218  1.0000
  H   H287      1.0  0.58119  0.46209  0.48385  1.0000
  C   C169      1.0  0.85949  0.81691  0.30436  1.0000
  H   H288      1.0  0.82031  0.85155  0.44981  1.0000
  H   H289      1.0  0.72941  0.70745  0.33296  1.0000
  H   H290      1.0  0.40981  0.87472  0.49210  1.0000
  H   H291      1.0  0.56850  0.58447  0.31446  1.0000
  C   C170      1.0  0.41895  0.49186  0.28386  1.0000
  S   S52       1.0  0.62923  0.73572  0.42892  1.0000
  C   C171      1.0  0.67797  0.84015  0.26777  1.0000
  H   H292      1.0  0.55948  0.55971  0.40558  1.0000
  H   H293      1.0  0.77249  0.70026  0.28043  1.0000
  H   H294      1.0  0.57248  0.67585  0.35396  1.0000
  C   C172      1.0  0.44160  0.80784  0.47262  1.0000
  H   H295      1.0  0.44521  0.54724  0.42044  1.0000
  C   C173      1.0  0.52634  0.63018  0.42387  1.0000
  H   H296      1.0  0.52219  0.89277  0.47516  1.0000
  C   C174      1.0  0.46153  0.62330  0.43225  1.0000
  C   C175      1.0  0.75662  0.79764  0.27408  1.0000
  H   H297      1.0  0.81080  0.70624  0.35299  1.0000
  C   C176      1.0  0.75619  0.76333  0.34921  1.0000
  C   C177      1.0  0.41966  0.71087  0.45704  1.0000
  C   C178      1.0  0.50512  0.81787  0.46309  1.0000
  H   H298      1.0  0.85283  0.50193  0.25491  1.0000
  H   H299      1.0  0.87216  0.71934  0.31025  1.0000
  H   H300      1.0  0.57424  0.90144  0.34561  1.0000
  C   C179      1.0  0.47174  0.46149  0.25939  1.0000
  H   H301      1.0  0.85414  0.68938  0.44684  1.0000
  N   N11       1.0  0.78208  0.87768  0.30078  1.0000
  N   N12       1.0  0.46937  0.89709  0.33802  1.0000
  C   C180      1.0  0.86590  0.77404  0.45725  1.0000
  H   H302      1.0  0.66582  0.77081  0.24869  1.0000
  S   S53       1.0  0.69357  0.42607  0.36599  1.0000
  H   H303      1.0  0.61665  0.54222  0.71446  1.0000
  H   H304      1.0  0.69122  0.54953  0.52490  1.0000
  H   H305      1.0  0.82272  0.86819  0.61341  1.0000
  C   C181      1.0  0.83281  0.55728  0.55264  1.0000
  H   H306      1.0  0.62566  0.61715  0.49451  1.0000
  C   C182      1.0  0.86398  0.77684  0.49632  1.0000
  H   H307      1.0  0.59822  0.74910  0.69924  1.0000
  H   H308      1.0  0.76566  0.67382  0.70831  1.0000
  H   H309      1.0  0.51460  0.63517  0.69741  1.0000
  S   S54       1.0  0.86201  0.59607  0.62058  1.0000
  C   C183      1.0  0.62098  0.77200  0.72392  1.0000
  N   N13       1.0  0.56971  0.48509  0.53880  1.0000
  S   S55       1.0  0.52912  0.73215  0.63549  1.0000
  H   H310      1.0  0.78665  0.63767  0.55742  1.0000
  C   C184      1.0  0.40142  0.87686  0.66241  1.0000
  H   H311      1.0  0.53553  0.68574  0.53966  1.0000
  H   H312      1.0  0.77229  0.52080  0.71523  1.0000
  H   H313      1.0  0.41218  0.56808  0.58392  1.0000
  C   C185      1.0  0.84538  0.48995  0.52005  1.0000
  C   C186      1.0  0.46209  0.77765  0.66620  1.0000
  C   C187      1.0  0.47034  0.71615  0.69535  1.0000
  H   H314      1.0  0.41935  0.57601  0.53956  1.0000
  Fe  Fe29      1.0  0.55120  0.90098  0.62162  1.0000
  C   C188      1.0  0.42162  0.75999  0.72195  1.0000
  C   C189      1.0  0.64325  0.88668  0.72084  1.0000
  H   H315      1.0  0.49807  0.55599  0.49885  1.0000
  H   H316      1.0  0.81163  0.77845  0.50398  1.0000
  H   H317      1.0  0.68612  0.67144  0.66010  1.0000
  C   C190      1.0  0.58330  0.60783  0.54437  1.0000
  C   C191      1.0  0.44569  0.58286  0.56432  1.0000
  C   C192      1.0  0.71238  0.58392  0.67143  1.0000
  H   H318      1.0  0.59703  0.62886  0.57128  1.0000
  H   H319      1.0  0.69016  0.86466  0.70476  1.0000
  H   H320      1.0  0.44787  0.67839  0.57081  1.0000
  H   H321      1.0  0.75931  0.53303  0.65567  1.0000
  H   H322      1.0  0.64687  0.71280  0.52893  1.0000
  C   C193      1.0  0.64522  0.55905  0.73774  1.0000
  C   C194      1.0  0.43717  0.45991  0.66010  1.0000
  H   H323      1.0  0.67882  0.52439  0.66894  1.0000
  C   C195      1.0  0.64024  0.62057  0.52171  1.0000
  H   H324      1.0  0.53823  0.49686  0.59137  1.0000
  H   H325      1.0  0.80914  0.51870  0.49964  1.0000
  H   H326      1.0  0.45173  0.49049  0.73449  1.0000
  H   H327      1.0  0.45348  0.51932  0.64414  1.0000
  C   C196      1.0  0.73465  0.60998  0.70848  1.0000
  H   H328      1.0  0.84174  0.83223  0.71978  1.0000
  C   C197      1.0  0.54135  0.47113  0.50344  1.0000
  N   N14       1.0  0.67675  0.65940  0.73452  1.0000
  H   H329      1.0  0.47327  0.44276  0.68169  1.0000
  C   C198      1.0  0.51823  0.48368  0.56523  1.0000
  H   H330      1.0  0.65105  0.45436  0.59551  1.0000
  H   H331      1.0  0.84747  0.90451  0.65682  1.0000
  H   H332      1.0  0.68608  0.46836  0.73897  1.0000
  H   H333      1.0  0.87256  0.86066  0.50979  1.0000
  H   H334      1.0  0.57678  0.80445  0.74229  1.0000
  H   H335      1.0  0.42371  0.75013  0.95177  1.0000
  H   H336      1.0  0.83871  0.88924  0.87662  1.0000
  H   H337      1.0  0.47429  0.56245  0.88696  1.0000
  H   H338      1.0  0.55976  0.88481  0.92506  1.0000
  H   H339      1.0  0.45302  0.78244  0.91366  1.0000
  H   H340      1.0  0.74832  0.50264  0.78205  1.0000
  H   H341      1.0  0.58596  0.54149  0.90056  1.0000
  H   H342      1.0  0.38701  0.64316  0.90035  1.0000
  S   S56       1.0  0.59568  0.85587  0.84708  1.0000
  H   H343      1.0  0.54678  0.47872  0.94778  1.0000
  C   C199      1.0  0.46192  0.70794  0.93068  1.0000
  H   H344      1.0  0.41029  0.51055  0.77458  1.0000
  H   H345      1.0  0.83498  0.73575  0.86785  1.0000
  H   H346      1.0  0.66481  0.74642  0.78680  1.0000
  H   H347      1.0  0.62260  0.58145  0.79304  1.0000
  H   H348      1.0  0.44076  0.52881  0.92529  1.0000
  C   C200      1.0  0.54467  0.78011  0.96650  1.0000
  H   H349      1.0  0.57393  0.50266  0.76668  1.0000
  H   H350      1.0  0.73273  0.76483  0.76466  1.0000
  C   C201      1.0  0.53174  0.90042  0.94958  1.0000
  C   C202      1.0  0.65988  0.62708  0.92079  1.0000
  H   H351      1.0  0.50821  0.80633  0.98862  1.0000
  H   H352      1.0  0.71044  0.85634  0.89241  1.0000
  C   C203      1.0  0.55072  0.56218  0.96398  1.0000
  H   H353      1.0  0.66427  0.72079  0.92744  1.0000
  H   H354      1.0  0.55082  0.66738  0.76825  1.0000
  S   S57       1.0  0.40980  0.82217  0.83663  1.0000
  H   H355      1.0  0.76235  0.61766  0.81194  1.0000
  N   N15       1.0  0.87291  0.90415  0.80641  1.0000
  H   H356      1.0  0.78667  0.84388  0.81879  1.0000
  C   C204      1.0  0.70635  0.69582  0.76784  1.0000
  H   H357      1.0  0.68298  0.56746  0.94107  1.0000
  H   H358      1.0  0.75260  0.75087  0.96174  1.0000
  C   C205      1.0  0.41215  0.46632  0.74789  1.0000
  N   N16       1.0  0.53534  0.67159  0.94371  1.0000
  H   H359      1.0  0.59729  0.75457  0.97811  1.0000
  H   H360      1.0  0.81293  0.56965  0.77248  1.0000
  C   C206      1.0  0.44081  0.60329  0.90978  1.0000
  C   C207      1.0  0.58400  0.63456  0.91338  1.0000
  H   H361      1.0  0.42975  0.71530  0.74506  1.0000
  H   H362      1.0  0.56497  0.69886  0.89351  1.0000
  C   C208      1.0  0.59550  0.58066  0.76828  1.0000
  H   H363      1.0  0.60526  0.53480  0.97312  1.0000
  C   C209      1.0  0.76094  0.58994  0.78408  1.0000
  H   H364      1.0  0.69160  0.58571  0.89736  1.0000
  C   C210      1.0  0.87035  0.81037  0.74389  1.0000
  C   C211      1.0  0.84409  0.81610  0.82169  1.0000
  H   H365      1.0  0.86131  0.72735  0.75164  1.0000
  H   H366      1.0  0.44945  0.62580  0.99149  1.0000
  C   C212      1.0  0.85998  0.80100  0.85976  1.0000
  C   C213      1.0  0.75567  0.78858  0.98865  1.0000
  H   H367      1.0  0.86476  0.72116  0.80788  1.0000
  Fe  Fe30      1.0  0.44824  0.48157  0.09045  1.0000
  C   C214      1.0  0.41214  0.65116  0.23420  1.0000
  S   S58       1.0  0.43008  0.68591  0.10368  1.0000
  H   H368      1.0  0.66137  0.88376  0.04236  1.0000
  H   H369      1.0  0.67897  0.52209  0.21409  1.0000
  H   H370      1.0  0.75065  0.65278  0.06186  1.0000
  Fe  Fe31      1.0  0.46273  0.63356  0.15619  1.0000
  C   C215      1.0  0.73437  0.69843  0.08717  1.0000
  C   C216      1.0  0.46829  0.54112  0.23453  1.0000
  H   H371      1.0  0.67595  0.84902  0.17907  1.0000
  C   C217      1.0  0.69244  0.80742  0.15345  1.0000
  S   S59       1.0  0.40717  0.75000  0.20300  1.0000
  C   C218      1.0  0.66364  0.74860  0.09539  1.0000
  S   S60       1.0  0.57541  0.60104  0.14765  1.0000
  Fe  Fe32      1.0  0.54414  0.63486  0.09390  1.0000
  H   H372      1.0  0.58812  0.84575  0.13461  1.0000
  C   C219      1.0  0.64280  0.80547  0.12831  1.0000
  S   S61       1.0  0.60085  0.73071  0.06579  1.0000
  C   C220      1.0  0.72882  0.46618  0.22489  1.0000
  H   H373      1.0  0.52172  0.63674  0.01716  1.0000
  H   H374      1.0  0.50915  0.51736  0.21560  1.0000
  S   S62       1.0  0.82386  0.75150  0.17794  1.0000
  H   H375      1.0  0.72484  0.75020  0.00403  1.0000
  H   H376      1.0  0.78153  0.85193  0.05388  1.0000
  H   H377      1.0  0.78169  0.52366  0.18723  1.0000
  C   C221      1.0  0.76309  0.75521  0.14549  1.0000
  C   C222      1.0  0.78424  0.70277  0.11219  1.0000
  H   H378      1.0  0.81149  0.75091  0.99471  1.0000
  C   C223      1.0  0.78637  0.43501  0.19767  1.0000
  H   H379      1.0  0.83884  0.66155  0.10598  1.0000
  H   H380      1.0  0.51158  0.48901  0.00447  1.0000
  H   H381      1.0  0.85837  0.45351  0.14251  1.0000
  H   H382      1.0  0.86497  0.89019  0.01353  1.0000
  H   H383      1.0  0.87128  0.55616  0.21761  1.0000
  S   S63       1.0  0.47215  0.43222  0.14386  1.0000
  C   C224      1.0  0.50518  0.58101  0.99588  1.0000
  S   S64       1.0  0.55903  0.43627  0.07541  1.0000
  H   H384      1.0  0.69291  0.42822  0.09688  1.0000
