data_image0
_chemical_formula_structural       C2H6CHSHSHS2H3FeCHSC2S2C2HSH4CHSNFeH3CHCH3CH5C3SHC3HC2H3CH2CNH5CH2CH8C3H4CFeH2CH6C3HC2SCH2CH3CH4C3H3CH2CH2CHCHCHCSH2CH2CHFe2C3HFeC2FeH2NHSCH2CH3CH3FeCFeCHCH2C2SH2CHCSHFeH2C2HC2HCSH3CH4CH4CSCHSCSH4SFeHSHSH4CH2CHCFeHCHC2H5CHFeH3CS2HCHFeH2C2HNSCH2C2HC3HS2C2HCHCH2FeH3NH3CH3NC2H2CHCH2CH2CSHCH2SHSCH3SHCHFeHCH3FeC3HCNS2CH2C4HCS2H4FeH3CH2C2HCH9CNSHC2NC2SHCH4CHCH2CSC2SCSHCSFeH2C3H2CHC2HFeH5SHCSH4C2SHFeCFeHCSHSCNHCH3CSHCHFeH3C2H2CH3C3H2CFeSHCH3CH2CHCHNH8CHCFeSH2CH2SC3NC3HC2H2SC3HCHCH9FeCHCH5SCH3C2HCSCH2FeH6FeCHC2H2FeH2CHCH3CFeH3Fe2CSHSH4SC2H2SHC2H2SC2HNSFeH4CHCHSHFeCSCH2FeCH3CH3C2HC3H2CHNFeCH2CH3C2H5SHCSFeHC2HSH2CSC2HCHC3HCHC3H2SH2SH2C2NHCH3FeC3NFe2CSH4C2HCH4CH2C2SHSHC4H2C2H2SH2C3H2CSHC2NHCHCS2H2SHCH2FeH7CH3SC2FeCH2CH3CH9NHC2HSH2SCH2C2NH2SCHCHCHC2HNFeH2CH2CH2CHCSHCFeHC2FeHNH7CHNCH3CFeH2C2HCH2C2HSH2SHCH2C3HCH4FeCHCH2CH2FeHCH2CHSHC2HCSHSHCH2SHSFeHCH10C2SC2HCH3SFe2H3CH5CH2CH2CH2SC2H4CH2C2S2HS2C4H5NSH2FeH3CH2CHCHCH2CSH3CH2CHCHSH2CHCHC2S3HSCH4CHFeCH3CH3CH2C2FeCHNHCSHCH3CFeCHSCHCFeCNCHSH2NCH3C3SHCHCH3NCHSHC2H2Fe2CSH4C2HSH2CHSH2CHFe2H4SHSHCHCHCHCH2CFeH2CHCHCSH5C2HCHSCSH3SHCHSCHC2HCHCH6FeH2SH2CHSCH3C2H2CH6CNHCHCSC3H4C2SHC2NHCHCSHFeH2SC2H2CSHC2H3CH3CH2SC2HFeHCH2CH2CHSH3SHCHC2H3FeHSHCH2CFeH4SC2HS2HC2H3CH2C2HCFeHCHC2SCH4CHC2H3CH2SH3SH4CH2NHCH4CHCH2C3H2CFeH2C2HCHCH2CH2CHNSH9CSH10CH4NCH4C3HC2FeHCH2CH2S2H3Fe2CHCH3SCH3SH3S2H2NH5SHC2SFeHC2HFeC2H2C2HCSCH2FeC2H2C2H2C2HSCHCHC3HFeH3CSH4C2H2CNC2HCH2C2HCHC6H2FeH3CHCHC5HSH3CSHCHSC2HC4HCHCH2C2H3FeHFeH3CHCHCHN2HC4HC2H6CH2CH4CSFeHCHSHCFeSHCHCHC2SHCH3CS2HCSNH4CHFeH2CH2CSH2CNHCHCHSCH2CH3SFeCH3CH3C3HFeHFeH2CHSFeSH7CH4CHSHCH2C2H2CHCH2Fe2H6CH2FeC3H3CH3FeHCHSH4CH3CSHFeHCHC2H3SH3S2H2CH2CH3CSCNH4SH2C4HCHCHC5FeH3C2HCNH5C2SCHSC3H3CH2SHC2NH2CH5CFeHCH3CHC3HCH2CH5C2SC3SCH2C3NH2CHCH2CH2CSH4SHCFeCS2C2H2SC2SHCH2CFeCHCHSHCHCHFeC2H4C2HSH2CHFeNCHC2H2C2H2C4H3SH3FeH2CH4CSHCHSH5CHC2H7NCH5CH2C2H7SHC2NHCH3CH6CH2CFeNH2CHSH2C2H2CH2CH2SHC2HCHSFeCHSH2CHCHC3HSH2CHCH2SCHCHCH3SCH2CH2CH3C2H3FeC4HC2SCHCFeCH2SH3CH3NH5C3H3CHSC2H6C2H2FeHCH2SHCSHC2H4FeH4NCHSHFeSH2C4HC3FeHC3FeHCHSHCHSCFeC3H2CH2SH2C2H2S2NCHFeH4CH2CSH5CH3CH4NH3CHC3H2SH2CH3C2H3C2H3SH2SHSH5CHSH2SC4HC2H3C3HC2HSC3HCHCHCSCH6CHCHSHCHFeH4CFeSHC2H2FeHFeH2CH2SCH5CNC2Fe2H2FeH2C2H4CHCNCH2C2SH3CHFeH3CHC2HCHFeH2CHCSHCH2C2HS2N2H3S2H2C2HCHNH4CH2C3H5FeSHCHCSCH4C3H2CFeH3SCH4CFeHFeCH3CHCFeCH3CH3CSHCHCSHFeS2CH3NCSFeCHC3SCHC2HCSH3CFeH2SHCH3SC2H3SHSC2HSH3CHNSHSCSCHSNCHCH2CHCH5CHCSH2CH5CFeCSHCHCHCHCHCH3SHFeCH2C3H3CHC2H3SH3CHSC2HCH2C2NH5CHSHC3HC2HCH4CHCFeH2SHSC2HSCHSHSC2HC2HSCHNH6CSH3Fe2HCHCHCSC3HFeH5C2H3CHC2HC9FeH2SHCH3CH13SH2C2H2NHCHNH4CH3CSCH3CH2FeHCHC2NC3H6C3HCH5CH3NH2FeHCH2C3H2C3SH2CSCHSH2CHC3H2CH3CH4CHCH3NC2H2C2SH2C3H5C2HC4SC2HCH2C3HNCHCHCH6C3HCHFeSCH2NSC2HCH3C2HSCSCH3CH3SHCHSHCHSHCH2SFeH4CHCSHCSH2SHCH4SH2CH2CH2C2H3NSHFeH2SFeHC4SHCHCH2CH9CHNCHC3HFeC2H3CFeH6SC2FeHCH2CFeSH2CFeC2SCH2C2H3SH8SHS2NHSC2H2CHCFeHCH3CH5CHFeH3SCHC2HC2HCSH3CHFeH3CH7CHC2HNCH6CH3CHSCH2C2HCFeH2C2HNHC2HCH2FeH2CHFeH2CSCH2CNC2HNC2HSHC2HCHC2H10CH2CH5C2H2CHCHC3H3SHC2SHCH2CFeH4C2H6CH2SH3CHCHCNHCHNH6CHCHC2H10CH3C2NC2HSFeH2SCNCHSH6CH3SC5H7C2H2C3H6CSH4CH3CSCSCHS2H4FeCSCH2SH2S2HFeCHC2H2C2H2CS2CSHSCHC2FeH4CH2FeCH2CSH4SFeHFeHCHCH3CH3C2HCH3CHSHSH4CHCH3FeH2CHCH2CHCH2NH2C2H4CHC2HFeNH3SHFeCNHCH2CSCH2C3HCSH3C3H5CHFeH2C3H3C3H2C2H2FeSHSH2C2NH8CHCHCHCHCH3SCS2H2FeH3CSH2NH2FeCH8CHCH2CHSH2SCH2CFeCH3CFeSCH7CHSH3C4HFeC2H4SHCH2CHC2HCHSNH2FeCHCHCHCHC2HCHCHSFe2H4CHNH4CH2C3HC2HCH5CNC3S2C2HSHFeSC2HSC2HC3H2C2HFeHC2HCHCSH4SH3C2H2CH3CH2C2HCH4C2SHCFeSH3SH4CHCH3C2H7CSHSH2NCHC4NCH2SCHSHCHCHS2HNH3C2H2CH2SH4FeHC3HCH4SC3HCHCHSCHSH7CHCH4CH3CS2H2C2H2NH5C2HSH3CHNCHC2H8C2H6CH3C2SFeH2NCHCH4C2HCHSC2FeCH5CH2C3H2CH2CH2FeH4CH2SCH3CH3C2HSCHNCH2CH3CHCH3CHSHSC3HC2HS2HCH3FeHCHCHC2H3CH2NFeSCHSCHC2H3C2HCHCH2CHCSH3FeCH2C3H3CHC2HCH7C2HFeHCH2C2H5CHCFeH3C3H7C2SFeH2SHS2H12CSFeCH2CHCSHC2H4CHCHSC2FeCHC2H2C2H3C3SCH2CSCSH5C2H4CH3C2H2CHSHSHSHC4H4CH4C2H6CN2C4H2CNCHSH7CH4C7HC3NH3SHCHSH3C2HSHCH5SHCH8CH2FeHNHFeSC2HSH6CH2CSCH2CSCSHC2HCNHC2H2CH2SH3C2H2FeSHCH2FeHC4FeHCHFeC2HSHSH3CH3CHCH4FeHCH2CH2CFeCHCH2C2H3CSH3SCHC3H2C2HCSHCHSC2H2C2HSHFeCH2C3H2CH2C4FeC2HSFeHCSHS2HFeHSH3SCFeHCH4FeCHNH3CFeH2CHCSFeSHSH2CH3CHSH3SH2SH3CH3CHFeCFeH2C3HFeC4Fe2HFeHCSHC2H3CHCH2C2H5CHSCHCNH13SFeH3CSH4SHS2H6CFeH2CH3NHCFeHSCH3CH2CSH2CHC3H2NHC4HCH2SH2FeSCFeCHCHSHC3SH8FeHCHC2H2NFeC3H3C3H2CFeCH2CH2CH2SFeHCSCHNHSC2FeCH4CH2CHC3HCHCHCH3C2SCSH2SH4SC4SHCH2FeH7CSCH2CHCFeCH2CNHCFeCH2SHCSHC3NHCHC2FeC2H2NCH2C2H3FeHCHSCH3CHSC2S2HCS2CH3CHSCHCHCSFeHC2HSHC3HCHSCHCH2SC2HSCH3SHFeHCH2SH2CHSH5CNHCH2CH5CH6CHSHSC2H3CHCH4S2H2FeH2CHFeH4C2HSC2FeCHCH2CSHCHC2H2SH2CHC3H3CHCH2S2CHCH2CHCH3SCSH4SCH2SH2SNHC4FeCHCFeHC2HSHSH3FeHCHCH2CHCH2NHFeH3SCH2FeNH5CHC2S2HC2HCH3CH3NC2H2CH12C2HCHC2HFeCSH4CH2FeHC2HCSC3H2CH6NH5CHCHC2NSH2SH2CHSCHSCFe2CHCH3FeH2FeHC2SHNCSHC3HCH2SH2C2HCH2CSCH3CHCH3S2HCHC3H2NC2HSCHC2SHCH5CFeCSCHCHNCHSCH2FeHCFeCHFeHCFeHFeCHSHCH4CH2SHCHC2HFeCSCSCH2CSCFeH2CHC3H2CH2CHC2H3C2SCFeHCSC2H2CH6CH2CSH3C2HCHCH4CHFeNH6SCH6SH4C2HSH2FeHCHC2HSCH2CSH2CH2CH3CH2CFeSCH2CSC2HCH2C2HSHSHC2HFeH5SHC2HC2HCH2C2HC2H4CH3CNC2H5NSH3SC2HFeH2C3H3CHC6HFeH3SHNHFeH4C2HCHFe2HCSHSHC2SH5C5H2C5HC3H5CNH3S2H5CH2FeH3CHSCH3SH2SHCHFeNHSHC3SCSHC3HCH3CFeH3CHCSCH3FeH2CHC2HC5SH2C2HSH4CH3CH3CH3CSH3SH2CH2C2SH2SH2CHCH3CHCSHCNH3CH3FeCH2NCHFeC2HCH4NCH2SHCHNHCH6NH2CH2CH2CSHC2H2FeSC3H3CH5C2HC2H7FeH2CHC2H2CH3NSH3C2HCHCHNH3CH7CH
_chemical_formula_sum              "C1848 H3168 S528 Fe264 N132"
_cell_length_a       56.7275
_cell_length_b       63.9235
_cell_length_c       31.7449
_cell_angle_alpha    60.7579
_cell_angle_beta     89.1136
_cell_angle_gamma    114.523

_space_group_name_H-M_alt    "P 1"
_space_group_IT_number       1

loop_
  _space_group_symop_operation_xyz
  'x, y, z'

loop_
  _atom_site_type_symbol
  _atom_site_label
  _atom_site_symmetry_multiplicity
  _atom_site_fract_x
  _atom_site_fract_y
  _atom_site_fract_z
  _atom_site_occupancy
  C   C1        1.0  0.62151  0.99003  0.64931  1.0000
  C   C2        1.0  0.53974  0.96086  0.91450  1.0000
  H   H1        1.0  0.35984  0.14262  0.49782  1.0000
  H   H2        1.0  0.50668  0.08850  0.59304  1.0000
  H   H3        1.0  0.43732  0.97529  0.77685  1.0000
  H   H4        1.0  0.30993  0.00252  0.64437  1.0000
  H   H5        1.0  0.27973  0.16253  0.54820  1.0000
  H   H6        1.0  0.31571  0.03466  0.66963  1.0000
  C   C3        1.0  0.31496  0.08783  0.79171  1.0000
  H   H7        1.0  0.52799  0.08647  0.55521  1.0000
  S   S1        1.0  0.57227  0.11120  0.73088  1.0000
  H   H8        1.0  0.26658  0.09413  0.82629  1.0000
  S   S2        1.0  0.38240  0.18586  0.84901  1.0000
  H   H9        1.0  0.18237  0.97456  0.68026  1.0000
  S   S3        1.0  0.39237  0.11441  0.54092  1.0000
  S   S4        1.0  0.31275  0.15402  0.81587  1.0000
  H   H10       1.0  0.46922  0.09538  0.86158  1.0000
  H   H11       1.0  0.32389  0.08580  0.70911  1.0000
  H   H12       1.0  0.32667  0.16345  0.51255  1.0000
  Fe  Fe1       1.0  0.40516  0.06050  0.53605  1.0000
  C   C4        1.0  0.15785  0.01975  0.57892  1.0000
  H   H13       1.0  0.54633  0.02929  0.90546  1.0000
  S   S5        1.0  0.55089  0.15357  0.66018  1.0000
  C   C5        1.0  0.29966  0.99907  0.55961  1.0000
  C   C6        1.0  0.21484  0.00067  0.88518  1.0000
  S   S6        1.0  0.53914  0.96170  0.72872  1.0000
  S   S7        1.0  0.52620  0.18338  0.72410  1.0000
  C   C7        1.0  0.52585  0.03524  0.84735  1.0000
  C   C8        1.0  0.48880  0.05970  0.50574  1.0000
  H   H14       1.0  0.61455  0.12853  0.63389  1.0000
  S   S8        1.0  0.43456  0.09028  0.55257  1.0000
  H   H15       1.0  0.29905  0.09419  0.68365  1.0000
  H   H16       1.0  0.21019  0.00506  0.54298  1.0000
  H   H17       1.0  0.60642  0.14190  0.57474  1.0000
  H   H18       1.0  0.16347  0.11151  0.87304  1.0000
  C   C9        1.0  0.61271  0.09921  0.82797  1.0000
  H   H19       1.0  0.18833  0.11535  0.56900  1.0000
  S   S9        1.0  0.16877  0.03576  0.87878  1.0000
  N   N1        1.0  0.22393  0.13797  0.50737  1.0000
  Fe  Fe2       1.0  0.58920  0.15649  0.68041  1.0000
  H   H20       1.0  0.35615  0.17742  0.53140  1.0000
  H   H21       1.0  0.17527  0.17968  0.75462  1.0000
  H   H22       1.0  0.23197  0.18731  0.67525  1.0000
  C   C10       1.0  0.19232  0.02411  0.89313  1.0000
  H   H23       1.0  0.61816  0.00897  0.77183  1.0000
  C   C11       1.0  0.27118  0.16052  0.51829  1.0000
  H   H24       1.0  0.54282  0.10987  0.57429  1.0000
  H   H25       1.0  0.39448  0.95565  0.62746  1.0000
  H   H26       1.0  0.48590  0.95927  0.72464  1.0000
  C   C12       1.0  0.58264  0.98795  0.75465  1.0000
  H   H27       1.0  0.26634  0.04585  0.60212  1.0000
  H   H28       1.0  0.56349  0.00165  0.81508  1.0000
  H   H29       1.0  0.21794  0.99012  0.86926  1.0000
  H   H30       1.0  0.44041  0.09654  0.87975  1.0000
  H   H31       1.0  0.33931  0.95193  0.55604  1.0000
  C   C13       1.0  0.24925  0.02540  0.61478  1.0000
  C   C14       1.0  0.52536  0.10096  0.56204  1.0000
  C   C15       1.0  0.22334  0.09322  0.57482  1.0000
  S   S10       1.0  0.29148  0.19946  0.75984  1.0000
  H   H32       1.0  0.24039  0.17090  0.51984  1.0000
  C   C16       1.0  0.49678  0.01134  0.68609  1.0000
  C   C17       1.0  0.17540  0.98713  0.65224  1.0000
  C   C18       1.0  0.28108  0.16948  0.66813  1.0000
  H   H33       1.0  0.33783  0.19581  0.43565  1.0000
  C   C19       1.0  0.20647  0.02753  0.92698  1.0000
  C   C20       1.0  0.27646  0.98006  0.60867  1.0000
  H   H34       1.0  0.16448  0.96296  0.61956  1.0000
  H   H35       1.0  0.62194  0.15251  0.80522  1.0000
  H   H36       1.0  0.55852  0.96233  0.92553  1.0000
  C   C21       1.0  0.25040  0.17196  0.61569  1.0000
  H   H37       1.0  0.50429  0.00820  0.65807  1.0000
  H   H38       1.0  0.43232  0.95959  0.72319  1.0000
  C   C22       1.0  0.61088  0.95990  0.69193  1.0000
  N   N2        1.0  0.52243  0.14626  0.51249  1.0000
  H   H39       1.0  0.60844  0.98996  0.62349  1.0000
  H   H40       1.0  0.27247  0.02638  0.56021  1.0000
  H   H41       1.0  0.61541  0.10786  0.56484  1.0000
  H   H42       1.0  0.16034  0.19275  0.68203  1.0000
  H   H43       1.0  0.53979  0.95925  0.88127  1.0000
  C   C23       1.0  0.59500  0.09080  0.87107  1.0000
  H   H44       1.0  0.48515  0.12002  0.57189  1.0000
  H   H45       1.0  0.22308  0.07473  0.57932  1.0000
  C   C24       1.0  0.62290  0.07526  0.92136  1.0000
  H   H46       1.0  0.23278  0.13906  0.57302  1.0000
  H   H47       1.0  0.37186  0.96215  0.56653  1.0000
  H   H48       1.0  0.16836  0.04358  0.61230  1.0000
  H   H49       1.0  0.55061  0.18831  0.48850  1.0000
  H   H50       1.0  0.20450  0.08616  0.60041  1.0000
  H   H51       1.0  0.32191  0.13953  0.67074  1.0000
  H   H52       1.0  0.19257  0.14287  0.74509  1.0000
  H   H53       1.0  0.24415  0.19269  0.72166  1.0000
  C   C25       1.0  0.47060  0.01143  0.53866  1.0000
  C   C26       1.0  0.47147  0.98894  0.80376  1.0000
  C   C27       1.0  0.52062  0.02224  0.70573  1.0000
  H   H54       1.0  0.58290  0.18272  0.52898  1.0000
  H   H55       1.0  0.28582  0.06550  0.86597  1.0000
  H   H56       1.0  0.51393  0.12677  0.59383  1.0000
  H   H57       1.0  0.32251  0.10874  0.78445  1.0000
  C   C28       1.0  0.60727  0.95763  0.54482  1.0000
  Fe  Fe3       1.0  0.54116  0.15551  0.72654  1.0000
  H   H58       1.0  0.59239  0.14969  0.86423  1.0000
  H   H59       1.0  0.26249  0.13873  0.74699  1.0000
  C   C29       1.0  0.34462  0.16184  0.52256  1.0000
  H   H60       1.0  0.30156  0.04709  0.86046  1.0000
  H   H61       1.0  0.16670  0.14378  0.52945  1.0000
  H   H62       1.0  0.43456  0.00590  0.68517  1.0000
  H   H63       1.0  0.59933  0.03993  0.84961  1.0000
  H   H64       1.0  0.34656  0.13232  0.70215  1.0000
  H   H65       1.0  0.49277  0.02877  0.66442  1.0000
  C   C30       1.0  0.45923  0.99042  0.75970  1.0000
  C   C31       1.0  0.50340  0.15855  0.56662  1.0000
  C   C32       1.0  0.62345  0.95452  0.51709  1.0000
  H   H66       1.0  0.42755  0.98858  0.55486  1.0000
  C   C33       1.0  0.60792  0.12433  0.60497  1.0000
  C   C34       1.0  0.47016  0.09181  0.70690  1.0000
  S   S11       1.0  0.58104  0.16184  0.74254  1.0000
  C   C35       1.0  0.52271  0.12242  0.51369  1.0000
  H   H67       1.0  0.19724  0.13238  0.87203  1.0000
  H   H68       1.0  0.44381  0.19490  0.85482  1.0000
  C   C36       1.0  0.42811  0.07568  0.68580  1.0000
  H   H69       1.0  0.56222  0.17550  0.46066  1.0000
  H   H70       1.0  0.44000  0.10359  0.71052  1.0000
  H   H71       1.0  0.51491  0.18881  0.81881  1.0000
  C   C37       1.0  0.29520  0.01926  0.67478  1.0000
  H   H72       1.0  0.47001  0.10718  0.92676  1.0000
  H   H73       1.0  0.44917  0.06798  0.82879  1.0000
  H   H74       1.0  0.41058  0.07175  0.79580  1.0000
  H   H75       1.0  0.21663  0.11896  0.73654  1.0000
  C   C38       1.0  0.45339  0.18814  0.44258  1.0000
  C   C39       1.0  0.45146  0.97845  0.69667  1.0000
  C   C40       1.0  0.58386  0.01810  0.87614  1.0000
  H   H76       1.0  0.60730  0.05778  0.62947  1.0000
  H   H77       1.0  0.47252  0.04688  0.86462  1.0000
  H   H78       1.0  0.48838  0.06726  0.89081  1.0000
  C   C41       1.0  0.26416  0.04778  0.44027  1.0000
  H   H79       1.0  0.19835  0.16285  0.53528  1.0000
  H   H80       1.0  0.24071  0.10253  0.58706  1.0000
  C   C42       1.0  0.44466  0.18032  0.49190  1.0000
  H   H81       1.0  0.62253  0.13045  0.89219  1.0000
  H   H82       1.0  0.34906  0.97136  0.58428  1.0000
  C   C43       1.0  0.33241  0.12720  0.68077  1.0000
  H   H83       1.0  0.60078  0.06329  0.48846  1.0000
  C   C44       1.0  0.34142  0.10970  0.91736  1.0000
  H   H84       1.0  0.41810  0.03723  0.86154  1.0000
  C   C45       1.0  0.57637  0.01583  0.67508  1.0000
  H   H85       1.0  0.42191  0.02233  0.45151  1.0000
  C   C46       1.0  0.60811  0.16977  0.85694  1.0000
  S   S12       1.0  0.15242  0.06083  0.67333  1.0000
  H   H86       1.0  0.28225  0.18041  0.48177  1.0000
  H   H87       1.0  0.33711  0.14165  0.55835  1.0000
  C   C47       1.0  0.33419  0.08456  0.44429  1.0000
  H   H88       1.0  0.24072  0.99735  0.59082  1.0000
  H   H89       1.0  0.32005  0.07519  0.86664  1.0000
  C   C48       1.0  0.16738  0.02593  0.61417  1.0000
  H   H90       1.0  0.46669  0.05096  0.66543  1.0000
  Fe  Fe4       1.0  0.39783  0.08066  0.60163  1.0000
  Fe  Fe5       1.0  0.42699  0.12206  0.49055  1.0000
  C   C49       1.0  0.19499  0.12928  0.52738  1.0000
  C   C50       1.0  0.60185  0.19210  0.81888  1.0000
  C   C51       1.0  0.47749  0.96228  0.75187  1.0000
  H   H91       1.0  0.52756  0.00722  0.72708  1.0000
  Fe  Fe6       1.0  0.34848  0.18767  0.81514  1.0000
  C   C52       1.0  0.25924  0.14761  0.71017  1.0000
  C   C53       1.0  0.44047  0.03052  0.53024  1.0000
  Fe  Fe7       1.0  0.36682  0.08378  0.52355  1.0000
  H   H92       1.0  0.24696  0.18226  0.57944  1.0000
  H   H93       1.0  0.20951  0.04841  0.51354  1.0000
  N   N3        1.0  0.47144  0.98572  0.72470  1.0000
  H   H94       1.0  0.59126  0.00618  0.86901  1.0000
  S   S13       1.0  0.52032  0.10996  0.78113  1.0000
  C   C54       1.0  0.58529  0.01201  0.92917  1.0000
  H   H95       1.0  0.50864  0.01527  0.85857  1.0000
  H   H96       1.0  0.51850  0.04425  0.86314  1.0000
  C   C55       1.0  0.18107  0.15426  0.73300  1.0000
  H   H97       1.0  0.44161  0.16086  0.52299  1.0000
  H   H98       1.0  0.56772  0.05435  0.84339  1.0000
  H   H99       1.0  0.56411  0.01821  0.64930  1.0000
  C   C56       1.0  0.46266  0.05634  0.51123  1.0000
  H   H100      1.0  0.50602  0.07982  0.48939  1.0000
  H   H101      1.0  0.58725  0.10647  0.62348  1.0000
  H   H102      1.0  0.42872  0.09684  0.81013  1.0000
  Fe  Fe8       1.0  0.56110  0.11620  0.79185  1.0000
  C   C57       1.0  0.45088  0.08406  0.89306  1.0000
  Fe  Fe9       1.0  0.53315  0.10846  0.71594  1.0000
  C   C58       1.0  0.22867  0.00381  0.91960  1.0000
  H   H103      1.0  0.36695  0.96672  0.72695  1.0000
  C   C59       1.0  0.31008  0.14392  0.45328  1.0000
  H   H104      1.0  0.55693  0.14945  0.57290  1.0000
  H   H105      1.0  0.57997  0.18487  0.83071  1.0000
  C   C60       1.0  0.47762  0.07683  0.69436  1.0000
  C   C61       1.0  0.19237  0.17801  0.74156  1.0000
  S   S14       1.0  0.50853  0.07739  0.69853  1.0000
  H   H106      1.0  0.49183  0.14896  0.60558  1.0000
  H   H107      1.0  0.24923  0.06173  0.83160  1.0000
  C   C62       1.0  0.31217  0.09625  0.70856  1.0000
  H   H108      1.0  0.21290  0.95948  0.66279  1.0000
  C   C63       1.0  0.18877  0.15265  0.51550  1.0000
  S   S15       1.0  0.52550  0.04177  0.51740  1.0000
  H   H109      1.0  0.50359  0.11046  0.50804  1.0000
  Fe  Fe10      1.0  0.31818  0.18684  0.73734  1.0000
  H   H110      1.0  0.24223  0.05148  0.75809  1.0000
  H   H111      1.0  0.62023  0.95825  0.72286  1.0000
  C   C64       1.0  0.56782  0.99035  0.71925  1.0000
  C   C65       1.0  0.36339  0.16375  0.48337  1.0000
  H   H112      1.0  0.56043  0.03632  0.46730  1.0000
  C   C66       1.0  0.25717  0.04483  0.75602  1.0000
  C   C67       1.0  0.60657  0.01090  0.74477  1.0000
  H   H113      1.0  0.56904  0.17657  0.91254  1.0000
  C   C68       1.0  0.58095  0.04999  0.44105  1.0000
  S   S16       1.0  0.40751  0.02545  0.53910  1.0000
  H   H114      1.0  0.30080  0.98666  0.54528  1.0000
  H   H115      1.0  0.45995  0.01865  0.63044  1.0000
  H   H116      1.0  0.45928  0.97368  0.67194  1.0000
  C   C69       1.0  0.22537  0.02386  0.51001  1.0000
  H   H117      1.0  0.33497  0.13807  0.92509  1.0000
  H   H118      1.0  0.26128  0.95998  0.70745  1.0000
  H   H119      1.0  0.60429  0.16875  0.89240  1.0000
  H   H120      1.0  0.30724  0.13101  0.49415  1.0000
  C   C70       1.0  0.25775  0.08402  0.80595  1.0000
  H   H121      1.0  0.60594  0.19644  0.78055  1.0000
  H   H122      1.0  0.39995  0.14077  0.91824  1.0000
  H   H123      1.0  0.42240  0.04886  0.65998  1.0000
  H   H124      1.0  0.24498  0.11846  0.49646  1.0000
  C   C71       1.0  0.50861  0.15717  0.47335  1.0000
  S   S17       1.0  0.56391  0.00387  0.58202  1.0000
  C   C72       1.0  0.22579  0.11284  0.51936  1.0000
  H   H125      1.0  0.48012  0.03212  0.92300  1.0000
  S   S18       1.0  0.49825  0.96625  0.62916  1.0000
  C   C73       1.0  0.44452  0.00826  0.54244  1.0000
  S   S19       1.0  0.39828  0.07658  0.67564  1.0000
  H   H126      1.0  0.26791  0.09759  0.72765  1.0000
  H   H127      1.0  0.19230  0.11532  0.83973  1.0000
  H   H128      1.0  0.53202  0.04991  0.80608  1.0000
  H   H129      1.0  0.49026  0.98771  0.80292  1.0000
  S   S20       1.0  0.19689  0.13499  0.64751  1.0000
  Fe  Fe11      1.0  0.16276  0.04293  0.80444  1.0000
  H   H130      1.0  0.15958  0.13991  0.75485  1.0000
  S   S21       1.0  0.14095  0.06640  0.76788  1.0000
  H   H131      1.0  0.15161  0.03275  0.54995  1.0000
  S   S22       1.0  0.56639  0.09501  0.86846  1.0000
  H   H132      1.0  0.47361  0.99410  0.54889  1.0000
  H   H133      1.0  0.25838  0.96888  0.59974  1.0000
  H   H134      1.0  0.51602  0.02968  0.72810  1.0000
  H   H135      1.0  0.30387  0.15960  0.44389  1.0000
  C   C74       1.0  0.55059  0.16920  0.49704  1.0000
  H   H136      1.0  0.20980  0.10035  0.50883  1.0000
  H   H137      1.0  0.51530  0.98028  0.89678  1.0000
  C   C75       1.0  0.55793  0.01623  0.81582  1.0000
  H   H138      1.0  0.52334  0.17525  0.55963  1.0000
  C   C76       1.0  0.27657  0.18172  0.62093  1.0000
  Fe  Fe12      1.0  0.52735  0.00251  0.55545  1.0000
  H   H139      1.0  0.39227  0.15028  0.44023  1.0000
  C   C77       1.0  0.46049  0.06159  0.67704  1.0000
  H   H140      1.0  0.39919  0.05874  0.92765  1.0000
  C   C78       1.0  0.49273  0.03714  0.52077  1.0000
  C   C79       1.0  0.18366  0.11326  0.87407  1.0000
  H   H141      1.0  0.27480  0.14506  0.51744  1.0000
  H   H142      1.0  0.32848  0.10898  0.89169  1.0000
  H   H143      1.0  0.24580  0.02213  0.77596  1.0000
  H   H144      1.0  0.23981  0.01370  0.65549  1.0000
  H   H145      1.0  0.53910  0.12980  0.48217  1.0000
  C   C80       1.0  0.16515  0.98048  0.61797  1.0000
  H   H146      1.0  0.34489  0.13379  0.64489  1.0000
  Fe  Fe13      1.0  0.56170  0.97566  0.55843  1.0000
  H   H147      1.0  0.60910  0.10891  0.79177  1.0000
  H   H148      1.0  0.38433  0.17517  0.48425  1.0000
  H   H149      1.0  0.26816  0.04091  0.82224  1.0000
  C   C81       1.0  0.34349  0.06740  0.44474  1.0000
  S   S23       1.0  0.31425  0.18109  0.67308  1.0000
  S   S24       1.0  0.24952  0.14355  0.89656  1.0000
  H   H150      1.0  0.50916  0.17589  0.46821  1.0000
  C   C82       1.0  0.44536  0.09124  0.70258  1.0000
  H   H151      1.0  0.61718  0.00029  0.66583  1.0000
  Fe  Fe14      1.0  0.28848  0.16900  0.83803  1.0000
  H   H152      1.0  0.49198  0.16701  0.54159  1.0000
  H   H153      1.0  0.17508  0.07155  0.91304  1.0000
  C   C83       1.0  0.60003  0.07867  0.91779  1.0000
  C   C84       1.0  0.15685  0.99708  0.58059  1.0000
  H   H154      1.0  0.30806  0.03189  0.59804  1.0000
  N   N4        1.0  0.43295  0.05567  0.90435  1.0000
  S   S25       1.0  0.59845  0.98349  0.51311  1.0000
  C   C85       1.0  0.30454  0.06761  0.84929  1.0000
  H   H155      1.0  0.28195  0.02834  0.67141  1.0000
  H   H156      1.0  0.34715  0.05423  0.47844  1.0000
  C   C86       1.0  0.24098  0.15169  0.53145  1.0000
  C   C87       1.0  0.50595  0.13651  0.56244  1.0000
  H   H157      1.0  0.24009  0.08690  0.79655  1.0000
  C   C88       1.0  0.23382  0.15811  0.45131  1.0000
  C   C89       1.0  0.47314  0.04687  0.89950  1.0000
  C   C90       1.0  0.23329  0.13653  0.70426  1.0000
  H   H158      1.0  0.29627  0.01525  0.52942  1.0000
  S   S26       1.0  0.19748  0.06757  0.73637  1.0000
  S   S27       1.0  0.14065  0.01062  0.78847  1.0000
  C   C91       1.0  0.27855  0.09640  0.75731  1.0000
  C   C92       1.0  0.29670  0.01215  0.63514  1.0000
  H   H159      1.0  0.48691  0.14181  0.48574  1.0000
  C   C93       1.0  0.56824  0.16335  0.53286  1.0000
  H   H160      1.0  0.43696  0.19616  0.79920  1.0000
  C   C94       1.0  0.59590  0.07244  0.45218  1.0000
  H   H161      1.0  0.18137  0.16096  0.69355  1.0000
  H   H162      1.0  0.29156  0.11830  0.74410  1.0000
  Fe  Fe15      1.0  0.17439  0.08920  0.69850  1.0000
  H   H163      1.0  0.25739  0.10024  0.90429  1.0000
  H   H164      1.0  0.45649  0.97123  0.84025  1.0000
  H   H165      1.0  0.18130  0.11706  0.51370  1.0000
  N   N5        1.0  0.29562  0.08303  0.76100  1.0000
  H   H166      1.0  0.53799  0.04032  0.67303  1.0000
  H   H167      1.0  0.42709  0.99141  0.64825  1.0000
  H   H168      1.0  0.23318  0.02847  0.59736  1.0000
  C   C95       1.0  0.19687  0.01112  0.87147  1.0000
  H   H169      1.0  0.33321  0.08714  0.78040  1.0000
  H   H170      1.0  0.58295  0.08076  0.45638  1.0000
  H   H171      1.0  0.47606  0.00757  0.80401  1.0000
  N   N6        1.0  0.55672  0.01307  0.86617  1.0000
  C   C96       1.0  0.27894  0.05277  0.78204  1.0000
  C   C97       1.0  0.43566  0.06078  0.67323  1.0000
  H   H172      1.0  0.45975  0.07385  0.49963  1.0000
  H   H173      1.0  0.59946  0.04941  0.77091  1.0000
  C   C98       1.0  0.22888  0.14857  0.65678  1.0000
  H   H174      1.0  0.61514  0.95860  0.79698  1.0000
  C   C99       1.0  0.45309  0.19932  0.81844  1.0000
  H   H175      1.0  0.53779  0.01089  0.80853  1.0000
  H   H176      1.0  0.51896  0.18279  0.63509  1.0000
  C   C100      1.0  0.44515  0.03730  0.92932  1.0000
  H   H177      1.0  0.48366  0.10422  0.71898  1.0000
  H   H178      1.0  0.20006  0.17078  0.77504  1.0000
  C   C101      1.0  0.25137  0.97145  0.68346  1.0000
  S   S28       1.0  0.24467  0.99210  0.50653  1.0000
  H   H179      1.0  0.25429  0.16236  0.43644  1.0000
  C   C102      1.0  0.24316  0.07234  0.44838  1.0000
  H   H180      1.0  0.57597  0.96824  0.78912  1.0000
  H   H181      1.0  0.57947  0.15485  0.52342  1.0000
  S   S29       1.0  0.40112  0.09332  0.46921  1.0000
  H   H182      1.0  0.14154  0.02575  0.44163  1.0000
  S   S30       1.0  0.36887  0.04891  0.58922  1.0000
  C   C103      1.0  0.61571  0.03606  0.69925  1.0000
  H   H183      1.0  0.29226  0.04410  0.78110  1.0000
  H   H184      1.0  0.18612  0.00859  0.84501  1.0000
  H   H185      1.0  0.19474  0.16822  0.47477  1.0000
  S   S31       1.0  0.33069  0.08525  0.49853  1.0000
  H   H186      1.0  0.28148  0.96422  0.63578  1.0000
  C   C104      1.0  0.41528  0.07460  0.82705  1.0000
  H   H187      1.0  0.26580  0.05265  0.71652  1.0000
  Fe  Fe16      1.0  0.26367  0.99247  0.44404  1.0000
  H   H188      1.0  0.57585  0.04515  0.73536  1.0000
  C   C105      1.0  0.22487  0.04836  0.49311  1.0000
  H   H189      1.0  0.28873  0.00103  0.71344  1.0000
  H   H190      1.0  0.57531  0.06139  0.76717  1.0000
  H   H191      1.0  0.59028  0.03656  0.45344  1.0000
  Fe  Fe17      1.0  0.17327  0.03746  0.71639  1.0000
  C   C106      1.0  0.18260  0.08797  0.92054  1.0000
  C   C107      1.0  0.44314  0.00015  0.66356  1.0000
  C   C108      1.0  0.60050  0.03845  0.66455  1.0000
  H   H192      1.0  0.46014  0.01075  0.73826  1.0000
  C   C109      1.0  0.57838  0.04479  0.77026  1.0000
  N   N7        1.0  0.27047  0.99378  0.63177  1.0000
  S   S32       1.0  0.32341  0.19918  0.84516  1.0000
  S   S33       1.0  0.14499  0.98966  0.53606  1.0000
  C   C110      1.0  0.42934  0.05787  0.85563  1.0000
  H   H193      1.0  0.31954  0.00864  0.56555  1.0000
  H   H194      1.0  0.39593  0.06802  0.85055  1.0000
  C   C111      1.0  0.55017  0.03350  0.86689  1.0000
  C   C112      1.0  0.17667  0.00993  0.65032  1.0000
  C   C113      1.0  0.53494  0.98458  0.90584  1.0000
  C   C114      1.0  0.25815  0.01021  0.59819  1.0000
  H   H195      1.0  0.36928  0.97043  0.64796  1.0000
  C   C115      1.0  0.24505  0.02346  0.48389  1.0000
  S   S34       1.0  0.19126  0.01845  0.69204  1.0000
  S   S35       1.0  0.52761  0.97749  0.52498  1.0000
  H   H196      1.0  0.23642  0.17832  0.44141  1.0000
  H   H197      1.0  0.36200  0.12605  0.89283  1.0000
  H   H198      1.0  0.49352  0.96643  0.77058  1.0000
  H   H199      1.0  0.45985  0.18426  0.82506  1.0000
  Fe  Fe18      1.0  0.53477  0.96613  0.65478  1.0000
  H   H200      1.0  0.14386  0.06277  0.43851  1.0000
  H   H201      1.0  0.24610  0.97982  0.70325  1.0000
  H   H202      1.0  0.29614  0.12987  0.44311  1.0000
  C   C116      1.0  0.35054  0.95497  0.58267  1.0000
  H   H203      1.0  0.60640  0.01753  0.93115  1.0000
  H   H204      1.0  0.43316  0.19160  0.53946  1.0000
  C   C117      1.0  0.44001  0.19778  0.50119  1.0000
  C   C118      1.0  0.54852  0.16544  0.93489  1.0000
  H   H205      1.0  0.17751  0.07146  0.44637  1.0000
  C   C119      1.0  0.53517  0.17978  0.93369  1.0000
  H   H206      1.0  0.37093  0.02288  0.91918  1.0000
  H   H207      1.0  0.20374  0.09252  0.92087  1.0000
  H   H208      1.0  0.29325  0.19898  0.58841  1.0000
  H   H209      1.0  0.18806  0.04394  0.43866  1.0000
  H   H210      1.0  0.12518  0.97434  0.90674  1.0000
  H   H211      1.0  0.49198  0.19702  0.86468  1.0000
  H   H212      1.0  0.28616  0.05945  0.25526  1.0000
  H   H213      1.0  0.21434  0.10526  0.28120  1.0000
  H   H214      1.0  0.31680  0.13165  0.11030  1.0000
  C   C120      1.0  0.50886  0.16553  0.96398  1.0000
  N   N8        1.0  0.42433  0.98099  0.23375  1.0000
  S   S36       1.0  0.58351  0.16302  0.39330  1.0000
  H   H215      1.0  0.24136  0.04030  0.24737  1.0000
  C   C121      1.0  0.60215  0.04503  0.11624  1.0000
  C   C122      1.0  0.36980  0.19389  0.09063  1.0000
  N   N9        1.0  0.57923  0.06026  0.38781  1.0000
  C   C123      1.0  0.15799  0.02889  0.01348  1.0000
  C   C124      1.0  0.39391  0.16477  0.40091  1.0000
  S   S37       1.0  0.60116  0.11203  0.20522  1.0000
  H   H216      1.0  0.18345  0.10708  0.14990  1.0000
  C   C125      1.0  0.12671  0.96221  0.01202  1.0000
  H   H217      1.0  0.54296  0.06147  0.40665  1.0000
  H   H218      1.0  0.16852  0.09758  0.41273  1.0000
  H   H219      1.0  0.17893  0.00659  0.42929  1.0000
  H   H220      1.0  0.27680  0.09049  0.38704  1.0000
  C   C126      1.0  0.57603  0.14396  0.06234  1.0000
  H   H221      1.0  0.40886  0.07775  0.00521  1.0000
  C   C127      1.0  0.24810  0.09015  0.03544  1.0000
  H   H222      1.0  0.23593  0.06652  0.24200  1.0000
  H   H223      1.0  0.56932  0.00963  0.09571  1.0000
  C   C128      1.0  0.52194  0.96339  0.07001  1.0000
  S   S38       1.0  0.49704  0.05436  0.09159  1.0000
  C   C129      1.0  0.43289  0.01058  0.19494  1.0000
  C   C130      1.0  0.19364  0.12109  0.16144  1.0000
  S   S39       1.0  0.57057  0.19630  0.28678  1.0000
  C   C131      1.0  0.17981  0.06332  0.31996  1.0000
  S   S40       1.0  0.22960  0.98424  0.30482  1.0000
  H   H224      1.0  0.26220  0.07382  0.29079  1.0000
  C   C132      1.0  0.19970  0.98358  0.32190  1.0000
  S   S41       1.0  0.28710  0.97446  0.04335  1.0000
  Fe  Fe19      1.0  0.42666  0.10388  0.13599  1.0000
  H   H225      1.0  0.13569  0.01788  0.02665  1.0000
  H   H226      1.0  0.62505  0.17350  0.14269  1.0000
  C   C133      1.0  0.37626  0.14806  0.21533  1.0000
  C   C134      1.0  0.39481  0.05005  0.13120  1.0000
  C   C135      1.0  0.59007  0.99415  0.30702  1.0000
  H   H227      1.0  0.56386  0.18388  0.00580  1.0000
  H   H228      1.0  0.26407  0.11299  0.18036  1.0000
  C   C136      1.0  0.41666  0.16206  0.29034  1.0000
  H   H229      1.0  0.42256  0.97092  0.17721  1.0000
  C   C137      1.0  0.20898  0.08506  0.28723  1.0000
  C   C138      1.0  0.25504  0.07492  0.98216  1.0000
  H   H230      1.0  0.57735  0.10203  0.29579  1.0000
  Fe  Fe20      1.0  0.25752  0.99016  0.35166  1.0000
  H   H231      1.0  0.26661  0.11066  0.12741  1.0000
  H   H232      1.0  0.25288  0.96283  0.20629  1.0000
  H   H233      1.0  0.33971  0.00455  0.12210  1.0000
  H   H234      1.0  0.38242  0.15172  0.17811  1.0000
  H   H235      1.0  0.42655  0.18296  0.14568  1.0000
  S   S42       1.0  0.29103  0.17603  0.34210  1.0000
  H   H236      1.0  0.61366  0.10091  0.33935  1.0000
  C   C139      1.0  0.14896  0.95986  0.15457  1.0000
  S   S43       1.0  0.23537  0.98178  0.06779  1.0000
  H   H237      1.0  0.49418  0.18681  0.25056  1.0000
  H   H238      1.0  0.42863  0.15277  0.31175  1.0000
  H   H239      1.0  0.43419  0.04103  0.32391  1.0000
  H   H240      1.0  0.59277  0.18689  0.10331  1.0000
  C   C140      1.0  0.15172  0.98360  0.34538  1.0000
  C   C141      1.0  0.34194  0.08278  0.35880  1.0000
  S   S44       1.0  0.48090  0.17699  0.17448  1.0000
  H   H241      1.0  0.35362  0.05255  0.40361  1.0000
  Fe  Fe21      1.0  0.60630  0.19902  0.24902  1.0000
  C   C142      1.0  0.39042  0.12547  0.95915  1.0000
  Fe  Fe22      1.0  0.27320  0.19577  0.28231  1.0000
  H   H242      1.0  0.15962  0.04986  0.04888  1.0000
  C   C143      1.0  0.33347  0.10070  0.35749  1.0000
  S   S45       1.0  0.26664  0.02309  0.36607  1.0000
  H   H243      1.0  0.56661  0.96710  0.23218  1.0000
  S   S46       1.0  0.26864  0.16069  0.16886  1.0000
  C   C144      1.0  0.40741  0.95922  0.03888  1.0000
  N   N10       1.0  0.58931  0.17235  0.05283  1.0000
  H   H244      1.0  0.43490  0.08487  0.24600  1.0000
  C   C145      1.0  0.38665  0.17509  0.21316  1.0000
  H   H245      1.0  0.22384  0.07869  0.30282  1.0000
  H   H246      1.0  0.57845  0.98971  0.05347  1.0000
  H   H247      1.0  0.38286  0.13414  0.24291  1.0000
  C   C146      1.0  0.19210  0.14593  0.19860  1.0000
  S   S47       1.0  0.45276  0.18181  0.06544  1.0000
  H   H248      1.0  0.56178  0.99588  0.19639  1.0000
  C   C147      1.0  0.37180  0.13253  0.97960  1.0000
  H   H249      1.0  0.22482  0.07723  0.15979  1.0000
  Fe  Fe23      1.0  0.41020  0.14820  0.09386  1.0000
  H   H250      1.0  0.38051  0.10483  0.96555  1.0000
  H   H251      1.0  0.20019  0.97126  0.39817  1.0000
  H   H252      1.0  0.49812  0.10055  0.01617  1.0000
  C   C148      1.0  0.23474  0.15040  0.16962  1.0000
  C   C149      1.0  0.16986  0.05584  0.01181  1.0000
  H   H253      1.0  0.46246  0.98648  0.20439  1.0000
  H   H254      1.0  0.54338  0.02221  0.41134  1.0000
  C   C150      1.0  0.14600  0.03232  0.40165  1.0000
  H   H255      1.0  0.58430  0.97433  0.11358  1.0000
  H   H256      1.0  0.32157  0.11427  0.40005  1.0000
  H   H257      1.0  0.14514  0.98081  0.98224  1.0000
  C   C151      1.0  0.40918  0.06780  0.08045  1.0000
  C   C152      1.0  0.60650  0.07954  0.34974  1.0000
  C   C153      1.0  0.16222  0.99094  0.29714  1.0000
  H   H258      1.0  0.38435  0.04858  0.36595  1.0000
  H   H259      1.0  0.13509  0.08971  0.95512  1.0000
  C   C154      1.0  0.41971  0.06911  0.28315  1.0000
  Fe  Fe24      1.0  0.45809  0.15490  0.13885  1.0000
  S   S48       1.0  0.29373  0.14324  0.29020  1.0000
  H   H260      1.0  0.24453  0.12685  0.99921  1.0000
  C   C155      1.0  0.34542  0.07794  0.07801  1.0000
  H   H261      1.0  0.44680  0.03425  0.96655  1.0000
  H   H262      1.0  0.57430  0.99651  0.32046  1.0000
  H   H263      1.0  0.34040  0.07532  0.01415  1.0000
  C   C156      1.0  0.40587  0.97108  0.28177  1.0000
  H   H264      1.0  0.26692  0.96776  0.29584  1.0000
  H   H265      1.0  0.61070  0.00674  0.18875  1.0000
  C   C157      1.0  0.40921  0.96444  0.21227  1.0000
  H   H266      1.0  0.46920  0.03134  0.21417  1.0000
  C   C158      1.0  0.25203  0.07151  0.02928  1.0000
  H   H267      1.0  0.27561  0.07886  0.12620  1.0000
  N   N11       1.0  0.60742  0.02455  0.11274  1.0000
  H   H268      1.0  0.43668  0.10831  0.30785  1.0000
  H   H269      1.0  0.50798  0.17216  0.39551  1.0000
  H   H270      1.0  0.31571  0.14946  0.96583  1.0000
  H   H271      1.0  0.22944  0.04965  0.16522  1.0000
  H   H272      1.0  0.20404  0.04322  0.21037  1.0000
  H   H273      1.0  0.55726  0.97293  0.17593  1.0000
  H   H274      1.0  0.12555  0.05868  0.01347  1.0000
  H   H275      1.0  0.41514  0.01363  0.18794  1.0000
  C   C159      1.0  0.12941  0.99616  0.13683  1.0000
  H   H276      1.0  0.45696  0.05272  0.17274  1.0000
  C   C160      1.0  0.22497  0.05790  0.18612  1.0000
  Fe  Fe25      1.0  0.47139  0.02655  0.06798  1.0000
  S   S49       1.0  0.55387  0.11974  0.97049  1.0000
  H   H277      1.0  0.43990  0.99456  0.30343  1.0000
  H   H278      1.0  0.60236  0.12820  0.10092  1.0000
  C   C161      1.0  0.38160  0.97830  0.07570  1.0000
  H   H279      1.0  0.16688  0.07127  0.29881  1.0000
  H   H280      1.0  0.35917  0.01281  0.18555  1.0000
  S   S50       1.0  0.23894  0.10130  0.42568  1.0000
  C   C162      1.0  0.32562  0.96903  0.29151  1.0000
  C   C163      1.0  0.39246  0.03562  0.39135  1.0000
  C   C164      1.0  0.28921  0.08048  0.22960  1.0000
  N   N12       1.0  0.17363  0.05683  0.37259  1.0000
  C   C165      1.0  0.25126  0.11624  0.94705  1.0000
  C   C166      1.0  0.54285  0.16682  0.08028  1.0000
  C   C167      1.0  0.16558  0.07768  0.42008  1.0000
  H   H281      1.0  0.47567  0.07886  0.94622  1.0000
  C   C168      1.0  0.37267  0.04099  0.05939  1.0000
  C   C169      1.0  0.17878  0.12701  0.18544  1.0000
  H   H282      1.0  0.54924  0.09856  0.18491  1.0000
  H   H283      1.0  0.40834  0.03780  0.97831  1.0000
  S   S51       1.0  0.42807  0.01581  0.07501  1.0000
  C   C170      1.0  0.42899  0.17612  0.23377  1.0000
  C   C171      1.0  0.28242  0.08914  0.26379  1.0000
  C   C172      1.0  0.24398  0.06088  0.21944  1.0000
  H   H284      1.0  0.38753  0.98594  0.16862  1.0000
  C   C173      1.0  0.37848  0.00835  0.39401  1.0000
  H   H285      1.0  0.61219  0.00041  0.05691  1.0000
  C   C174      1.0  0.42236  0.97885  0.04988  1.0000
  H   H286      1.0  0.31129  0.09334  0.21088  1.0000
  H   H287      1.0  0.40887  0.07874  0.28918  1.0000
  H   H288      1.0  0.60901  0.07403  0.03525  1.0000
  H   H289      1.0  0.37845  0.13428  0.01108  1.0000
  H   H290      1.0  0.30857  0.10382  0.96423  1.0000
  H   H291      1.0  0.17444  0.08474  0.05826  1.0000
  H   H292      1.0  0.42776  0.15992  0.22792  1.0000
  H   H293      1.0  0.56136  0.99883  0.39490  1.0000
  H   H294      1.0  0.45569  0.08511  0.37134  1.0000
  Fe  Fe26      1.0  0.26515  0.02045  0.06073  1.0000
  C   C175      1.0  0.57688  0.01853  0.38882  1.0000
  H   H295      1.0  0.60627  0.98586  0.16516  1.0000
  C   C176      1.0  0.43429  0.05869  0.32309  1.0000
  H   H296      1.0  0.39189  0.97985  0.27312  1.0000
  H   H297      1.0  0.30904  0.19829  0.02844  1.0000
  H   H298      1.0  0.55965  0.04274  0.34594  1.0000
  H   H299      1.0  0.30621  0.10573  0.04029  1.0000
  H   H300      1.0  0.20386  0.03847  0.94234  1.0000
  S   S52       1.0  0.47085  0.13378  0.11172  1.0000
  C   C177      1.0  0.35898  0.02225  0.11046  1.0000
  H   H301      1.0  0.62045  0.03620  0.27462  1.0000
  H   H302      1.0  0.53007  0.14669  0.08521  1.0000
  H   H303      1.0  0.31461  0.13582  0.16240  1.0000
  C   C178      1.0  0.59408  0.13072  0.06855  1.0000
  C   C179      1.0  0.37009  0.02677  0.14638  1.0000
  H   H304      1.0  0.60868  0.04704  0.14758  1.0000
  C   C180      1.0  0.24768  0.11249  0.99434  1.0000
  S   S53       1.0  0.15462  0.04871  0.23250  1.0000
  C   C181      1.0  0.33899  0.15650  0.42317  1.0000
  H   H305      1.0  0.21171  0.12917  0.42885  1.0000
  H   H306      1.0  0.18562  0.98989  0.15463  1.0000
  Fe  Fe27      1.0  0.46307  0.15903  0.03982  1.0000
  H   H307      1.0  0.54106  0.18217  0.40233  1.0000
  H   H308      1.0  0.51777  0.05921  0.18030  1.0000
  H   H309      1.0  0.41738  0.17675  0.29988  1.0000
  H   H310      1.0  0.30373  0.15279  0.10970  1.0000
  H   H311      1.0  0.54779  0.09926  0.32314  1.0000
  H   H312      1.0  0.56689  0.14377  0.03175  1.0000
  Fe  Fe28      1.0  0.31951  0.18385  0.28014  1.0000
  C   C182      1.0  0.49553  0.13692  0.99387  1.0000
  H   H313      1.0  0.47502  0.12583  0.01674  1.0000
  C   C183      1.0  0.40952  0.98888  0.06707  1.0000
  C   C184      1.0  0.56357  0.03607  0.38335  1.0000
  H   H314      1.0  0.38488  0.03116  0.42905  1.0000
  H   H315      1.0  0.43399  0.11249  0.35869  1.0000
  Fe  Fe29      1.0  0.30970  0.03309  0.34909  1.0000
  H   H316      1.0  0.35402  0.17783  0.12517  1.0000
  H   H317      1.0  0.21078  0.08793  0.24972  1.0000
  C   C185      1.0  0.60465  0.96590  0.29684  1.0000
  H   H318      1.0  0.28393  0.10968  0.24255  1.0000
  C   C186      1.0  0.56330  0.03812  0.22354  1.0000
  H   H319      1.0  0.14563  0.08807  0.03825  1.0000
  H   H320      1.0  0.33980  0.08480  0.10051  1.0000
  H   H321      1.0  0.31187  0.07109  0.04595  1.0000
  C   C187      1.0  0.22169  0.13304  0.15301  1.0000
  Fe  Fe30      1.0  0.26382  0.13711  0.34789  1.0000
  H   H322      1.0  0.59714  0.03446  0.04234  1.0000
  H   H323      1.0  0.30625  0.08807  0.14301  1.0000
  H   H324      1.0  0.37170  0.98632  0.08833  1.0000
  Fe  Fe31      1.0  0.51237  0.02465  0.12802  1.0000
  Fe  Fe32      1.0  0.52848  0.07388  0.02137  1.0000
  C   C188      1.0  0.27567  0.10923  0.15890  1.0000
  S   S54       1.0  0.34176  0.07686  0.31040  1.0000
  H   H325      1.0  0.59985  0.06174  0.23434  1.0000
  S   S55       1.0  0.41999  0.12769  0.06175  1.0000
  H   H326      1.0  0.46178  0.98951  0.25619  1.0000
  H   H327      1.0  0.45575  0.07478  0.30828  1.0000
  H   H328      1.0  0.59233  0.02868  0.35357  1.0000
  H   H329      1.0  0.14502  0.01437  0.40256  1.0000
  S   S56       1.0  0.41449  0.12289  0.16964  1.0000
  C   C189      1.0  0.57679  0.08282  0.20911  1.0000
  C   C190      1.0  0.62434  0.17735  0.10470  1.0000
  H   H330      1.0  0.33932  0.16570  0.38281  1.0000
  H   H331      1.0  0.23031  0.17214  0.20106  1.0000
  S   S57       1.0  0.14353  0.10966  0.20220  1.0000
  H   H332      1.0  0.38106  0.15334  0.38530  1.0000
  C   C191      1.0  0.56308  0.07516  0.37837  1.0000
  C   C192      1.0  0.27284  0.96700  0.26335  1.0000
  H   H333      1.0  0.28876  0.04298  0.15726  1.0000
  H   H334      1.0  0.33696  0.05544  0.10333  1.0000
  S   S58       1.0  0.25106  0.95819  0.43130  1.0000
  C   C193      1.0  0.27906  0.04495  0.18480  1.0000
  C   C194      1.0  0.33085  0.11668  0.95109  1.0000
  H   H335      1.0  0.33305  0.97246  0.32093  1.0000
  N   N13       1.0  0.34187  0.11370  0.99545  1.0000
  S   S59       1.0  0.51881  0.00974  0.20430  1.0000
  Fe  Fe33      1.0  0.26444  0.99531  0.99969  1.0000
  H   H336      1.0  0.16448  0.03159  0.97750  1.0000
  H   H337      1.0  0.21398  0.06854  0.38164  1.0000
  H   H338      1.0  0.31236  0.96940  0.21167  1.0000
  H   H339      1.0  0.58131  0.15137  0.13439  1.0000
  C   C195      1.0  0.13748  0.07102  0.97354  1.0000
  H   H340      1.0  0.16358  0.08975  0.34419  1.0000
  C   C196      1.0  0.52049  0.95936  0.11772  1.0000
  H   H341      1.0  0.57321  0.09277  0.38278  1.0000
  S   S60       1.0  0.30122  0.00304  0.32679  1.0000
  H   H342      1.0  0.36761  0.08702  0.06689  1.0000
  Fe  Fe34      1.0  0.27566  0.16550  0.23380  1.0000
  C   C197      1.0  0.41934  0.97696  0.31962  1.0000
  S   S61       1.0  0.52733  0.99454  0.01716  1.0000
  C   C198      1.0  0.30450  0.13353  0.13421  1.0000
  H   H343      1.0  0.32882  0.11299  0.32431  1.0000
  H   H344      1.0  0.18071  0.15094  0.21626  1.0000
  Fe  Fe35      1.0  0.51689  0.01819  0.04066  1.0000
  C   C199      1.0  0.25026  0.96599  0.23665  1.0000
  H   H345      1.0  0.61057  0.14216  0.03408  1.0000
  H   H346      1.0  0.28006  0.04791  0.42086  1.0000
  H   H347      1.0  0.43878  0.03038  0.23721  1.0000
  C   C200      1.0  0.48966  0.15884  0.22805  1.0000
  H   H348      1.0  0.58156  0.10983  0.07623  1.0000
  H   H349      1.0  0.25730  0.03012  0.19699  1.0000
  H   H350      1.0  0.55883  0.12948  0.09681  1.0000
  C   C201      1.0  0.53542  0.05954  0.19291  1.0000
  C   C202      1.0  0.55326  0.08182  0.19523  1.0000
  H   H351      1.0  0.33664  0.12136  0.05354  1.0000
  C   C203      1.0  0.59980  0.00011  0.16505  1.0000
  C   C204      1.0  0.50044  0.12301  0.28133  1.0000
  C   C205      1.0  0.39808  0.06338  0.04456  1.0000
  H   H352      1.0  0.50321  0.10587  0.28893  1.0000
  H   H353      1.0  0.51889  0.14725  0.41990  1.0000
  C   C206      1.0  0.16529  0.97613  0.38189  1.0000
  H   H354      1.0  0.40573  0.05245  0.27865  1.0000
  N   N14       1.0  0.16677  0.07899  0.97036  1.0000
  Fe  Fe36      1.0  0.12939  0.06933  0.21023  1.0000
  C   C207      1.0  0.16787  0.09747  0.02773  1.0000
  H   H355      1.0  0.54565  0.16371  0.11701  1.0000
  H   H356      1.0  0.15717  0.97008  0.41933  1.0000
  C   C208      1.0  0.16540  0.98475  0.15059  1.0000
  H   H357      1.0  0.31617  0.19755  0.95854  1.0000
  H   H358      1.0  0.23564  0.02035  0.96594  1.0000
  H   H359      1.0  0.35386  0.13706  0.22723  1.0000
  C   C209      1.0  0.49170  0.13569  0.23935  1.0000
  C   C210      1.0  0.32799  0.12125  0.02251  1.0000
  H   H360      1.0  0.34083  0.08962  0.93789  1.0000
  H   H361      1.0  0.32176  0.15385  0.01648  1.0000
  H   H362      1.0  0.44408  0.01672  0.15833  1.0000
  H   H363      1.0  0.19628  0.09869  0.35262  1.0000
  H   H364      1.0  0.16496  0.01525  0.04106  1.0000
  S   S62       1.0  0.54621  0.04629  0.06005  1.0000
  H   H365      1.0  0.17494  0.04444  0.32036  1.0000
  C   C211      1.0  0.32929  0.10136  0.40048  1.0000
  S   S63       1.0  0.59466  0.15505  0.30287  1.0000
  Fe  Fe37      1.0  0.29532  0.97295  0.40783  1.0000
  H   H366      1.0  0.60494  0.08103  0.31351  1.0000
  C   C212      1.0  0.43336  0.07446  0.38089  1.0000
  C   C213      1.0  0.56971  0.18333  0.03942  1.0000
  H   H367      1.0  0.37688  0.15378  0.95028  1.0000
  S   S64       1.0  0.28794  0.00173  0.10841  1.0000
  H   H368      1.0  0.25018  0.98580  0.21907  1.0000
  H   H369      1.0  0.29078  0.98732  0.23714  1.0000
  C   C214      1.0  0.22465  0.01746  0.94007  1.0000
  S   S65       1.0  0.25474  0.04523  0.08043  1.0000
  C   C215      1.0  0.42630  0.09715  0.34816  1.0000
  C   C216      1.0  0.44908  0.97772  0.24121  1.0000
  H   H370      1.0  0.25764  0.06029  0.97756  1.0000
  C   C217      1.0  0.59084  0.01651  0.08130  1.0000
  H   H371      1.0  0.60801  0.08649  0.07444  1.0000
  C   C218      1.0  0.59182  0.99391  0.07669  1.0000
  C   C219      1.0  0.22008  0.15762  0.19067  1.0000
  C   C220      1.0  0.59558  0.17148  0.09983  1.0000
  H   H372      1.0  0.33974  0.96441  0.27791  1.0000
  C   C221      1.0  0.17931  0.10282  0.97692  1.0000
  H   H373      1.0  0.28776  0.03904  0.21702  1.0000
  C   C222      1.0  0.25503  0.09754  0.94078  1.0000
  C   C223      1.0  0.61607  0.01670  0.28059  1.0000
  C   C224      1.0  0.26275  0.07206  0.42177  1.0000
  H   H374      1.0  0.54690  0.19555  0.14990  1.0000
  H   H375      1.0  0.38740  0.19882  0.35567  1.0000
  S   S66       1.0  0.37325  0.15310  0.08798  1.0000
  H   H376      1.0  0.37773  0.18666  0.18646  1.0000
  H   H377      1.0  0.19154  0.06249  0.01090  1.0000
  S   S67       1.0  0.51913  0.11887  0.36296  1.0000
  H   H378      1.0  0.42515  0.01248  0.40920  1.0000
  H   H379      1.0  0.42882  0.08513  0.06876  1.0000
  C   C225      1.0  0.18962  0.97676  0.36988  1.0000
  C   C226      1.0  0.50652  0.13317  0.31239  1.0000
  N   N15       1.0  0.41686  0.19227  0.19852  1.0000
  H   H380      1.0  0.44394  0.98695  0.04326  1.0000
  C   C227      1.0  0.34725  0.06647  0.40226  1.0000
  H   H381      1.0  0.14015  0.95367  0.25642  1.0000
  H   H382      1.0  0.48739  0.12812  0.21491  1.0000
  H   H383      1.0  0.41504  0.17488  0.37897  1.0000
  Fe  Fe38      1.0  0.25992  0.96378  0.11100  1.0000
  C   C228      1.0  0.38328  0.96541  0.20008  1.0000
  C   C229      1.0  0.58417  0.96886  0.31433  1.0000
  C   C230      1.0  0.17515  0.08165  0.36964  1.0000
  N   N16       1.0  0.27324  0.08129  0.19180  1.0000
  Fe  Fe39      1.0  0.31303  0.01415  0.03717  1.0000
  Fe  Fe40      1.0  0.56042  0.15294  0.34322  1.0000
  C   C231      1.0  0.38229  0.18730  0.06418  1.0000
  S   S68       1.0  0.49328  0.18380  0.96526  1.0000
  H   H384      1.0  0.13233  0.04349  0.94531  1.0000
  H   H385      1.0  0.47016  0.05666  0.41848  1.0000
  H   H386      1.0  0.42625  0.06748  0.42076  1.0000
  H   H387      1.0  0.27552  0.19780  0.98448  1.0000
  C   C232      1.0  0.50397  0.15599  0.30142  1.0000
  C   C233      1.0  0.19672  0.02666  0.40194  1.0000
  H   H388      1.0  0.24525  0.08723  0.07203  1.0000
  C   C234      1.0  0.18570  0.99018  0.28587  1.0000
  H   H389      1.0  0.36878  0.00487  0.98329  1.0000
  H   H390      1.0  0.17347  0.96730  0.03086  1.0000
  H   H391      1.0  0.43192  0.01638  0.93774  1.0000
  H   H392      1.0  0.20055  0.02915  0.36508  1.0000
  C   C235      1.0  0.49573  0.16891  0.25918  1.0000
  H   H393      1.0  0.50862  0.16387  0.32533  1.0000
  H   H394      1.0  0.44350  0.07333  0.97169  1.0000
  C   C236      1.0  0.45048  0.03198  0.20649  1.0000
  C   C237      1.0  0.15528  0.00263  0.14259  1.0000
  S   S69       1.0  0.40670  0.05804  0.17505  1.0000
  H   H395      1.0  0.12960  0.96120  0.04747  1.0000
  S   S70       1.0  0.24359  0.15607  0.29262  1.0000
  H   H396      1.0  0.53135  0.17825  0.06796  1.0000
  C   C238      1.0  0.54042  0.03762  0.20735  1.0000
  C   C239      1.0  0.32920  0.14945  0.99081  1.0000
  C   C240      1.0  0.50870  0.12257  0.99399  1.0000
  C   C241      1.0  0.43170  0.03061  0.41208  1.0000
  H   H397      1.0  0.58571  0.01327  0.42080  1.0000
  H   H398      1.0  0.23303  0.12790  0.13564  1.0000
  C   C242      1.0  0.52015  0.16496  0.42021  1.0000
  C   C243      1.0  0.33418  0.08404  0.03190  1.0000
  H   H399      1.0  0.29701  0.09006  0.28659  1.0000
  H   H400      1.0  0.17737  0.12056  0.94772  1.0000
  S   S71       1.0  0.48395  0.99498  0.11089  1.0000
  H   H401      1.0  0.17612  0.11731  0.02505  1.0000
  H   H402      1.0  0.22664  0.16459  0.37994  1.0000
  C   C244      1.0  0.55818  0.08742  0.32595  1.0000
  C   C245      1.0  0.28407  0.07464  0.15901  1.0000
  C   C246      1.0  0.21594  0.14951  0.42055  1.0000
  H   H403      1.0  0.35686  0.00224  0.39635  1.0000
  H   H404      1.0  0.37726  0.16993  0.25027  1.0000
  C   C247      1.0  0.38725  0.18693  0.39540  1.0000
  S   S72       1.0  0.35805  0.03827  0.01275  1.0000
  H   H405      1.0  0.40705  0.12652  0.97724  1.0000
  C   C248      1.0  0.58176  0.06098  0.22339  1.0000
  C   C249      1.0  0.19370  0.05016  0.39907  1.0000
  N   N17       1.0  0.42285  0.05021  0.37557  1.0000
  H   H406      1.0  0.54480  0.07165  0.31905  1.0000
  C   C250      1.0  0.46238  0.04226  0.40583  1.0000
  H   H407      1.0  0.52243  0.97549  0.12269  1.0000
  C   C251      1.0  0.53549  0.13680  0.96568  1.0000
  S   S73       1.0  0.50196  0.04761  0.99568  1.0000
  S   S74       1.0  0.29223  0.03578  0.98864  1.0000
  H   H408      1.0  0.19322  0.99510  0.24884  1.0000
  H   H409      1.0  0.58014  0.03771  0.12644  1.0000
  S   S75       1.0  0.17333  0.03335  0.13955  1.0000
  H   H410      1.0  0.38719  0.00998  0.36038  1.0000
  C   C252      1.0  0.56961  0.98334  0.19329  1.0000
  H   H411      1.0  0.34994  0.16647  0.96861  1.0000
  H   H412      1.0  0.15181  0.99635  0.26878  1.0000
  Fe  Fe41      1.0  0.14291  0.03698  0.17749  1.0000
  H   H413      1.0  0.47406  0.05245  0.36678  1.0000
  H   H414      1.0  0.40687  0.98138  0.33803  1.0000
  H   H415      1.0  0.38952  0.00398  0.94242  1.0000
  H   H416      1.0  0.20118  0.11028  0.97201  1.0000
  H   H417      1.0  0.57253  0.99004  0.95898  1.0000
  H   H418      1.0  0.56710  0.02116  0.23489  1.0000
  H   H419      1.0  0.61503  0.08966  0.42300  1.0000
  C   C253      1.0  0.61445  0.19172  0.00928  1.0000
  H   H420      1.0  0.53130  0.98253  0.94249  1.0000
  H   H421      1.0  0.60132  0.17534  0.96164  1.0000
  H   H422      1.0  0.41748  0.95225  0.02369  1.0000
  S   S76       1.0  0.30716  0.00407  0.42827  1.0000
  C   C254      1.0  0.61091  0.19521  0.95861  1.0000
  C   C255      1.0  0.46030  0.08556  0.93734  1.0000
  Fe  Fe42      1.0  0.61895  0.16911  0.34757  1.0000
  C   C256      1.0  0.42836  0.20086  0.14610  1.0000
  H   H423      1.0  0.21422  0.02601  0.41635  1.0000
  H   H424      1.0  0.58632  0.07211  0.95119  1.0000
  C   C257      1.0  0.61500  0.07411  0.06824  1.0000
  H   H425      1.0  0.18205  0.95478  0.99578  1.0000
  H   H426      1.0  0.39565  0.14520  0.30394  1.0000
  H   H427      1.0  0.40433  0.08958  0.35412  1.0000
  C   C258      1.0  0.36657  0.95821  0.06586  1.0000
  H   H428      1.0  0.32692  0.98852  0.26170  1.0000
  H   H429      1.0  0.41946  0.95842  0.35039  1.0000
  H   H430      1.0  0.19667  0.14957  0.42649  1.0000
  H   H431      1.0  0.45087  0.18946  0.22590  1.0000
  H   H432      1.0  0.37346  0.95122  0.18749  1.0000
  H   H433      1.0  0.36859  0.95869  0.23324  1.0000
  H   H434      1.0  0.40469  0.20116  0.40037  1.0000
  H   H435      1.0  0.61192  0.13840  0.95559  1.0000
  H   H436      1.0  0.57967  0.02444  0.93773  1.0000
  N   N18       1.0  0.36123  0.17692  0.43014  1.0000
  H   H437      1.0  0.15509  0.96047  0.94605  1.0000
  C   C259      1.0  0.38310  0.01744  0.94551  1.0000
  C   C260      1.0  0.40626  0.04335  0.93991  1.0000
  H   H438      1.0  0.37910  0.99155  0.42837  1.0000
  S   S77       1.0  0.45673  0.16548  0.43025  1.0000
  H   H439      1.0  0.46648  0.02519  0.43020  1.0000
  H   H440      1.0  0.34210  0.13876  0.43427  1.0000
  S   S78       1.0  0.25099  0.99074  0.93713  1.0000
  C   C261      1.0  0.30016  0.29789  0.79374  1.0000
  H   H441      1.0  0.38433  0.21833  0.45078  1.0000
  H   H442      1.0  0.41704  0.37145  0.62439  1.0000
  C   C262      1.0  0.38205  0.23758  0.58017  1.0000
  C   C263      1.0  0.33655  0.27504  0.60922  1.0000
  N   N19       1.0  0.21409  0.20528  0.69829  1.0000
  H   H443      1.0  0.56064  0.42342  0.49127  1.0000
  H   H444      1.0  0.24539  0.37286  0.61940  1.0000
  S   S79       1.0  0.17710  0.34505  0.56863  1.0000
  C   C264      1.0  0.52213  0.26440  0.76637  1.0000
  H   H445      1.0  0.20630  0.36327  0.78882  1.0000
  C   C265      1.0  0.50919  0.25397  0.86874  1.0000
  H   H446      1.0  0.62033  0.23039  0.49089  1.0000
  C   C266      1.0  0.26269  0.22838  0.64550  1.0000
  H   H447      1.0  0.32640  0.30857  0.66811  1.0000
  C   C267      1.0  0.34405  0.25586  0.60346  1.0000
  C   C268      1.0  0.29525  0.30182  0.63117  1.0000
  H   H448      1.0  0.62266  0.24531  0.59874  1.0000
  N   N20       1.0  0.42355  0.36054  0.69724  1.0000
  Fe  Fe43      1.0  0.32940  0.36449  0.82573  1.0000
  H   H449      1.0  0.47745  0.25271  0.83271  1.0000
  H   H450      1.0  0.49848  0.25358  0.89895  1.0000
  C   C269      1.0  0.39478  0.39950  0.77333  1.0000
  H   H451      1.0  0.41938  0.43787  0.70331  1.0000
  H   H452      1.0  0.36428  0.29326  0.44543  1.0000
  C   C270      1.0  0.44364  0.40240  0.79302  1.0000
  H   H453      1.0  0.60268  0.43210  0.51145  1.0000
  H   H454      1.0  0.31018  0.24851  0.91387  1.0000
  C   C271      1.0  0.40175  0.33106  0.72352  1.0000
  H   H455      1.0  0.53987  0.27036  0.78095  1.0000
  C   C272      1.0  0.22360  0.30407  0.76081  1.0000
  S   S80       1.0  0.12546  0.36791  0.90907  1.0000
  H   H456      1.0  0.61126  0.39627  0.51568  1.0000
  C   C273      1.0  0.41923  0.42189  0.73845  1.0000
  Fe  Fe44      1.0  0.40018  0.44636  0.48276  1.0000
  H   H457      1.0  0.45680  0.44036  0.82520  1.0000
  C   C274      1.0  0.24050  0.35939  0.66098  1.0000
  C   C275      1.0  0.51648  0.42519  0.90083  1.0000
  Fe  Fe45      1.0  0.26162  0.26621  0.45863  1.0000
  H   H458      1.0  0.51080  0.29386  0.76563  1.0000
  N   N21       1.0  0.29463  0.44996  0.90459  1.0000
  H   H459      1.0  0.55176  0.24190  0.67594  1.0000
  H   H460      1.0  0.39420  0.29741  0.49174  1.0000
  H   H461      1.0  0.30439  0.31730  0.78832  1.0000
  H   H462      1.0  0.37594  0.36129  0.84544  1.0000
  H   H463      1.0  0.19975  0.43319  0.62006  1.0000
  H   H464      1.0  0.56794  0.27959  0.58598  1.0000
  H   H465      1.0  0.21986  0.29960  0.79947  1.0000
  C   C276      1.0  0.41526  0.24050  0.78168  1.0000
  H   H466      1.0  0.31816  0.41685  0.90356  1.0000
  N   N22       1.0  0.35704  0.26622  0.55056  1.0000
  C   C277      1.0  0.43019  0.25188  0.85484  1.0000
  H   H467      1.0  0.25733  0.22645  0.74019  1.0000
  H   H468      1.0  0.60974  0.21841  0.58574  1.0000
  H   H469      1.0  0.25910  0.33972  0.74811  1.0000
  C   C278      1.0  0.17819  0.39832  0.85198  1.0000
  Fe  Fe46      1.0  0.46985  0.31774  0.84000  1.0000
  H   H470      1.0  0.53603  0.35691  0.50629  1.0000
  H   H471      1.0  0.31972  0.27661  0.59311  1.0000
  C   C279      1.0  0.16026  0.42660  0.65006  1.0000
  C   C280      1.0  0.32180  0.31459  0.63257  1.0000
  H   H472      1.0  0.21875  0.42373  0.80312  1.0000
  C   C281      1.0  0.30851  0.35957  0.65205  1.0000
  H   H473      1.0  0.46824  0.40689  0.68713  1.0000
  H   H474      1.0  0.27949  0.28573  0.66582  1.0000
  C   C282      1.0  0.14565  0.44957  0.57460  1.0000
  C   C283      1.0  0.56448  0.42925  0.82763  1.0000
  H   H475      1.0  0.40373  0.31295  0.80167  1.0000
  S   S81       1.0  0.25290  0.27633  0.85977  1.0000
  H   H476      1.0  0.50098  0.28546  0.71969  1.0000
  H   H477      1.0  0.32878  0.37717  0.64072  1.0000
  S   S82       1.0  0.47588  0.29636  0.91632  1.0000
  H   H478      1.0  0.15468  0.44531  0.71246  1.0000
  C   C284      1.0  0.30995  0.32985  0.54036  1.0000
  H   H479      1.0  0.42283  0.30848  0.53485  1.0000
  H   H480      1.0  0.53543  0.30741  0.71080  1.0000
  C   C285      1.0  0.19798  0.41036  0.80821  1.0000
  C   C286      1.0  0.28687  0.36810  0.65381  1.0000
  C   C287      1.0  0.60973  0.23708  0.57888  1.0000
  H   H481      1.0  0.15218  0.30661  0.79373  1.0000
  C   C288      1.0  0.30648  0.39414  0.51924  1.0000
  H   H482      1.0  0.38228  0.32866  0.78817  1.0000
  H   H483      1.0  0.16245  0.33583  0.82823  1.0000
  H   H484      1.0  0.49016  0.36690  0.53152  1.0000
  H   H485      1.0  0.50264  0.42561  0.92523  1.0000
  Fe  Fe47      1.0  0.27725  0.31067  0.86995  1.0000
  C   C289      1.0  0.43873  0.43581  0.84957  1.0000
  H   H486      1.0  0.37192  0.26925  0.91656  1.0000
  C   C290      1.0  0.17708  0.21412  0.65866  1.0000
  H   H487      1.0  0.52753  0.24473  0.44332  1.0000
  H   H488      1.0  0.22577  0.20211  0.78921  1.0000
  C   C291      1.0  0.59658  0.41596  0.59041  1.0000
  H   H489      1.0  0.30637  0.34222  0.68879  1.0000
  H   H490      1.0  0.42767  0.40031  0.67305  1.0000
  Fe  Fe48      1.0  0.62012  0.35338  0.52643  1.0000
  H   H491      1.0  0.21770  0.32759  0.62399  1.0000
  C   C292      1.0  0.33935  0.43967  0.49656  1.0000
  H   H492      1.0  0.12644  0.40568  0.60348  1.0000
  H   H493      1.0  0.54091  0.22420  0.77931  1.0000
  C   C293      1.0  0.25383  0.32946  0.65056  1.0000
  H   H494      1.0  0.13097  0.31612  0.92003  1.0000
  S   S83       1.0  0.32199  0.36841  0.89026  1.0000
  H   H495      1.0  0.40973  0.23620  0.75326  1.0000
  C   C294      1.0  0.50793  0.21666  0.83150  1.0000
  C   C295      1.0  0.60525  0.37469  0.59571  1.0000
  H   H496      1.0  0.40392  0.20861  0.90841  1.0000
  C   C296      1.0  0.15330  0.33526  0.44983  1.0000
  S   S84       1.0  0.37574  0.34745  0.59178  1.0000
  H   H497      1.0  0.50946  0.34728  0.58595  1.0000
  S   S85       1.0  0.29193  0.29637  0.47251  1.0000
  H   H498      1.0  0.52357  0.27578  0.84026  1.0000
  C   C297      1.0  0.14450  0.37476  0.82235  1.0000
  H   H499      1.0  0.49540  0.35883  0.48794  1.0000
  H   H500      1.0  0.16677  0.28755  0.83485  1.0000
  S   S86       1.0  0.40218  0.41992  0.55971  1.0000
  H   H501      1.0  0.46667  0.24238  0.77417  1.0000
  S   S87       1.0  0.46671  0.30605  0.78331  1.0000
  Fe  Fe49      1.0  0.59728  0.31806  0.48419  1.0000
  H   H502      1.0  0.35516  0.44208  0.73959  1.0000
  C   C298      1.0  0.31392  0.27156  0.77461  1.0000
  H   H503      1.0  0.38189  0.36888  0.66068  1.0000
  H   H504      1.0  0.25851  0.23656  0.60831  1.0000
  H   H505      1.0  0.50900  0.42148  0.51887  1.0000
  H   H506      1.0  0.54555  0.20193  0.91068  1.0000
  H   H507      1.0  0.61279  0.21123  0.81837  1.0000
  H   H508      1.0  0.27067  0.24458  0.65374  1.0000
  H   H509      1.0  0.37148  0.25190  0.51184  1.0000
  H   H510      1.0  0.12580  0.33439  0.77714  1.0000
  H   H511      1.0  0.28532  0.22860  0.81197  1.0000
  H   H512      1.0  0.46237  0.44087  0.72174  1.0000
  C   C299      1.0  0.53167  0.35955  0.57088  1.0000
  C   C300      1.0  0.43343  0.37138  0.64276  1.0000
  S   S88       1.0  0.36474  0.39764  0.75848  1.0000
  C   C301      1.0  0.28578  0.40079  0.51783  1.0000
  C   C302      1.0  0.54125  0.37342  0.51374  1.0000
  H   H513      1.0  0.41164  0.37537  0.73754  1.0000
  C   C303      1.0  0.32449  0.43738  0.86956  1.0000
  H   H514      1.0  0.35400  0.29577  0.59205  1.0000
  H   H515      1.0  0.33766  0.31483  0.74224  1.0000
  H   H516      1.0  0.35247  0.35854  0.50756  1.0000
  S   S89       1.0  0.39604  0.41702  0.46017  1.0000
  Fe  Fe50      1.0  0.44132  0.43926  0.43528  1.0000
  Fe  Fe51      1.0  0.44676  0.44214  0.52746  1.0000
  H   H517      1.0  0.33357  0.28636  0.51657  1.0000
  H   H518      1.0  0.23948  0.43549  0.91499  1.0000
  H   H519      1.0  0.35058  0.28292  0.88353  1.0000
  C   C304      1.0  0.61770  0.25893  0.52234  1.0000
  H   H520      1.0  0.44883  0.39345  0.62093  1.0000
  H   H521      1.0  0.54033  0.43411  0.45368  1.0000
  H   H522      1.0  0.52295  0.27427  0.45002  1.0000
  H   H523      1.0  0.22064  0.37457  0.82885  1.0000
  H   H524      1.0  0.47276  0.22017  0.87973  1.0000
  C   C305      1.0  0.60635  0.39558  0.54957  1.0000
  H   H525      1.0  0.60050  0.25071  0.50839  1.0000
  H   H526      1.0  0.27436  0.43505  0.85984  1.0000
  C   C306      1.0  0.20456  0.21517  0.65163  1.0000
  H   H527      1.0  0.53975  0.34514  0.58968  1.0000
  H   H528      1.0  0.26321  0.39507  0.66706  1.0000
  C   C307      1.0  0.53854  0.22517  0.57363  1.0000
  H   H529      1.0  0.56357  0.38443  0.50454  1.0000
  H   H530      1.0  0.20983  0.32913  0.44775  1.0000
  S   S90       1.0  0.25648  0.29099  0.58440  1.0000
  C   C308      1.0  0.33650  0.34296  0.54194  1.0000
  C   C309      1.0  0.20840  0.33116  0.85891  1.0000
  H   H531      1.0  0.17530  0.42448  0.58787  1.0000
  H   H532      1.0  0.42153  0.42714  0.83604  1.0000
  H   H533      1.0  0.34324  0.22562  0.56541  1.0000
  H   H534      1.0  0.20789  0.30899  0.74592  1.0000
  C   C310      1.0  0.48812  0.24056  0.84712  1.0000
  H   H535      1.0  0.36900  0.35681  0.72500  1.0000
  H   H536      1.0  0.52453  0.22336  0.84773  1.0000
  C   C311      1.0  0.43502  0.41231  0.90236  1.0000
  C   C312      1.0  0.17889  0.33900  0.45518  1.0000
  S   S91       1.0  0.43663  0.24359  0.47474  1.0000
  S   S92       1.0  0.54656  0.34869  0.91080  1.0000
  H   H537      1.0  0.17329  0.22360  0.62125  1.0000
  S   S93       1.0  0.14818  0.34036  0.68831  1.0000
  S   S94       1.0  0.28794  0.35444  0.81607  1.0000
  C   C313      1.0  0.22159  0.22592  0.71295  1.0000
  C   C314      1.0  0.23686  0.22245  0.75365  1.0000
  C   C315      1.0  0.47214  0.38993  0.69459  1.0000
  C   C316      1.0  0.44609  0.36206  0.72214  1.0000
  H   H538      1.0  0.23976  0.23800  0.76255  1.0000
  H   H539      1.0  0.39867  0.27991  0.59284  1.0000
  H   H540      1.0  0.38306  0.22101  0.57846  1.0000
  H   H541      1.0  0.52912  0.26219  0.73651  1.0000
  H   H542      1.0  0.58894  0.23072  0.59637  1.0000
  N   N23       1.0  0.17893  0.31532  0.88653  1.0000
  S   S95       1.0  0.22630  0.26074  0.50375  1.0000
  H   H543      1.0  0.41790  0.40618  0.93041  1.0000
  H   H544      1.0  0.22406  0.39523  0.90317  1.0000
  Fe  Fe52      1.0  0.50640  0.33818  0.89575  1.0000
  H   H545      1.0  0.26135  0.31451  0.66901  1.0000
  H   H546      1.0  0.58134  0.41398  0.88919  1.0000
  H   H547      1.0  0.15888  0.38140  0.75151  1.0000
  C   C317      1.0  0.27011  0.24944  0.83169  1.0000
  H   H548      1.0  0.22096  0.33231  0.88497  1.0000
  H   H549      1.0  0.23914  0.36903  0.79258  1.0000
  C   C318      1.0  0.44396  0.22305  0.46117  1.0000
  H   H550      1.0  0.26603  0.34317  0.61064  1.0000
  C   C319      1.0  0.41316  0.37817  0.70008  1.0000
  H   H551      1.0  0.45389  0.34616  0.65969  1.0000
  C   C320      1.0  0.38544  0.37353  0.69003  1.0000
  H   H552      1.0  0.45340  0.41755  0.91534  1.0000
  H   H553      1.0  0.34578  0.44590  0.85039  1.0000
  C   C321      1.0  0.55280  0.25245  0.55969  1.0000
  S   S96       1.0  0.61308  0.35019  0.59951  1.0000
  H   H554      1.0  0.50893  0.21200  0.76633  1.0000
  H   H555      1.0  0.45964  0.36962  0.59505  1.0000
  H   H556      1.0  0.44249  0.28335  0.72801  1.0000
  C   C322      1.0  0.29167  0.42646  0.50840  1.0000
  H   H557      1.0  0.43612  0.25620  0.88311  1.0000
  H   H558      1.0  0.44534  0.45033  0.91992  1.0000
  C   C323      1.0  0.19033  0.32636  0.44285  1.0000
  H   H559      1.0  0.55941  0.41208  0.82229  1.0000
  C   C324      1.0  0.23777  0.20201  0.68723  1.0000
  H   H560      1.0  0.20389  0.20397  0.63325  1.0000
  S   S97       1.0  0.25361  0.37651  0.52529  1.0000
  H   H561      1.0  0.31656  0.25060  0.54151  1.0000
  H   H562      1.0  0.35675  0.25131  0.62886  1.0000
  C   C325      1.0  0.43384  0.26717  0.76742  1.0000
  H   H563      1.0  0.50992  0.42992  0.86592  1.0000
  C   C326      1.0  0.48745  0.39275  0.45871  1.0000
  H   H564      1.0  0.17863  0.27758  0.90648  1.0000
  C   C327      1.0  0.51666  0.28891  0.73958  1.0000
  C   C328      1.0  0.17805  0.42076  0.62480  1.0000
  S   S98       1.0  0.15141  0.38588  0.54300  1.0000
  S   S99       1.0  0.21421  0.41857  0.71637  1.0000
  S   S100      1.0  0.20912  0.39975  0.57190  1.0000
  H   H565      1.0  0.13981  0.30100  0.87256  1.0000
  S   S101      1.0  0.35589  0.21933  0.73477  1.0000
  C   C329      1.0  0.41217  0.22495  0.86909  1.0000
  H   H566      1.0  0.46520  0.38035  0.47474  1.0000
  H   H567      1.0  0.34879  0.40792  0.51080  1.0000
  H   H568      1.0  0.21923  0.23680  0.62246  1.0000
  H   H569      1.0  0.41920  0.36358  0.86245  1.0000
  C   C330      1.0  0.55717  0.25851  0.59662  1.0000
  H   H570      1.0  0.29056  0.38494  0.61480  1.0000
  Fe  Fe53      1.0  0.32847  0.22872  0.76509  1.0000
  C   C331      1.0  0.38237  0.29360  0.52534  1.0000
  H   H571      1.0  0.33838  0.23383  0.91669  1.0000
  H   H572      1.0  0.18734  0.32368  0.78662  1.0000
  H   H573      1.0  0.49386  0.41229  0.45622  1.0000
  C   C332      1.0  0.47619  0.22907  0.78466  1.0000
  H   H574      1.0  0.17920  0.35001  0.88311  1.0000
  H   H575      1.0  0.40960  0.31828  0.72092  1.0000
  H   H576      1.0  0.23736  0.36471  0.72384  1.0000
  C   C333      1.0  0.40181  0.29841  0.55739  1.0000
  H   H577      1.0  0.42734  0.33887  0.63016  1.0000
  H   H578      1.0  0.30199  0.37417  0.52716  1.0000
  C   C334      1.0  0.44141  0.27289  0.80388  1.0000
  C   C335      1.0  0.59458  0.39448  0.63680  1.0000
  Fe  Fe54      1.0  0.47186  0.36399  0.84854  1.0000
  C   C336      1.0  0.25255  0.32760  0.73058  1.0000
  H   H579      1.0  0.27571  0.43159  0.50771  1.0000
  N   N24       1.0  0.56694  0.43835  0.89883  1.0000
  H   H580      1.0  0.38383  0.39229  0.67764  1.0000
  C   C337      1.0  0.16143  0.31549  0.85123  1.0000
  S   S102      1.0  0.50324  0.35897  0.81734  1.0000
  H   H581      1.0  0.40107  0.31318  0.56568  1.0000
  C   C338      1.0  0.34248  0.33485  0.58811  1.0000
  H   H582      1.0  0.31262  0.43524  0.84314  1.0000
  H   H583      1.0  0.49951  0.28662  0.43866  1.0000
  H   H584      1.0  0.51288  0.40393  0.92034  1.0000
  C   C339      1.0  0.15136  0.38099  0.85835  1.0000
  Fe  Fe55      1.0  0.21778  0.38263  0.53055  1.0000
  C   C340      1.0  0.52199  0.41183  0.53230  1.0000
  H   H585      1.0  0.14042  0.40766  0.67270  1.0000
  S   S103      1.0  0.43794  0.32428  0.86548  1.0000
  C   C341      1.0  0.52970  0.20387  0.62439  1.0000
  H   H586      1.0  0.48612  0.38924  0.71874  1.0000
  C   C342      1.0  0.41923  0.37979  0.82776  1.0000
  Fe  Fe56      1.0  0.16724  0.36400  0.60494  1.0000
  C   C343      1.0  0.34385  0.27575  0.46759  1.0000
  N   N25       1.0  0.25780  0.34564  0.67461  1.0000
  C   C344      1.0  0.22491  0.31352  0.64924  1.0000
  H   H587      1.0  0.43949  0.35736  0.76032  1.0000
  S   S104      1.0  0.27104  0.23380  0.46718  1.0000
  H   H588      1.0  0.54004  0.37470  0.58175  1.0000
  H   H589      1.0  0.32959  0.28146  0.44735  1.0000
  N   N26       1.0  0.49864  0.23770  0.80733  1.0000
  C   C345      1.0  0.31905  0.29652  0.76779  1.0000
  H   H590      1.0  0.32529  0.23595  0.61999  1.0000
  H   H591      1.0  0.43091  0.39402  0.90136  1.0000
  H   H592      1.0  0.25118  0.23120  0.85646  1.0000
  C   C346      1.0  0.28939  0.24796  0.80657  1.0000
  C   C347      1.0  0.53967  0.41631  0.48787  1.0000
  C   C348      1.0  0.31857  0.44607  0.49701  1.0000
  S   S105      1.0  0.44594  0.41221  0.50940  1.0000
  H   H593      1.0  0.38525  0.32892  0.70475  1.0000
  C   C349      1.0  0.21889  0.36113  0.81524  1.0000
  H   H594      1.0  0.24097  0.44843  0.85024  1.0000
  C   C350      1.0  0.33670  0.26938  0.52111  1.0000
  H   H595      1.0  0.21424  0.32057  0.84497  1.0000
  H   H596      1.0  0.21876  0.34456  0.67282  1.0000
  H   H597      1.0  0.54915  0.43593  0.81715  1.0000
  N   N27       1.0  0.53097  0.39256  0.48129  1.0000
  C   C351      1.0  0.39400  0.43725  0.90415  1.0000
  H   H598      1.0  0.52036  0.24273  0.88612  1.0000
  S   S106      1.0  0.25989  0.37934  0.88223  1.0000
  H   H599      1.0  0.34978  0.43671  0.65458  1.0000
  C   C352      1.0  0.56456  0.41901  0.88283  1.0000
  C   C353      1.0  0.14724  0.43413  0.89487  1.0000
  H   H600      1.0  0.16497  0.44318  0.79208  1.0000
  H   H601      1.0  0.15760  0.42789  0.87730  1.0000
  Fe  Fe57      1.0  0.16439  0.36951  0.50404  1.0000
  Fe  Fe58      1.0  0.25695  0.29380  0.51154  1.0000
  C   C354      1.0  0.50080  0.37646  0.49217  1.0000
  S   S107      1.0  0.47455  0.40527  0.80433  1.0000
  H   H602      1.0  0.53511  0.43748  0.62154  1.0000
  H   H603      1.0  0.21022  0.29872  0.68658  1.0000
  H   H604      1.0  0.31297  0.43874  0.61482  1.0000
  H   H605      1.0  0.12644  0.41685  0.91591  1.0000
  C   C355      1.0  0.38929  0.31691  0.77998  1.0000
  C   C356      1.0  0.16758  0.30779  0.81492  1.0000
  H   H606      1.0  0.59023  0.39408  0.67059  1.0000
  S   S108      1.0  0.13920  0.35151  0.46442  1.0000
  H   H607      1.0  0.48270  0.39448  0.65905  1.0000
  H   H608      1.0  0.22845  0.38506  0.67156  1.0000
  C   C357      1.0  0.39477  0.37858  0.81830  1.0000
  H   H609      1.0  0.53536  0.42278  0.54823  1.0000
  S   S109      1.0  0.25669  0.32826  0.44248  1.0000
  H   H610      1.0  0.37531  0.22946  0.62051  1.0000
  H   H611      1.0  0.37674  0.44097  0.90692  1.0000
  C   C358      1.0  0.27572  0.27435  0.82592  1.0000
  H   H612      1.0  0.30542  0.33568  0.50465  1.0000
  Fe  Fe59      1.0  0.40104  0.39223  0.53546  1.0000
  Fe  Fe60      1.0  0.19391  0.42038  0.50731  1.0000
  H   H613      1.0  0.45154  0.34618  0.72849  1.0000
  H   H614      1.0  0.54628  0.39879  0.90601  1.0000
  H   H615      1.0  0.37684  0.30182  0.90062  1.0000
  H   H616      1.0  0.38560  0.41695  0.90878  1.0000
  S   S110      1.0  0.47732  0.34612  0.92572  1.0000
  H   H617      1.0  0.17228  0.39875  0.64858  1.0000
  S   S111      1.0  0.58838  0.34880  0.48527  1.0000
  H   H618      1.0  0.34168  0.25754  0.46818  1.0000
  C   C359      1.0  0.53468  0.20988  0.66129  1.0000
  H   H619      1.0  0.40285  0.25509  0.56268  1.0000
  C   C360      1.0  0.16425  0.38632  0.77930  1.0000
  H   H620      1.0  0.27893  0.22344  0.64232  1.0000
  C   C361      1.0  0.60183  0.41609  0.54702  1.0000
  H   H621      1.0  0.15706  0.43693  0.92307  1.0000
  C   C362      1.0  0.44359  0.42351  0.74868  1.0000
  H   H622      1.0  0.50956  0.39035  0.56379  1.0000
  H   H623      1.0  0.59790  0.35761  0.67529  1.0000
  C   C363      1.0  0.44406  0.35539  0.63173  1.0000
  Fe  Fe61      1.0  0.27969  0.35521  0.88437  1.0000
  H   H624      1.0  0.18357  0.40288  0.88022  1.0000
  H   H625      1.0  0.29179  0.37783  0.67583  1.0000
  C   C364      1.0  0.28938  0.30912  0.58502  1.0000
  H   H626      1.0  0.30848  0.35449  0.62327  1.0000
  C   C365      1.0  0.33308  0.41336  0.50941  1.0000
  H   H627      1.0  0.16978  0.42888  0.67891  1.0000
  C   C366      1.0  0.54787  0.23720  0.64750  1.0000
  S   S112      1.0  0.59366  0.44281  0.58788  1.0000
  H   H628      1.0  0.26537  0.31758  0.73910  1.0000
  H   H629      1.0  0.22083  0.28518  0.76340  1.0000
  H   H630      1.0  0.23420  0.24706  0.68002  1.0000
  H   H631      1.0  0.37716  0.31046  0.51082  1.0000
  H   H632      1.0  0.22500  0.30159  0.63313  1.0000
  C   C367      1.0  0.24287  0.37701  0.68240  1.0000
  C   C368      1.0  0.36248  0.24500  0.55065  1.0000
  H   H633      1.0  0.20334  0.22579  0.72668  1.0000
  C   C369      1.0  0.51886  0.21037  0.79666  1.0000
  H   H634      1.0  0.39248  0.36864  0.44909  1.0000
  S   S113      1.0  0.20577  0.40589  0.46324  1.0000
  C   C370      1.0  0.36110  0.28075  0.91327  1.0000
  S   S114      1.0  0.31952  0.32060  0.87460  1.0000
  H   H635      1.0  0.32973  0.26673  0.64978  1.0000
  H   H636      1.0  0.48392  0.23207  0.74863  1.0000
  H   H637      1.0  0.37157  0.29661  0.79388  1.0000
  S   S115      1.0  0.33878  0.27097  0.74243  1.0000
  H   H638      1.0  0.17676  0.22604  0.67466  1.0000
  C   C371      1.0  0.17415  0.32859  0.91155  1.0000
  H   H639      1.0  0.61791  0.27710  0.51912  1.0000
  S   S116      1.0  0.56669  0.27839  0.49579  1.0000
  C   C372      1.0  0.40465  0.21930  0.83242  1.0000
  H   H640      1.0  0.53491  0.22050  0.54513  1.0000
  C   C373      1.0  0.17187  0.28605  0.92459  1.0000
  C   C374      1.0  0.19086  0.40449  0.77172  1.0000
  H   H641      1.0  0.38014  0.44923  0.58785  1.0000
  C   C375      1.0  0.59895  0.37389  0.63945  1.0000
  H   H642      1.0  0.18993  0.35161  0.46897  1.0000
  C   C376      1.0  0.54576  0.44733  0.88865  1.0000
  H   H643      1.0  0.51460  0.44915  0.63665  1.0000
  H   H644      1.0  0.58463  0.44597  0.80139  1.0000
  H   H645      1.0  0.29290  0.38933  0.43746  1.0000
  H   H646      1.0  0.33293  0.45004  0.67268  1.0000
  H   H647      1.0  0.61922  0.42398  0.24485  1.0000
  H   H648      1.0  0.33635  0.28348  0.96000  1.0000
  Fe  Fe62      1.0  0.30822  0.32344  0.93879  1.0000
  H   H649      1.0  0.27238  0.44306  0.35824  1.0000
  H   H650      1.0  0.52671  0.31136  0.23225  1.0000
  S   S117      1.0  0.42782  0.35390  0.41863  1.0000
  H   H651      1.0  0.31201  0.37563  0.42647  1.0000
  H   H652      1.0  0.19844  0.35034  0.20624  1.0000
  C   C377      1.0  0.54888  0.36836  0.33922  1.0000
  H   H653      1.0  0.55795  0.27159  0.33434  1.0000
  S   S118      1.0  0.45358  0.35491  0.30277  1.0000
  C   C378      1.0  0.29902  0.30994  0.25914  1.0000
  H   H654      1.0  0.59196  0.27992  0.13818  1.0000
  H   H655      1.0  0.38549  0.34606  0.18805  1.0000
  H   H656      1.0  0.29408  0.24805  0.02621  1.0000
  C   C379      1.0  0.23670  0.36468  0.93821  1.0000
  C   C380      1.0  0.21557  0.33139  0.02742  1.0000
  H   H657      1.0  0.18228  0.43625  0.37416  1.0000
  H   H658      1.0  0.30225  0.22510  0.10913  1.0000
  C   C381      1.0  0.39983  0.24229  0.03002  1.0000
  H   H659      1.0  0.52206  0.25737  0.11867  1.0000
  H   H660      1.0  0.23126  0.28157  0.28810  1.0000
  H   H661      1.0  0.38096  0.37081  0.19251  1.0000
  H   H662      1.0  0.44542  0.22852  0.19640  1.0000
  H   H663      1.0  0.13244  0.36614  0.35190  1.0000
  H   H664      1.0  0.51718  0.31147  0.34753  1.0000
  C   C382      1.0  0.43965  0.31225  0.13917  1.0000
  N   N28       1.0  0.18549  0.41344  0.29447  1.0000
  H   H665      1.0  0.50038  0.31392  0.00012  1.0000
  C   C383      1.0  0.22190  0.37759  0.93790  1.0000
  H   H666      1.0  0.31950  0.32777  0.11148  1.0000
  C   C384      1.0  0.54136  0.42916  0.06298  1.0000
  S   S119      1.0  0.59746  0.36875  0.17330  1.0000
  C   C385      1.0  0.54086  0.33037  0.06941  1.0000
  C   C386      1.0  0.32936  0.28220  0.17324  1.0000
  C   C387      1.0  0.34025  0.35079  0.00965  1.0000
  H   H667      1.0  0.29301  0.38576  0.38403  1.0000
  H   H668      1.0  0.47680  0.31247  0.20269  1.0000
  H   H669      1.0  0.30677  0.42426  0.09573  1.0000
  H   H670      1.0  0.24715  0.34472  0.22612  1.0000
  C   C388      1.0  0.41118  0.23562  0.00220  1.0000
  C   C389      1.0  0.40695  0.27011  0.27339  1.0000
  S   S120      1.0  0.25941  0.22456  0.27933  1.0000
  H   H671      1.0  0.24281  0.31890  0.21643  1.0000
  C   C390      1.0  0.15092  0.30665  0.41866  1.0000
  C   C391      1.0  0.21081  0.27371  0.30954  1.0000
  N   N29       1.0  0.20521  0.31534  0.24522  1.0000
  H   H672      1.0  0.52265  0.25563  0.35923  1.0000
  C   C392      1.0  0.54475  0.25206  0.41368  1.0000
  H   H673      1.0  0.14481  0.32522  0.96237  1.0000
  C   C393      1.0  0.38365  0.37051  0.02423  1.0000
  S   S121      1.0  0.61924  0.35692  0.09445  1.0000
  H   H674      1.0  0.17853  0.26260  0.22952  1.0000
  Fe  Fe63      1.0  0.62310  0.38007  0.41559  1.0000
  H   H675      1.0  0.41648  0.20846  0.12108  1.0000
  H   H676      1.0  0.15513  0.40371  0.35312  1.0000
  S   S122      1.0  0.39563  0.30733  0.27617  1.0000
  C   C394      1.0  0.35408  0.35986  0.37154  1.0000
  C   C395      1.0  0.51850  0.32355  0.00903  1.0000
  H   H677      1.0  0.52358  0.40442  0.99287  1.0000
  H   H678      1.0  0.18351  0.28542  0.32402  1.0000
  C   C396      1.0  0.57095  0.37829  0.35643  1.0000
  S   S123      1.0  0.61515  0.21131  0.16902  1.0000
  H   H679      1.0  0.62126  0.26615  0.41378  1.0000
  C   C397      1.0  0.30190  0.23347  0.03429  1.0000
  C   C398      1.0  0.27983  0.42107  0.95010  1.0000
  H   H680      1.0  0.33445  0.22876  0.27258  1.0000
  H   H681      1.0  0.35315  0.37316  0.42177  1.0000
  H   H682      1.0  0.33910  0.35927  0.17406  1.0000
  C   C399      1.0  0.30060  0.40343  0.17583  1.0000
  H   H683      1.0  0.27874  0.30440  0.25285  1.0000
  H   H684      1.0  0.16734  0.31211  0.31773  1.0000
  H   H685      1.0  0.13671  0.34795  0.32677  1.0000
  C   C400      1.0  0.29392  0.41627  0.13132  1.0000
  H   H686      1.0  0.26005  0.36208  0.13665  1.0000
  H   H687      1.0  0.41002  0.42155  0.36954  1.0000
  S   S124      1.0  0.26119  0.29845  0.38516  1.0000
  C   C401      1.0  0.14276  0.36880  0.31832  1.0000
  C   C402      1.0  0.13083  0.43868  0.01064  1.0000
  H   H688      1.0  0.23420  0.23882  0.40678  1.0000
  Fe  Fe64      1.0  0.15109  0.39642  0.09045  1.0000
  H   H689      1.0  0.35908  0.32492  0.12944  1.0000
  C   C403      1.0  0.57244  0.27869  0.13060  1.0000
  H   H690      1.0  0.61451  0.31396  0.99067  1.0000
  H   H691      1.0  0.30399  0.22783  0.40872  1.0000
  C   C404      1.0  0.31689  0.23282  0.07468  1.0000
  H   H692      1.0  0.22295  0.39305  0.32768  1.0000
  H   H693      1.0  0.47234  0.38279  0.05790  1.0000
  C   C405      1.0  0.20165  0.34505  0.02739  1.0000
  H   H694      1.0  0.16594  0.28447  0.25532  1.0000
  S   S125      1.0  0.16819  0.39893  0.02312  1.0000
  H   H695      1.0  0.54514  0.28957  0.06473  1.0000
  H   H696      1.0  0.58305  0.26782  0.27383  1.0000
  H   H697      1.0  0.53328  0.22272  0.16417  1.0000
  S   S126      1.0  0.54073  0.32388  0.12996  1.0000
  H   H698      1.0  0.13230  0.35496  0.01082  1.0000
  C   C406      1.0  0.58589  0.44952  0.07293  1.0000
  H   H699      1.0  0.21355  0.28524  0.21390  1.0000
  C   C407      1.0  0.30873  0.43947  0.30970  1.0000
  C   C408      1.0  0.28510  0.22699  0.35074  1.0000
  H   H700      1.0  0.56420  0.31296  0.26763  1.0000
  H   H701      1.0  0.58053  0.42964  0.36740  1.0000
  H   H702      1.0  0.43892  0.43080  0.29810  1.0000
  Fe  Fe65      1.0  0.59631  0.20672  0.33374  1.0000
  H   H703      1.0  0.50192  0.41406  0.24572  1.0000
  S   S127      1.0  0.18170  0.33452  0.08360  1.0000
  H   H704      1.0  0.49961  0.36876  0.10270  1.0000
  C   C409      1.0  0.32098  0.43547  0.27232  1.0000
  H   H705      1.0  0.38731  0.42964  0.33570  1.0000
  H   H706      1.0  0.35637  0.38693  0.01225  1.0000
  C   C410      1.0  0.37944  0.22521  0.41427  1.0000
  Fe  Fe66      1.0  0.22815  0.29567  0.43132  1.0000
  H   H707      1.0  0.35999  0.34564  0.32526  1.0000
  H   H708      1.0  0.61342  0.33200  0.33573  1.0000
  H   H709      1.0  0.60978  0.28535  0.42710  1.0000
  H   H710      1.0  0.13993  0.29401  0.40486  1.0000
  S   S128      1.0  0.59683  0.23409  0.35897  1.0000
  C   C411      1.0  0.20468  0.36804  0.98257  1.0000
  C   C412      1.0  0.35468  0.24022  0.27263  1.0000
  H   H711      1.0  0.32744  0.29557  0.26010  1.0000
  S   S129      1.0  0.32857  0.39835  0.17638  1.0000
  S   S130      1.0  0.32004  0.30395  0.00892  1.0000
  H   H712      1.0  0.51274  0.26291  0.03964  1.0000
  C   C413      1.0  0.56991  0.31423  0.35203  1.0000
  C   C414      1.0  0.54334  0.34098  0.97216  1.0000
  H   H713      1.0  0.54375  0.26582  0.01869  1.0000
  H   H714      1.0  0.31686  0.36447  0.11095  1.0000
  H   H715      1.0  0.21333  0.31367  0.06216  1.0000
  C   C415      1.0  0.25318  0.40715  0.17933  1.0000
  H   H716      1.0  0.30734  0.43335  0.24824  1.0000
  H   H717      1.0  0.20634  0.29326  0.95749  1.0000
  C   C416      1.0  0.36159  0.26310  0.27520  1.0000
  C   C417      1.0  0.38530  0.36342  0.42235  1.0000
  H   H718      1.0  0.23286  0.36714  0.14802  1.0000
  C   C418      1.0  0.41361  0.40435  0.23250  1.0000
  Fe  Fe67      1.0  0.18352  0.37187  0.07601  1.0000
  H   H719      1.0  0.58361  0.35720  0.04038  1.0000
  C   C419      1.0  0.58612  0.27659  0.06027  1.0000
  H   H720      1.0  0.57643  0.30026  0.10692  1.0000
  C   C420      1.0  0.44436  0.34615  0.15891  1.0000
  C   C421      1.0  0.56541  0.34781  0.03213  1.0000
  S   S131      1.0  0.18730  0.43318  0.07826  1.0000
  C   C422      1.0  0.38192  0.44479  0.19272  1.0000
  H   H721      1.0  0.42727  0.28194  0.27272  1.0000
  H   H722      1.0  0.44868  0.30775  0.11534  1.0000
  H   H723      1.0  0.60831  0.31753  0.20743  1.0000
  H   H724      1.0  0.44142  0.33090  0.19880  1.0000
  C   C423      1.0  0.31022  0.32232  0.14900  1.0000
  H   H725      1.0  0.52243  0.42502  0.18906  1.0000
  C   C424      1.0  0.23340  0.34143  0.98283  1.0000
  C   C425      1.0  0.55300  0.26615  0.18120  1.0000
  H   H726      1.0  0.24799  0.38773  0.25913  1.0000
  H   H727      1.0  0.39942  0.34140  0.35209  1.0000
  H   H728      1.0  0.54627  0.21893  0.08921  1.0000
  C   C426      1.0  0.38823  0.35022  0.02614  1.0000
  H   H729      1.0  0.13528  0.37854  0.28607  1.0000
  H   H730      1.0  0.34317  0.22217  0.01468  1.0000
  S   S132      1.0  0.40861  0.39486  0.03259  1.0000
  H   H731      1.0  0.37260  0.24026  0.40761  1.0000
  H   H732      1.0  0.19368  0.37840  0.98229  1.0000
  H   H733      1.0  0.13788  0.29275  0.97362  1.0000
  S   S133      1.0  0.60976  0.44585  0.10608  1.0000
  H   H734      1.0  0.57782  0.22403  0.10455  1.0000
  H   H735      1.0  0.16539  0.34055  0.26883  1.0000
  H   H736      1.0  0.34302  0.41861  0.35041  1.0000
  H   H737      1.0  0.15293  0.31021  0.26803  1.0000
  C   C427      1.0  0.34242  0.26823  0.96432  1.0000
  H   H738      1.0  0.39824  0.30217  0.16831  1.0000
  H   H739      1.0  0.45282  0.38898  0.12020  1.0000
  N   N30       1.0  0.31781  0.24057  0.98622  1.0000
  H   H740      1.0  0.58270  0.31223  0.00227  1.0000
  C   C428      1.0  0.37009  0.35000  0.19965  1.0000
  H   H741      1.0  0.31377  0.41735  0.98040  1.0000
  H   H742      1.0  0.40551  0.40531  0.31473  1.0000
  H   H743      1.0  0.32252  0.41640  0.29156  1.0000
  H   H744      1.0  0.22719  0.33982  0.13914  1.0000
  C   C429      1.0  0.61773  0.30825  0.23485  1.0000
  H   H745      1.0  0.52933  0.35299  0.36552  1.0000
  C   C430      1.0  0.13926  0.31897  0.43174  1.0000
  H   H746      1.0  0.37434  0.41296  0.26914  1.0000
  H   H747      1.0  0.41482  0.24067  0.26999  1.0000
  C   C431      1.0  0.59971  0.40836  0.27133  1.0000
  C   C432      1.0  0.26077  0.39576  0.22339  1.0000
  C   C433      1.0  0.55225  0.37829  0.28809  1.0000
  H   H748      1.0  0.31609  0.28313  0.14780  1.0000
  H   H749      1.0  0.14924  0.43750  0.00949  1.0000
  C   C434      1.0  0.24857  0.23582  0.39083  1.0000
  Fe  Fe68      1.0  0.48427  0.34062  0.31883  1.0000
  H   H750      1.0  0.32526  0.21863  0.08525  1.0000
  H   H751      1.0  0.36064  0.33593  0.24070  1.0000
  C   C435      1.0  0.31433  0.30122  0.23618  1.0000
  C   C436      1.0  0.14515  0.31447  0.94363  1.0000
  H   H752      1.0  0.58086  0.26626  0.03946  1.0000
  C   C437      1.0  0.33021  0.41958  0.37546  1.0000
  H   H753      1.0  0.19509  0.29284  0.16836  1.0000
  C   C438      1.0  0.38785  0.43545  0.24418  1.0000
  H   H754      1.0  0.42179  0.40181  0.20431  1.0000
  H   H755      1.0  0.58057  0.40564  0.21472  1.0000
  C   C439      1.0  0.45727  0.36130  0.07110  1.0000
  H   H756      1.0  0.60684  0.32025  0.03632  1.0000
  H   H757      1.0  0.40017  0.28195  0.14659  1.0000
  C   C440      1.0  0.55647  0.21755  0.11902  1.0000
  H   H758      1.0  0.27624  0.40614  0.93934  1.0000
  N   N31       1.0  0.56280  0.26393  0.10375  1.0000
  S   S134      1.0  0.22192  0.40623  0.18453  1.0000
  H   H759      1.0  0.44742  0.33730  0.03597  1.0000
  H   H760      1.0  0.36101  0.44155  0.19665  1.0000
  H   H761      1.0  0.60168  0.33541  0.28246  1.0000
  H   H762      1.0  0.16924  0.44110  0.17998  1.0000
  H   H763      1.0  0.39160  0.39592  0.23736  1.0000
  H   H764      1.0  0.29517  0.25911  0.94257  1.0000
  H   H765      1.0  0.44938  0.44009  0.21451  1.0000
  H   H766      1.0  0.35500  0.20979  0.37442  1.0000
  H   H767      1.0  0.28940  0.38355  0.25625  1.0000
  C   C441      1.0  0.38769  0.27814  0.27535  1.0000
  S   S135      1.0  0.26512  0.31031  0.93787  1.0000
  H   H768      1.0  0.30988  0.33191  0.24571  1.0000
  H   H769      1.0  0.17867  0.25934  0.99311  1.0000
  H   H770      1.0  0.53462  0.31050  0.41765  1.0000
  H   H771      1.0  0.29483  0.42571  0.01060  1.0000
  H   H772      1.0  0.55554  0.40735  0.12360  1.0000
  H   H773      1.0  0.54940  0.24531  0.20996  1.0000
  H   H774      1.0  0.45566  0.25012  0.38090  1.0000
  H   H775      1.0  0.22165  0.42696  0.24290  1.0000
  H   H776      1.0  0.46487  0.21982  0.36432  1.0000
  H   H777      1.0  0.33281  0.25356  0.06330  1.0000
  C   C442      1.0  0.29355  0.41414  0.99293  1.0000
  H   H778      1.0  0.54429  0.23345  0.41849  1.0000
  H   H779      1.0  0.29974  0.22453  0.33430  1.0000
  H   H780      1.0  0.55183  0.33301  0.27404  1.0000
  H   H781      1.0  0.56404  0.26315  0.41945  1.0000
  N   N32       1.0  0.32446  0.44296  0.34585  1.0000
  C   C443      1.0  0.34931  0.34892  0.16893  1.0000
  H   H782      1.0  0.53361  0.38258  0.98486  1.0000
  H   H783      1.0  0.27068  0.43519  0.42067  1.0000
  H   H784      1.0  0.18271  0.38406  0.27613  1.0000
  H   H785      1.0  0.51089  0.33979  0.17399  1.0000
  C   C444      1.0  0.39879  0.35503  0.40198  1.0000
  C   C445      1.0  0.32571  0.21881  0.99849  1.0000
  C   C446      1.0  0.17931  0.43041  0.20503  1.0000
  H   H786      1.0  0.42451  0.24624  0.12367  1.0000
  C   C447      1.0  0.42353  0.21693  0.20114  1.0000
  C   C448      1.0  0.41518  0.23749  0.16334  1.0000
  Fe  Fe69      1.0  0.44046  0.33504  0.38581  1.0000
  H   H787      1.0  0.58593  0.36662  0.95549  1.0000
  C   C449      1.0  0.30962  0.44594  0.38098  1.0000
  H   H788      1.0  0.17598  0.28591  0.99408  1.0000
  H   H789      1.0  0.17883  0.37187  0.34035  1.0000
  C   C450      1.0  0.53940  0.26753  0.08626  1.0000
  H   H790      1.0  0.34649  0.26874  0.27820  1.0000
  H   H791      1.0  0.29195  0.30189  0.16573  1.0000
  S   S136      1.0  0.59340  0.39837  0.05853  1.0000
  S   S137      1.0  0.22294  0.40715  0.06014  1.0000
  H   H792      1.0  0.62379  0.21254  0.00303  1.0000
  H   H793      1.0  0.24503  0.33162  0.98326  1.0000
  H   H794      1.0  0.48224  0.42860  0.15314  1.0000
  Fe  Fe70      1.0  0.20567  0.43389  0.01426  1.0000
  Fe  Fe71      1.0  0.20237  0.40431  0.12482  1.0000
  C   C451      1.0  0.23831  0.35111  0.15622  1.0000
  H   H795      1.0  0.25947  0.41609  0.96715  1.0000
  C   C452      1.0  0.45823  0.21377  0.40255  1.0000
  H   H796      1.0  0.38297  0.43218  0.17915  1.0000
  H   H797      1.0  0.48138  0.38450  0.13690  1.0000
  H   H798      1.0  0.53786  0.43550  0.22917  1.0000
  S   S138      1.0  0.41067  0.29422  0.40101  1.0000
  C   C453      1.0  0.30046  0.34324  0.13782  1.0000
  H   H799      1.0  0.37013  0.22641  0.09587  1.0000
  H   H800      1.0  0.34358  0.27680  0.16216  1.0000
  H   H801      1.0  0.21027  0.26265  0.34986  1.0000
  S   S139      1.0  0.41201  0.27641  0.01161  1.0000
  H   H802      1.0  0.57071  0.33408  0.34043  1.0000
  H   H803      1.0  0.39302  0.22844  0.17011  1.0000
  H   H804      1.0  0.38071  0.44451  0.26018  1.0000
  S   S140      1.0  0.30381  0.20663  0.21950  1.0000
  S   S141      1.0  0.16392  0.36708  0.14403  1.0000
  H   H805      1.0  0.35568  0.26749  0.98990  1.0000
  H   H806      1.0  0.50185  0.27546  0.37750  1.0000
  N   N33       1.0  0.41681  0.44280  0.24374  1.0000
  H   H807      1.0  0.29661  0.29907  0.30029  1.0000
  H   H808      1.0  0.53692  0.41869  0.40127  1.0000
  H   H809      1.0  0.58383  0.43420  0.41852  1.0000
  H   H810      1.0  0.56952  0.30464  0.39219  1.0000
  H   H811      1.0  0.15368  0.42247  0.26823  1.0000
  S   S142      1.0  0.32810  0.36571  0.34846  1.0000
  H   H812      1.0  0.56705  0.23173  0.16727  1.0000
  C   C454      1.0  0.40860  0.43453  0.33169  1.0000
  C   C455      1.0  0.16907  0.32334  0.27698  1.0000
  S   S143      1.0  0.19049  0.29440  0.40776  1.0000
  Fe  Fe72      1.0  0.42588  0.31331  0.31889  1.0000
  H   H813      1.0  0.48643  0.34483  0.19688  1.0000
  C   C456      1.0  0.55435  0.23398  0.14053  1.0000
  C   C457      1.0  0.57417  0.41866  0.40898  1.0000
  H   H814      1.0  0.22762  0.41673  0.34657  1.0000
  Fe  Fe73      1.0  0.36064  0.42577  0.10355  1.0000
  C   C458      1.0  0.21568  0.42726  0.27589  1.0000
  C   C459      1.0  0.33289  0.21592  0.95498  1.0000
  H   H815      1.0  0.60291  0.27366  0.07461  1.0000
  H   H816      1.0  0.59778  0.30256  0.33178  1.0000
  C   C460      1.0  0.56637  0.42508  0.95355  1.0000
  C   C461      1.0  0.24597  0.23350  0.34927  1.0000
  H   H817      1.0  0.18190  0.39804  0.37349  1.0000
  C   C462      1.0  0.40001  0.24704  0.27103  1.0000
  S   S144      1.0  0.52532  0.36656  0.26470  1.0000
  C   C463      1.0  0.40288  0.20817  0.01981  1.0000
  H   H818      1.0  0.37190  0.31357  0.02479  1.0000
  H   H819      1.0  0.32180  0.35121  0.00262  1.0000
  Fe  Fe74      1.0  0.39788  0.42396  0.03722  1.0000
  C   C464      1.0  0.37370  0.23189  0.27134  1.0000
  C   C465      1.0  0.23392  0.33191  0.21296  1.0000
  H   H820      1.0  0.39807  0.23642  0.38373  1.0000
  H   H821      1.0  0.26474  0.42759  0.09888  1.0000
  C   C466      1.0  0.27001  0.41785  0.13316  1.0000
  C   C467      1.0  0.20404  0.29647  0.29873  1.0000
  H   H822      1.0  0.28384  0.21277  0.05330  1.0000
  H   H823      1.0  0.40727  0.35076  0.02961  1.0000
  C   C468      1.0  0.51970  0.29105  0.42216  1.0000
  C   C469      1.0  0.17371  0.38454  0.30680  1.0000
  H   H824      1.0  0.43784  0.36159  0.07013  1.0000
  S   S145      1.0  0.35801  0.42328  0.03582  1.0000
  C   C470      1.0  0.38927  0.34810  0.36771  1.0000
  H   H825      1.0  0.29890  0.28128  0.24321  1.0000
  C   C471      1.0  0.28759  0.22905  0.39257  1.0000
  H   H826      1.0  0.18102  0.31410  0.19364  1.0000
  C   C472      1.0  0.19750  0.33541  0.24481  1.0000
  C   C473      1.0  0.56670  0.35306  0.98386  1.0000
  C   C474      1.0  0.22994  0.41480  0.31409  1.0000
  H   H827      1.0  0.22955  0.23462  0.33320  1.0000
  Fe  Fe75      1.0  0.61287  0.41180  0.10759  1.0000
  H   H828      1.0  0.42197  0.25481  0.16851  1.0000
  H   H829      1.0  0.36066  0.36253  0.12837  1.0000
  H   H830      1.0  0.17030  0.40979  0.21114  1.0000
  C   C475      1.0  0.59702  0.32118  0.32356  1.0000
  S   S146      1.0  0.62368  0.41311  0.34224  1.0000
  H   H831      1.0  0.46796  0.21941  0.09741  1.0000
  H   H832      1.0  0.41754  0.39198  0.26799  1.0000
  H   H833      1.0  0.51799  0.23415  0.07422  1.0000
  H   H834      1.0  0.46683  0.37344  0.99333  1.0000
  C   C476      1.0  0.52229  0.29842  0.27363  1.0000
  C   C477      1.0  0.30004  0.24250  0.95105  1.0000
  H   H835      1.0  0.21199  0.34768  0.25758  1.0000
  H   H836      1.0  0.31732  0.26524  0.21237  1.0000
  C   C478      1.0  0.48484  0.34664  0.12546  1.0000
  N   N34       1.0  0.32954  0.32075  0.18127  1.0000
  C   C479      1.0  0.59784  0.30750  0.02066  1.0000
  C   C480      1.0  0.54238  0.26906  0.36079  1.0000
  H   H837      1.0  0.51764  0.27774  0.28311  1.0000
  C   C481      1.0  0.27860  0.43271  0.39213  1.0000
  H   H838      1.0  0.58282  0.41957  0.95964  1.0000
  H   H839      1.0  0.50431  0.29767  0.28983  1.0000
  C   C482      1.0  0.45306  0.23098  0.41186  1.0000
  C   C483      1.0  0.18407  0.28130  0.96953  1.0000
  H   H840      1.0  0.53351  0.26576  0.17685  1.0000
  C   C484      1.0  0.28416  0.39340  0.22176  1.0000
  H   H841      1.0  0.45982  0.24382  0.09384  1.0000
  C   C485      1.0  0.34572  0.30986  0.16860  1.0000
  C   C486      1.0  0.48951  0.33502  0.17813  1.0000
  C   C487      1.0  0.19011  0.43994  0.33751  1.0000
  C   C488      1.0  0.18562  0.29988  0.22610  1.0000
  C   C489      1.0  0.52821  0.25680  0.05290  1.0000
  C   C490      1.0  0.40988  0.30305  0.13862  1.0000
  H   H842      1.0  0.28831  0.42141  0.32982  1.0000
  H   H843      1.0  0.34199  0.42251  0.40171  1.0000
  Fe  Fe76      1.0  0.44449  0.28447  0.40934  1.0000
  H   H844      1.0  0.31417  0.43764  0.41768  1.0000
  H   H845      1.0  0.40770  0.31615  0.10178  1.0000
  H   H846      1.0  0.43951  0.29812  0.17778  1.0000
  C   C491      1.0  0.37894  0.22138  0.07409  1.0000
  H   H847      1.0  0.59959  0.20648  0.94227  1.0000
  C   C492      1.0  0.17732  0.41231  0.34128  1.0000
  H   H848      1.0  0.35942  0.30705  0.19294  1.0000
  C   C493      1.0  0.46408  0.35615  0.03096  1.0000
  C   C494      1.0  0.45927  0.37519  0.14900  1.0000
  C   C495      1.0  0.26398  0.22868  0.32970  1.0000
  C   C496      1.0  0.56052  0.42674  0.08961  1.0000
  C   C497      1.0  0.52001  0.43177  0.21420  1.0000
  H   H849      1.0  0.26868  0.41047  0.40754  1.0000
  S   S147      1.0  0.39918  0.42409  0.10728  1.0000
  H   H850      1.0  0.42361  0.34255  0.15680  1.0000
  H   H851      1.0  0.28108  0.39206  0.02285  1.0000
  H   H852      1.0  0.20089  0.44216  0.18417  1.0000
  C   C498      1.0  0.54726  0.31149  0.28906  1.0000
  S   S148      1.0  0.45755  0.30045  0.32785  1.0000
  H   H853      1.0  0.22480  0.44937  0.26182  1.0000
  C   C499      1.0  0.45820  0.22357  0.12072  1.0000
  H   H854      1.0  0.49154  0.33798  0.10770  1.0000
  S   S149      1.0  0.47336  0.32393  0.40125  1.0000
  C   C500      1.0  0.17649  0.31021  0.42441  1.0000
  C   C501      1.0  0.26912  0.23314  0.41296  1.0000
  H   H855      1.0  0.42651  0.25157  0.96734  1.0000
  C   C502      1.0  0.52024  0.29348  0.37127  1.0000
  C   C503      1.0  0.36298  0.36587  0.40709  1.0000
  C   C504      1.0  0.34438  0.32975  0.01427  1.0000
  C   C505      1.0  0.60346  0.28018  0.27238  1.0000
  H   H856      1.0  0.54290  0.39108  0.02967  1.0000
  C   C506      1.0  0.53989  0.39932  0.99151  1.0000
  H   H857      1.0  0.52159  0.41199  0.07680  1.0000
  C   C507      1.0  0.61537  0.26831  0.30872  1.0000
  H   H858      1.0  0.21784  0.30862  0.31252  1.0000
  H   H859      1.0  0.28394  0.33966  0.11955  1.0000
  C   C508      1.0  0.51727  0.31814  0.05786  1.0000
  C   C509      1.0  0.42824  0.43495  0.21407  1.0000
  H   H860      1.0  0.19549  0.25824  0.30397  1.0000
  H   H861      1.0  0.49820  0.30445  0.08651  1.0000
  H   H862      1.0  0.56225  0.27926  0.19616  1.0000
  Fe  Fe77      1.0  0.58147  0.35567  0.12092  1.0000
  H   H863      1.0  0.26365  0.21852  0.93891  1.0000
  Fe  Fe78      1.0  0.28942  0.32831  0.40235  1.0000
  H   H864      1.0  0.47030  0.22486  0.14717  1.0000
  H   H865      1.0  0.29270  0.34173  0.17186  1.0000
  H   H866      1.0  0.57026  0.43949  0.96578  1.0000
  C   C510      1.0  0.41818  0.42765  0.29685  1.0000
  H   H867      1.0  0.56820  0.37061  0.39591  1.0000
  C   C511      1.0  0.36835  0.32943  0.02260  1.0000
  H   H868      1.0  0.45485  0.37401  0.18456  1.0000
  C   C512      1.0  0.17540  0.42976  0.25403  1.0000
  H   H869      1.0  0.48294  0.35484  0.03067  1.0000
  N   N35       1.0  0.45651  0.34162  0.12367  1.0000
  N   N36       1.0  0.54498  0.29661  0.34459  1.0000
  H   H870      1.0  0.41373  0.21053  0.23892  1.0000
  C   C513      1.0  0.59627  0.39876  0.32228  1.0000
  C   C514      1.0  0.19411  0.28456  0.20874  1.0000
  C   C515      1.0  0.36694  0.35050  0.35250  1.0000
  C   C516      1.0  0.30532  0.39116  0.40740  1.0000
  H   H871      1.0  0.25181  0.42627  0.29510  1.0000
  C   C517      1.0  0.35972  0.37092  0.01546  1.0000
  C   C518      1.0  0.57780  0.39801  0.25431  1.0000
  H   H872      1.0  0.35052  0.21228  0.95804  1.0000
  H   H873      1.0  0.48757  0.44052  0.08811  1.0000
  H   H874      1.0  0.21234  0.44935  0.33000  1.0000
  H   H875      1.0  0.42906  0.44693  0.17385  1.0000
  H   H876      1.0  0.58472  0.44680  0.27112  1.0000
  H   H877      1.0  0.49396  0.45038  0.19688  1.0000
  C   C519      1.0  0.27300  0.21617  0.97028  1.0000
  H   H878      1.0  0.57922  0.20489  0.02951  1.0000
  H   H879      1.0  0.25848  0.21273  0.99985  1.0000
  C   C520      1.0  0.54308  0.40367  0.42723  1.0000
  H   H880      1.0  0.49150  0.39692  0.42031  1.0000
  H   H881      1.0  0.58224  0.40409  0.42379  1.0000
  H   H882      1.0  0.53542  0.38697  0.41984  1.0000
  H   H883      1.0  0.14965  0.27257  0.94021  1.0000
  C   C521      1.0  0.49107  0.44733  0.11471  1.0000
  S   S150      1.0  0.46508  0.44879  0.36541  1.0000
  Fe  Fe79      1.0  0.44598  0.30566  0.94060  1.0000
  H   H884      1.0  0.18789  0.33043  0.93555  1.0000
  C   C522      1.0  0.35702  0.20134  0.41339  1.0000
  H   H885      1.0  0.41235  0.20316  0.99890  1.0000
  S   S151      1.0  0.36348  0.20125  0.27461  1.0000
  H   H886      1.0  0.40239  0.43683  0.93559  1.0000
  C   C523      1.0  0.55666  0.68307  0.56398  1.0000
  Fe  Fe80      1.0  0.30544  0.62736  0.76902  1.0000
  S   S152      1.0  0.52246  0.58599  0.56669  1.0000
  H   H887      1.0  0.22517  0.53118  0.79223  1.0000
  C   C524      1.0  0.42080  0.59204  0.78001  1.0000
  H   H888      1.0  0.13922  0.69842  0.79088  1.0000
  C   C525      1.0  0.26523  0.56065  0.68442  1.0000
  H   H889      1.0  0.55334  0.51220  0.66555  1.0000
  C   C526      1.0  0.23388  0.48150  0.48038  1.0000
  C   C527      1.0  0.57122  0.57284  0.64119  1.0000
  S   S153      1.0  0.54837  0.57664  0.86804  1.0000
  H   H890      1.0  0.36382  0.59566  0.80315  1.0000
  C   C528      1.0  0.40733  0.58670  0.46604  1.0000
  H   H891      1.0  0.26856  0.53417  0.49585  1.0000
  H   H892      1.0  0.39871  0.52311  0.64550  1.0000
  H   H893      1.0  0.33630  0.51874  0.43800  1.0000
  C   C529      1.0  0.46743  0.51292  0.58394  1.0000
  S   S154      1.0  0.27482  0.64156  0.74745  1.0000
  S   S155      1.0  0.14669  0.67732  0.56071  1.0000
  H   H894      1.0  0.38464  0.49712  0.54559  1.0000
  C   C530      1.0  0.47542  0.50249  0.51074  1.0000
  S   S156      1.0  0.61966  0.58227  0.84889  1.0000
  N   N37       1.0  0.31625  0.65826  0.50641  1.0000
  H   H895      1.0  0.24788  0.45442  0.48315  1.0000
  H   H896      1.0  0.19559  0.54126  0.86660  1.0000
  H   H897      1.0  0.14632  0.51166  0.74769  1.0000
  H   H898      1.0  0.51006  0.68706  0.46740  1.0000
  C   C531      1.0  0.41762  0.57162  0.45164  1.0000
  H   H899      1.0  0.53898  0.63783  0.88133  1.0000
  Fe  Fe81      1.0  0.34342  0.67755  0.77004  1.0000
  H   H900      1.0  0.32843  0.47505  0.58412  1.0000
  H   H901      1.0  0.38556  0.59295  0.64604  1.0000
  C   C532      1.0  0.26095  0.69508  0.81760  1.0000
  H   H902      1.0  0.22954  0.50851  0.77808  1.0000
  H   H903      1.0  0.41591  0.57453  0.81907  1.0000
  C   C533      1.0  0.33269  0.45768  0.59890  1.0000
  S   S157      1.0  0.24812  0.54673  0.65139  1.0000
  H   H904      1.0  0.45468  0.48519  0.87866  1.0000
  H   H905      1.0  0.17123  0.54864  0.90959  1.0000
  C   C534      1.0  0.22345  0.51068  0.80845  1.0000
  N   N38       1.0  0.40579  0.60709  0.77838  1.0000
  H   H906      1.0  0.57139  0.64427  0.44611  1.0000
  C   C535      1.0  0.54339  0.50992  0.58014  1.0000
  H   H907      1.0  0.55617  0.66254  0.70985  1.0000
  C   C536      1.0  0.47226  0.52514  0.49800  1.0000
  H   H908      1.0  0.53971  0.64523  0.67896  1.0000
  S   S158      1.0  0.54713  0.52631  0.86249  1.0000
  C   C537      1.0  0.37445  0.54330  0.44459  1.0000
  H   H909      1.0  0.43503  0.46494  0.75507  1.0000
  H   H910      1.0  0.56783  0.61139  0.90081  1.0000
  C   C538      1.0  0.46333  0.54314  0.83221  1.0000
  H   H911      1.0  0.61558  0.66389  0.59192  1.0000
  H   H912      1.0  0.34529  0.64447  0.60715  1.0000
  H   H913      1.0  0.50300  0.67433  0.54581  1.0000
  S   S159      1.0  0.49577  0.55183  0.80530  1.0000
  Fe  Fe82      1.0  0.47056  0.59412  0.62884  1.0000
  C   C539      1.0  0.48631  0.66939  0.61294  1.0000
  H   H914      1.0  0.50438  0.68583  0.61182  1.0000
  H   H915      1.0  0.19710  0.46827  0.86042  1.0000
  H   H916      1.0  0.30680  0.55229  0.75984  1.0000
  C   C540      1.0  0.40309  0.63506  0.81428  1.0000
  H   H917      1.0  0.62253  0.67480  0.64878  1.0000
  H   H918      1.0  0.36167  0.47643  0.71457  1.0000
  H   H919      1.0  0.61478  0.64859  0.87225  1.0000
  C   C541      1.0  0.53376  0.45604  0.61227  1.0000
  C   C542      1.0  0.57886  0.63249  0.65487  1.0000
  C   C543      1.0  0.58749  0.59153  0.74255  1.0000
  H   H920      1.0  0.26893  0.53205  0.87775  1.0000
  Fe  Fe83      1.0  0.60922  0.48044  0.51017  1.0000
  H   H921      1.0  0.61201  0.59955  0.59388  1.0000
  Fe  Fe84      1.0  0.28201  0.65284  0.80461  1.0000
  H   H922      1.0  0.40993  0.53833  0.57882  1.0000
  H   H923      1.0  0.17340  0.50802  0.57655  1.0000
  C   C544      1.0  0.51829  0.47381  0.69240  1.0000
  H   H924      1.0  0.35142  0.66040  0.47267  1.0000
  S   S160      1.0  0.21073  0.67133  0.55127  1.0000
  Fe  Fe85      1.0  0.30075  0.49597  0.69677  1.0000
  S   S161      1.0  0.48558  0.61600  0.54535  1.0000
  H   H925      1.0  0.30629  0.64937  0.58174  1.0000
  H   H926      1.0  0.51698  0.65210  0.87881  1.0000
  H   H927      1.0  0.45849  0.62880  0.72369  1.0000
  H   H928      1.0  0.52201  0.49397  0.59304  1.0000
  H   H929      1.0  0.60042  0.53189  0.73886  1.0000
  H   H930      1.0  0.40790  0.48908  0.65715  1.0000
  H   H931      1.0  0.55888  0.48361  0.69398  1.0000
  C   C545      1.0  0.27666  0.48455  0.49504  1.0000
  H   H932      1.0  0.56641  0.57976  0.76590  1.0000
  H   H933      1.0  0.43196  0.65773  0.59632  1.0000
  H   H934      1.0  0.41173  0.64174  0.83948  1.0000
  H   H935      1.0  0.52886  0.53949  0.54819  1.0000
  C   C546      1.0  0.25024  0.66521  0.59605  1.0000
  H   H936      1.0  0.42767  0.67271  0.53371  1.0000
  S   S162      1.0  0.58004  0.49238  0.47214  1.0000
  H   H937      1.0  0.53567  0.53349  0.60647  1.0000
  C   C547      1.0  0.35901  0.52361  0.72016  1.0000
  H   H938      1.0  0.27776  0.65491  0.52740  1.0000
  H   H939      1.0  0.56298  0.55440  0.54922  1.0000
  C   C548      1.0  0.57456  0.68443  0.53072  1.0000
  C   C549      1.0  0.40819  0.57199  0.67913  1.0000
  H   H940      1.0  0.32335  0.46635  0.48739  1.0000
  H   H941      1.0  0.34135  0.55686  0.79953  1.0000
  C   C550      1.0  0.22886  0.66329  0.89970  1.0000
  H   H942      1.0  0.47294  0.54602  0.89512  1.0000
  C   C551      1.0  0.48545  0.47507  0.87056  1.0000
  H   H943      1.0  0.35739  0.67764  0.55146  1.0000
  H   H944      1.0  0.55143  0.46389  0.84833  1.0000
  Fe  Fe86      1.0  0.57504  0.55824  0.87555  1.0000
  Fe  Fe87      1.0  0.26353  0.51889  0.65547  1.0000
  H   H945      1.0  0.62134  0.50407  0.85351  1.0000
  H   H946      1.0  0.33959  0.61468  0.92609  1.0000
  H   H947      1.0  0.42952  0.64782  0.71110  1.0000
  H   H948      1.0  0.50327  0.61941  0.88878  1.0000
  H   H949      1.0  0.22313  0.53425  0.86943  1.0000
  H   H950      1.0  0.51211  0.45320  0.69994  1.0000
  C   C552      1.0  0.45713  0.54036  0.87800  1.0000
  H   H951      1.0  0.46003  0.59756  0.75471  1.0000
  H   H952      1.0  0.52984  0.67519  0.91364  1.0000
  Fe  Fe88      1.0  0.31060  0.68302  0.69423  1.0000
  C   C553      1.0  0.17793  0.48508  0.77255  1.0000
  C   C554      1.0  0.59893  0.58159  0.62995  1.0000
  C   C555      1.0  0.29070  0.57977  0.74281  1.0000
  H   H953      1.0  0.39995  0.51815  0.81879  1.0000
  H   H954      1.0  0.12555  0.49360  0.81099  1.0000
  H   H955      1.0  0.16709  0.48137  0.66585  1.0000
  C   C556      1.0  0.14768  0.66492  0.83291  1.0000
  H   H956      1.0  0.33230  0.50794  0.86364  1.0000
  H   H957      1.0  0.55247  0.69992  0.60656  1.0000
  H   H958      1.0  0.55134  0.51620  0.75851  1.0000
  Fe  Fe89      1.0  0.48048  0.57598  0.56160  1.0000
  H   H959      1.0  0.53574  0.66774  0.57785  1.0000
  C   C557      1.0  0.62338  0.59312  0.43823  1.0000
  H   H960      1.0  0.58925  0.54071  0.59319  1.0000
  S   S163      1.0  0.24998  0.49593  0.61780  1.0000
  H   H961      1.0  0.46325  0.68119  0.48517  1.0000
  H   H962      1.0  0.33591  0.67917  0.86781  1.0000
  H   H963      1.0  0.54494  0.60451  0.74239  1.0000
  H   H964      1.0  0.56244  0.62266  0.76922  1.0000
  C   C558      1.0  0.37647  0.58605  0.80475  1.0000
  H   H965      1.0  0.46799  0.66658  0.63287  1.0000
  H   H966      1.0  0.15930  0.65566  0.82771  1.0000
  H   H967      1.0  0.62154  0.57737  0.51621  1.0000
  C   C559      1.0  0.56456  0.53439  0.72254  1.0000
  S   S164      1.0  0.47191  0.45358  0.57449  1.0000
  H   H968      1.0  0.46723  0.47498  0.63579  1.0000
  Fe  Fe90      1.0  0.14423  0.68807  0.61731  1.0000
  H   H969      1.0  0.30819  0.62302  0.57981  1.0000
  C   C560      1.0  0.26870  0.61741  0.53402  1.0000
  H   H970      1.0  0.25899  0.60810  0.57396  1.0000
  C   C561      1.0  0.60062  0.62200  0.72466  1.0000
  C   C562      1.0  0.31857  0.69890  0.88496  1.0000
  H   H971      1.0  0.46438  0.51698  0.61227  1.0000
  H   H972      1.0  0.29168  0.47106  0.82844  1.0000
  H   H973      1.0  0.62279  0.69327  0.88270  1.0000
  S   S165      1.0  0.43930  0.60178  0.65347  1.0000
  H   H974      1.0  0.44783  0.53889  0.77407  1.0000
  H   H975      1.0  0.42499  0.54563  0.71732  1.0000
  H   H976      1.0  0.40772  0.65401  0.77818  1.0000
  S   S166      1.0  0.31031  0.63585  0.82968  1.0000
  S   S167      1.0  0.31562  0.69532  0.75001  1.0000
  H   H977      1.0  0.37111  0.52604  0.48284  1.0000
  H   H978      1.0  0.59498  0.63515  0.58898  1.0000
  C   C563      1.0  0.55948  0.62544  0.73276  1.0000
  H   H979      1.0  0.52512  0.63109  0.74307  1.0000
  H   H980      1.0  0.32638  0.69574  0.53895  1.0000
  C   C564      1.0  0.46826  0.53043  0.53438  1.0000
  H   H981      1.0  0.38520  0.46688  0.74147  1.0000
  H   H982      1.0  0.23848  0.50995  0.83040  1.0000
  H   H983      1.0  0.21048  0.68537  0.44556  1.0000
  C   C565      1.0  0.36006  0.54901  0.68977  1.0000
  S   S168      1.0  0.37648  0.49798  0.92143  1.0000
  C   C566      1.0  0.24010  0.50456  0.48227  1.0000
  N   N39       1.0  0.55899  0.49971  0.61585  1.0000
  H   H984      1.0  0.53300  0.46609  0.57261  1.0000
  H   H985      1.0  0.61055  0.45751  0.87429  1.0000
  H   H986      1.0  0.25159  0.56978  0.92095  1.0000
  H   H987      1.0  0.19837  0.47466  0.56946  1.0000
  S   S169      1.0  0.31087  0.51995  0.51797  1.0000
  H   H988      1.0  0.43071  0.49341  0.74544  1.0000
  H   H989      1.0  0.41578  0.55374  0.48747  1.0000
  C   C567      1.0  0.45551  0.46767  0.88024  1.0000
  C   C568      1.0  0.59229  0.54319  0.71132  1.0000
  C   C569      1.0  0.21314  0.54266  0.88215  1.0000
  C   C570      1.0  0.28238  0.54446  0.92907  1.0000
  H   H990      1.0  0.58697  0.49276  0.87844  1.0000
  C   C571      1.0  0.40696  0.54661  0.70975  1.0000
  H   H991      1.0  0.30877  0.69695  0.91802  1.0000
  C   C572      1.0  0.47292  0.48402  0.56042  1.0000
  H   H992      1.0  0.19480  0.47730  0.62159  1.0000
  C   C573      1.0  0.38469  0.57328  0.66955  1.0000
  C   C574      1.0  0.55398  0.54930  0.68755  1.0000
  C   C575      1.0  0.18586  0.50402  0.55732  1.0000
  C   C576      1.0  0.43024  0.52891  0.90302  1.0000
  C   C577      1.0  0.60595  0.63211  0.91136  1.0000
  Fe  Fe91      1.0  0.50569  0.56632  0.64854  1.0000
  H   H993      1.0  0.35888  0.65056  0.54867  1.0000
  H   H994      1.0  0.36236  0.51103  0.58009  1.0000
  H   H995      1.0  0.29043  0.47643  0.50112  1.0000
  C   C578      1.0  0.19518  0.48710  0.84339  1.0000
  C   C579      1.0  0.34668  0.65542  0.56640  1.0000
  H   H996      1.0  0.22599  0.51232  0.47730  1.0000
  C   C580      1.0  0.60214  0.48579  0.88126  1.0000
  N   N40       1.0  0.17231  0.48513  0.81906  1.0000
  H   H997      1.0  0.14627  0.68563  0.75680  1.0000
  H   H998      1.0  0.50611  0.48251  0.67050  1.0000
  H   H999      1.0  0.59904  0.58220  0.76554  1.0000
  H   H1000     1.0  0.61532  0.63158  0.63181  1.0000
  H   H1001     1.0  0.54164  0.60317  0.45747  1.0000
  C   C581      1.0  0.26418  0.51696  0.49252  1.0000
  C   C582      1.0  0.38234  0.52247  0.73116  1.0000
  S   S170      1.0  0.46388  0.55886  0.51581  1.0000
  C   C583      1.0  0.29669  0.46935  0.92008  1.0000
  H   H1002     1.0  0.13611  0.46455  0.87880  1.0000
  S   S171      1.0  0.59620  0.56277  0.45066  1.0000
  C   C584      1.0  0.14948  0.46054  0.68438  1.0000
  C   C585      1.0  0.60959  0.56707  0.66528  1.0000
  C   C586      1.0  0.13859  0.45331  0.64634  1.0000
  H   H1003     1.0  0.27173  0.60514  0.71863  1.0000
  H   H1004     1.0  0.27938  0.60652  0.53307  1.0000
  H   H1005     1.0  0.29408  0.56600  0.89972  1.0000
  C   C587      1.0  0.51868  0.63318  0.89775  1.0000
  H   H1006     1.0  0.32326  0.62748  0.50509  1.0000
  H   H1007     1.0  0.41152  0.47667  0.54266  1.0000
  S   S172      1.0  0.25773  0.48211  0.72881  1.0000
  H   H1008     1.0  0.46339  0.50536  0.78799  1.0000
  C   C588      1.0  0.41430  0.46001  0.85225  1.0000
  C   C589      1.0  0.31843  0.67236  0.89665  1.0000
  N   N41       1.0  0.15734  0.45144  0.61575  1.0000
  H   H1009     1.0  0.43842  0.63583  0.78898  1.0000
  H   H1010     1.0  0.25274  0.61326  0.51489  1.0000
  C   C590      1.0  0.25242  0.47190  0.48560  1.0000
  H   H1011     1.0  0.37370  0.57224  0.84557  1.0000
  H   H1012     1.0  0.17980  0.50563  0.52325  1.0000
  H   H1013     1.0  0.19669  0.45828  0.80448  1.0000
  H   H1014     1.0  0.34417  0.45962  0.56747  1.0000
  H   H1015     1.0  0.21292  0.57961  0.90656  1.0000
  C   C591      1.0  0.39237  0.52835  0.61049  1.0000
  Fe  Fe92      1.0  0.24787  0.46038  0.68846  1.0000
  H   H1016     1.0  0.36982  0.62012  0.71263  1.0000
  C   C592      1.0  0.18488  0.47625  0.59226  1.0000
  H   H1017     1.0  0.22799  0.56449  0.86556  1.0000
  H   H1018     1.0  0.41008  0.46150  0.60746  1.0000
  H   H1019     1.0  0.13353  0.46042  0.70535  1.0000
  C   C593      1.0  0.39247  0.48930  0.57861  1.0000
  H   H1020     1.0  0.19590  0.46940  0.74227  1.0000
  C   C594      1.0  0.39859  0.46762  0.58011  1.0000
  C   C595      1.0  0.16950  0.51021  0.80371  1.0000
  C   C596      1.0  0.24114  0.68334  0.56578  1.0000
  H   H1021     1.0  0.33560  0.45874  0.90782  1.0000
  C   C597      1.0  0.45180  0.60934  0.76032  1.0000
  H   H1022     1.0  0.60296  0.62285  0.75867  1.0000
  H   H1023     1.0  0.16033  0.48252  0.75670  1.0000
  C   C598      1.0  0.57950  0.61078  0.92741  1.0000
  H   H1024     1.0  0.30080  0.66081  0.88737  1.0000
  H   H1025     1.0  0.60827  0.49753  0.62857  1.0000
  H   H1026     1.0  0.62160  0.63227  0.70151  1.0000
  H   H1027     1.0  0.41579  0.60447  0.84571  1.0000
  H   H1028     1.0  0.54510  0.45692  0.90962  1.0000
  C   C599      1.0  0.36356  0.56752  0.78471  1.0000
  C   C600      1.0  0.26820  0.52526  0.91661  1.0000
  S   S173      1.0  0.51179  0.60517  0.64114  1.0000
  C   C601      1.0  0.44290  0.53665  0.80950  1.0000
  C   C602      1.0  0.44517  0.48547  0.74935  1.0000
  C   C603      1.0  0.29441  0.56033  0.73943  1.0000
  S   S174      1.0  0.24770  0.64080  0.86307  1.0000
  C   C604      1.0  0.40956  0.52004  0.88250  1.0000
  H   H1029     1.0  0.48029  0.49955  0.48186  1.0000
  H   H1030     1.0  0.38194  0.64239  0.73527  1.0000
  C   C605      1.0  0.32908  0.64955  0.48049  1.0000
  C   C606      1.0  0.41041  0.62855  0.72417  1.0000
  C   C607      1.0  0.48104  0.70053  0.47614  1.0000
  N   N42       1.0  0.44143  0.46156  0.84451  1.0000
  H   H1031     1.0  0.16097  0.45399  0.54486  1.0000
  H   H1032     1.0  0.23886  0.64373  0.60928  1.0000
  C   C608      1.0  0.60778  0.51566  0.62409  1.0000
  H   H1033     1.0  0.59430  0.67914  0.65015  1.0000
  C   C609      1.0  0.61164  0.67529  0.71255  1.0000
  H   H1034     1.0  0.41693  0.47983  0.84497  1.0000
  H   H1035     1.0  0.14500  0.52997  0.77478  1.0000
  C   C610      1.0  0.37113  0.46387  0.71858  1.0000
  H   H1036     1.0  0.38600  0.54381  0.60313  1.0000
  H   H1037     1.0  0.46767  0.65622  0.56518  1.0000
  C   C611      1.0  0.58781  0.52244  0.59471  1.0000
  S   S175      1.0  0.30620  0.59015  0.78138  1.0000
  H   H1038     1.0  0.41446  0.58282  0.75741  1.0000
  H   H1039     1.0  0.27992  0.66049  0.63608  1.0000
  H   H1040     1.0  0.56422  0.61064  0.66992  1.0000
  H   H1041     1.0  0.34189  0.54997  0.68246  1.0000
  S   S176      1.0  0.32940  0.49265  0.74400  1.0000
  H   H1042     1.0  0.48746  0.65023  0.63602  1.0000
  C   C612      1.0  0.38688  0.47266  0.66765  1.0000
  Fe  Fe93      1.0  0.51847  0.54226  0.86309  1.0000
  C   C613      1.0  0.41676  0.62015  0.80747  1.0000
  S   S177      1.0  0.56413  0.66294  0.50814  1.0000
  S   S178      1.0  0.44508  0.47088  0.45100  1.0000
  C   C614      1.0  0.22838  0.68514  0.89935  1.0000
  C   C615      1.0  0.14599  0.46008  0.85605  1.0000
  H   H1043     1.0  0.38945  0.45491  0.67569  1.0000
  H   H1044     1.0  0.35325  0.69726  0.47084  1.0000
  S   S179      1.0  0.46288  0.55332  0.64406  1.0000
  C   C616      1.0  0.43351  0.67655  0.56339  1.0000
  C   C617      1.0  0.15316  0.69163  0.78381  1.0000
  S   S180      1.0  0.37321  0.46489  0.47701  1.0000
  H   H1045     1.0  0.46078  0.61355  0.78794  1.0000
  C   C618      1.0  0.25250  0.45183  0.87628  1.0000
  H   H1046     1.0  0.40372  0.45669  0.82511  1.0000
  H   H1047     1.0  0.57593  0.48184  0.58944  1.0000
  C   C619      1.0  0.33106  0.68917  0.47751  1.0000
  Fe  Fe94      1.0  0.19054  0.69393  0.55566  1.0000
  C   C620      1.0  0.60329  0.66690  0.67474  1.0000
  H   H1048     1.0  0.56329  0.58445  0.61407  1.0000
  C   C621      1.0  0.48526  0.67450  0.56034  1.0000
  H   H1049     1.0  0.56854  0.64408  0.63383  1.0000
  S   S181      1.0  0.34030  0.66767  0.71109  1.0000
  H   H1050     1.0  0.20700  0.52064  0.54437  1.0000
  C   C622      1.0  0.54458  0.64235  0.71439  1.0000
  H   H1051     1.0  0.38106  0.62203  0.83179  1.0000
  C   C623      1.0  0.24562  0.66830  0.85926  1.0000
  H   H1052     1.0  0.21667  0.64255  0.93182  1.0000
  Fe  Fe95      1.0  0.60984  0.53507  0.44878  1.0000
  C   C624      1.0  0.27331  0.67463  0.61142  1.0000
  C   C625      1.0  0.38806  0.63663  0.71113  1.0000
  H   H1053     1.0  0.55149  0.51439  0.54277  1.0000
  H   H1054     1.0  0.35067  0.65019  0.88418  1.0000
  H   H1055     1.0  0.36986  0.55157  0.79757  1.0000
  H   H1056     1.0  0.41833  0.68060  0.57568  1.0000
  C   C626      1.0  0.32265  0.45712  0.88249  1.0000
  C   C627      1.0  0.60284  0.64134  0.61519  1.0000
  H   H1057     1.0  0.39564  0.65470  0.67197  1.0000
  S   S182      1.0  0.51910  0.53727  0.70240  1.0000
  H   H1058     1.0  0.56197  0.46220  0.65528  1.0000
  H   H1059     1.0  0.56407  0.66316  0.91633  1.0000
  C   C628      1.0  0.28696  0.64871  0.50746  1.0000
  H   H1060     1.0  0.30135  0.50406  0.84563  1.0000
  Fe  Fe96      1.0  0.52607  0.62399  0.55864  1.0000
  N   N43       1.0  0.58562  0.63676  0.69675  1.0000
  C   C629      1.0  0.27460  0.59008  0.71620  1.0000
  H   H1061     1.0  0.41335  0.62189  0.69887  1.0000
  C   C630      1.0  0.26161  0.58029  0.68737  1.0000
  C   C631      1.0  0.27924  0.45205  0.86562  1.0000
  H   H1062     1.0  0.36330  0.67887  0.92615  1.0000
  H   H1063     1.0  0.24860  0.58772  0.66790  1.0000
  C   C632      1.0  0.41590  0.52506  0.83466  1.0000
  C   C633      1.0  0.54300  0.53580  0.57108  1.0000
  H   H1064     1.0  0.13121  0.45410  0.83598  1.0000
  H   H1065     1.0  0.36846  0.57931  0.74328  1.0000
  C   C634      1.0  0.54860  0.49310  0.66718  1.0000
  C   C635      1.0  0.28202  0.55109  0.70977  1.0000
  C   C636      1.0  0.31795  0.64577  0.55988  1.0000
  C   C637      1.0  0.28232  0.50673  0.49944  1.0000
  H   H1066     1.0  0.28507  0.53612  0.70742  1.0000
  H   H1067     1.0  0.13963  0.46566  0.55457  1.0000
  H   H1068     1.0  0.18761  0.52922  0.77388  1.0000
  S   S183      1.0  0.30747  0.53439  0.62603  1.0000
  H   H1069     1.0  0.59582  0.52920  0.55542  1.0000
  H   H1070     1.0  0.60608  0.47919  0.91858  1.0000
  H   H1071     1.0  0.49809  0.49669  0.83874  1.0000
  Fe  Fe97      1.0  0.29337  0.50837  0.59426  1.0000
  H   H1072     1.0  0.60347  0.51279  0.66131  1.0000
  H   H1073     1.0  0.41841  0.59107  0.49182  1.0000
  C   C638      1.0  0.31044  0.49991  0.87747  1.0000
  H   H1074     1.0  0.33279  0.47774  0.84697  1.0000
  H   H1075     1.0  0.27311  0.69900  0.78551  1.0000
  H   H1076     1.0  0.35110  0.49605  0.64495  1.0000
  H   H1077     1.0  0.21565  0.68121  0.93094  1.0000
  C   C639      1.0  0.36849  0.50320  0.61546  1.0000
  S   S184      1.0  0.29032  0.47111  0.66230  1.0000
  H   H1078     1.0  0.36447  0.55345  0.45115  1.0000
  C   C640      1.0  0.46935  0.48936  0.59716  1.0000
  H   H1079     1.0  0.16787  0.51248  0.83614  1.0000
  S   S185      1.0  0.20238  0.46366  0.47445  1.0000
  H   H1080     1.0  0.51348  0.47108  0.72943  1.0000
  H   H1081     1.0  0.46117  0.49939  0.71318  1.0000
  H   H1082     1.0  0.41225  0.50685  0.56950  1.0000
  H   H1083     1.0  0.58805  0.58904  0.71057  1.0000
  H   H1084     1.0  0.47346  0.53883  0.45971  1.0000
  C   C641      1.0  0.14510  0.51098  0.78327  1.0000
  H   H1085     1.0  0.38153  0.50289  0.75531  1.0000
  C   C642      1.0  0.59439  0.46344  0.86924  1.0000
  C   C643      1.0  0.55881  0.47518  0.61904  1.0000
  H   H1086     1.0  0.19449  0.50528  0.74142  1.0000
  H   H1087     1.0  0.25636  0.47198  0.86863  1.0000
  H   H1088     1.0  0.47760  0.48642  0.78290  1.0000
  H   H1089     1.0  0.28440  0.65911  0.46917  1.0000
  H   H1090     1.0  0.20024  0.68865  0.77640  1.0000
  H   H1091     1.0  0.38566  0.57443  0.48655  1.0000
  H   H1092     1.0  0.53098  0.53963  0.46602  1.0000
  N   N44       1.0  0.37377  0.48009  0.62557  1.0000
  C   C644      1.0  0.45802  0.48551  0.79181  1.0000
  H   H1093     1.0  0.15176  0.66793  0.86413  1.0000
  H   H1094     1.0  0.59617  0.47407  0.82832  1.0000
  H   H1095     1.0  0.19126  0.48903  0.87550  1.0000
  H   H1096     1.0  0.32791  0.69795  0.43937  1.0000
  H   H1097     1.0  0.49222  0.47313  0.90433  1.0000
  C   C645      1.0  0.34404  0.63376  0.92437  1.0000
  H   H1098     1.0  0.59630  0.66191  0.74922  1.0000
  H   H1099     1.0  0.48910  0.46161  0.86214  1.0000
  C   C646      1.0  0.34727  0.45520  0.64041  1.0000
  C   C647      1.0  0.18393  0.46247  0.77895  1.0000
  H   H1100     1.0  0.61435  0.69619  0.69715  1.0000
  H   H1101     1.0  0.18968  0.69791  0.72066  1.0000
  H   H1102     1.0  0.13247  0.46869  0.62169  1.0000
  H   H1103     1.0  0.51586  0.61311  0.45624  1.0000
  H   H1104     1.0  0.41097  0.52704  0.45244  1.0000
  H   H1105     1.0  0.30203  0.69820  0.50291  1.0000
  H   H1106     1.0  0.30850  0.51177  0.89247  1.0000
  S   S186      1.0  0.38269  0.69885  0.78369  1.0000
  H   H1107     1.0  0.12600  0.64965  0.84493  1.0000
  C   C648      1.0  0.56617  0.70105  0.58054  1.0000
  C   C649      1.0  0.52783  0.60907  0.43612  1.0000
  N   N45       1.0  0.48471  0.70039  0.52325  1.0000
  H   H1108     1.0  0.51334  0.59101  0.43589  1.0000
  C   C650      1.0  0.54311  0.54624  0.39349  1.0000
  H   H1109     1.0  0.34727  0.56463  0.00508  1.0000
  H   H1110     1.0  0.16410  0.60882  0.33945  1.0000
  H   H1111     1.0  0.56632  0.49613  0.15268  1.0000
  C   C651      1.0  0.59807  0.64462  0.39645  1.0000
  H   H1112     1.0  0.52899  0.66888  0.37577  1.0000
  H   H1113     1.0  0.45185  0.57752  0.35075  1.0000
  H   H1114     1.0  0.56100  0.63203  0.96530  1.0000
  H   H1115     1.0  0.61129  0.65766  0.35755  1.0000
  H   H1116     1.0  0.34122  0.48680  0.07748  1.0000
  H   H1117     1.0  0.60721  0.46224  0.21189  1.0000
  C   C652      1.0  0.21840  0.57944  0.24827  1.0000
  H   H1118     1.0  0.54440  0.60283  0.05053  1.0000
  H   H1119     1.0  0.36001  0.54369  0.98224  1.0000
  C   C653      1.0  0.52289  0.50048  0.11507  1.0000
  Fe  Fe98      1.0  0.41983  0.46979  0.05850  1.0000
  N   N46       1.0  0.14840  0.61005  0.24305  1.0000
  H   H1120     1.0  0.43954  0.58605  0.43330  1.0000
  H   H1121     1.0  0.20539  0.57177  0.96836  1.0000
  C   C654      1.0  0.62054  0.63244  0.94630  1.0000
  H   H1122     1.0  0.40578  0.65532  0.24156  1.0000
  S   S187      1.0  0.43161  0.61499  0.15280  1.0000
  H   H1123     1.0  0.29481  0.62827  0.02551  1.0000
  H   H1124     1.0  0.26670  0.65175  0.94750  1.0000
  C   C655      1.0  0.43300  0.47332  0.21980  1.0000
  C   C656      1.0  0.32033  0.59796  0.21367  1.0000
  H   H1125     1.0  0.32531  0.51751  0.34712  1.0000
  H   H1126     1.0  0.62045  0.61046  0.02369  1.0000
  C   C657      1.0  0.43640  0.53481  0.03319  1.0000
  H   H1127     1.0  0.35045  0.51197  0.98828  1.0000
  H   H1128     1.0  0.34617  0.68907  0.95263  1.0000
  C   C658      1.0  0.51240  0.61901  0.95531  1.0000
  H   H1129     1.0  0.57851  0.49563  0.96676  1.0000
  H   H1130     1.0  0.26077  0.59498  0.34367  1.0000
  S   S188      1.0  0.27834  0.66325  0.28786  1.0000
  H   H1131     1.0  0.38033  0.59506  0.39306  1.0000
  C   C659      1.0  0.43263  0.55615  0.02858  1.0000
  C   C660      1.0  0.52167  0.46501  0.10370  1.0000
  H   H1132     1.0  0.26400  0.61838  0.97252  1.0000
  C   C661      1.0  0.45483  0.55519  0.09335  1.0000
  H   H1133     1.0  0.27954  0.52403  0.34793  1.0000
  S   S189      1.0  0.43917  0.68905  0.28292  1.0000
  Fe  Fe99      1.0  0.45266  0.67816  0.35268  1.0000
  C   C662      1.0  0.12741  0.49179  0.14034  1.0000
  H   H1134     1.0  0.13388  0.68415  0.42050  1.0000
  S   S190      1.0  0.22235  0.65934  0.32605  1.0000
  H   H1135     1.0  0.55500  0.52236  0.23458  1.0000
  H   H1136     1.0  0.16591  0.58332  0.27658  1.0000
  C   C663      1.0  0.56764  0.58975  0.97836  1.0000
  H   H1137     1.0  0.56989  0.64822  0.02287  1.0000
  C   C664      1.0  0.40354  0.68758  0.12580  1.0000
  H   H1138     1.0  0.31413  0.61300  0.99345  1.0000
  C   C665      1.0  0.49942  0.54730  0.34330  1.0000
  C   C666      1.0  0.35136  0.54600  0.22306  1.0000
  C   C667      1.0  0.52259  0.59619  0.05860  1.0000
  H   H1139     1.0  0.38947  0.50745  0.11730  1.0000
  S   S191      1.0  0.52158  0.45630  0.99091  1.0000
  H   H1140     1.0  0.12953  0.56898  0.34988  1.0000
  H   H1141     1.0  0.45383  0.69114  0.18594  1.0000
  C   C668      1.0  0.16071  0.62287  0.18815  1.0000
  H   H1142     1.0  0.38646  0.67103  0.16008  1.0000
  C   C669      1.0  0.46011  0.53521  0.09546  1.0000
  H   H1143     1.0  0.33540  0.65011  0.03871  1.0000
  H   H1144     1.0  0.18304  0.67188  0.37201  1.0000
  S   S192      1.0  0.27610  0.60801  0.12745  1.0000
  C   C670      1.0  0.23201  0.58152  0.20785  1.0000
  H   H1145     1.0  0.13083  0.64813  0.23432  1.0000
  C   C671      1.0  0.18440  0.66935  0.40888  1.0000
  H   H1146     1.0  0.33093  0.59698  0.30231  1.0000
  C   C672      1.0  0.57344  0.66287  0.98244  1.0000
  H   H1147     1.0  0.36416  0.55104  0.10304  1.0000
  H   H1148     1.0  0.30954  0.53933  0.39645  1.0000
  H   H1149     1.0  0.60624  0.52572  0.18652  1.0000
  S   S193      1.0  0.41119  0.65828  0.40129  1.0000
  C   C673      1.0  0.31840  0.57443  0.32097  1.0000
  H   H1150     1.0  0.52663  0.58582  0.33418  1.0000
  H   H1151     1.0  0.37954  0.49569  0.18167  1.0000
  C   C674      1.0  0.51076  0.47054  0.39124  1.0000
  H   H1152     1.0  0.49139  0.53675  0.38433  1.0000
  H   H1153     1.0  0.26328  0.64026  0.23051  1.0000
  C   C675      1.0  0.57744  0.68048  0.31990  1.0000
  H   H1154     1.0  0.55281  0.62731  0.36280  1.0000
  H   H1155     1.0  0.53727  0.53078  0.33042  1.0000
  H   H1156     1.0  0.15353  0.51359  0.95844  1.0000
  C   C676      1.0  0.26523  0.50818  0.01700  1.0000
  C   C677      1.0  0.31501  0.50952  0.10279  1.0000
  H   H1157     1.0  0.27393  0.47575  0.13180  1.0000
  H   H1158     1.0  0.33688  0.57101  0.38193  1.0000
  H   H1159     1.0  0.42138  0.45618  0.31970  1.0000
  Fe  Fe100     1.0  0.26471  0.51536  0.18286  1.0000
  C   C678      1.0  0.15671  0.62182  0.31147  1.0000
  C   C679      1.0  0.58247  0.58991  0.01297  1.0000
  C   C680      1.0  0.27500  0.58673  0.34844  1.0000
  C   C681      1.0  0.55626  0.64845  0.95780  1.0000
  H   H1160     1.0  0.29334  0.59994  0.35367  1.0000
  C   C682      1.0  0.30382  0.50530  0.30082  1.0000
  C   C683      1.0  0.35361  0.66507  0.26739  1.0000
  S   S194      1.0  0.37816  0.55989  0.28368  1.0000
  C   C684      1.0  0.54289  0.47006  0.32426  1.0000
  H   H1161     1.0  0.35904  0.46869  0.38453  1.0000
  C   C685      1.0  0.37879  0.50939  0.14354  1.0000
  Fe  Fe101     1.0  0.39872  0.67233  0.33014  1.0000
  C   C686      1.0  0.48774  0.66126  0.30752  1.0000
  H   H1162     1.0  0.45155  0.54579  0.39020  1.0000
  H   H1163     1.0  0.52574  0.59279  0.17536  1.0000
  S   S195      1.0  0.15534  0.69742  0.05446  1.0000
  H   H1164     1.0  0.16272  0.56184  0.96947  1.0000
  H   H1165     1.0  0.13944  0.57164  0.25115  1.0000
  H   H1166     1.0  0.57363  0.60665  0.14534  1.0000
  C   C687      1.0  0.49856  0.68795  0.21656  1.0000
  H   H1167     1.0  0.32500  0.51672  0.00968  1.0000
  H   H1168     1.0  0.61143  0.64320  0.42180  1.0000
  H   H1169     1.0  0.26400  0.50141  0.05570  1.0000
  N   N47       1.0  0.53009  0.47783  0.13388  1.0000
  H   H1170     1.0  0.33933  0.47877  0.15666  1.0000
  H   H1171     1.0  0.16807  0.67110  0.42393  1.0000
  H   H1172     1.0  0.37377  0.51598  0.05088  1.0000
  H   H1173     1.0  0.38324  0.60142  0.33116  1.0000
  H   H1174     1.0  0.51489  0.58590  0.09968  1.0000
  C   C688      1.0  0.51545  0.46103  0.32741  1.0000
  C   C689      1.0  0.18707  0.62277  0.17549  1.0000
  C   C690      1.0  0.60898  0.61091  0.99683  1.0000
  H   H1175     1.0  0.31000  0.51499  0.12877  1.0000
  H   H1176     1.0  0.58325  0.47338  0.21619  1.0000
  H   H1177     1.0  0.48401  0.62118  0.34107  1.0000
  C   C691      1.0  0.49654  0.66561  0.21564  1.0000
  H   H1178     1.0  0.51946  0.56007  0.41889  1.0000
  S   S196      1.0  0.21404  0.59837  0.30809  1.0000
  C   C692      1.0  0.49277  0.64211  0.26040  1.0000
  C   C693      1.0  0.52164  0.52996  0.23780  1.0000
  H   H1179     1.0  0.19479  0.63414  0.13405  1.0000
  H   H1180     1.0  0.57350  0.57381  0.05226  1.0000
  H   H1181     1.0  0.50658  0.45366  0.30423  1.0000
  H   H1182     1.0  0.39001  0.53046  0.13537  1.0000
  H   H1183     1.0  0.34968  0.63574  0.01596  1.0000
  H   H1184     1.0  0.50737  0.50862  0.26470  1.0000
  C   C694      1.0  0.14596  0.58185  0.27222  1.0000
  C   C695      1.0  0.44614  0.56057  0.39035  1.0000
  H   H1185     1.0  0.36101  0.63821  0.94114  1.0000
  H   H1186     1.0  0.43401  0.48422  0.17942  1.0000
  Fe  Fe102     1.0  0.42307  0.70013  0.38561  1.0000
  H   H1187     1.0  0.46175  0.56265  0.11724  1.0000
  C   C696      1.0  0.15383  0.50789  0.13777  1.0000
  H   H1188     1.0  0.18464  0.45473  0.30889  1.0000
  H   H1189     1.0  0.33069  0.56800  0.30748  1.0000
  S   S197      1.0  0.27764  0.48885  0.24292  1.0000
  H   H1190     1.0  0.55990  0.54194  0.40405  1.0000
  C   C697      1.0  0.16716  0.53428  0.95060  1.0000
  S   S198      1.0  0.47696  0.65653  0.36505  1.0000
  H   H1191     1.0  0.59851  0.57084  0.28957  1.0000
  C   C698      1.0  0.40722  0.67529  0.09638  1.0000
  C   C699      1.0  0.35293  0.68749  0.26373  1.0000
  H   H1192     1.0  0.48016  0.45904  0.10871  1.0000
  H   H1193     1.0  0.52339  0.50645  0.17807  1.0000
  H   H1194     1.0  0.29681  0.47290  0.09884  1.0000
  H   H1195     1.0  0.52634  0.53441  0.11961  1.0000
  Fe  Fe103     1.0  0.60470  0.50176  0.40340  1.0000
  H   H1196     1.0  0.52652  0.63540  0.36300  1.0000
  H   H1197     1.0  0.47437  0.47959  0.20449  1.0000
  H   H1198     1.0  0.52411  0.63317  0.04633  1.0000
  H   H1199     1.0  0.47177  0.52805  0.11974  1.0000
  N   N48       1.0  0.56210  0.66027  0.37457  1.0000
  C   C700      1.0  0.36204  0.54728  0.07215  1.0000
  H   H1200     1.0  0.60510  0.49077  0.26589  1.0000
  S   S199      1.0  0.36451  0.64538  0.31503  1.0000
  H   H1201     1.0  0.24261  0.55935  0.98566  1.0000
  Fe  Fe104     1.0  0.47108  0.62515  0.17234  1.0000
  S   S200      1.0  0.43383  0.59025  0.05867  1.0000
  H   H1202     1.0  0.31021  0.52134  0.06805  1.0000
  H   H1203     1.0  0.55336  0.56254  0.27329  1.0000
  C   C701      1.0  0.41703  0.65363  0.21568  1.0000
  C   C702      1.0  0.27983  0.53602  0.97955  1.0000
  C   C703      1.0  0.61744  0.48740  0.24496  1.0000
  C   C704      1.0  0.44111  0.56578  0.05986  1.0000
  H   H1204     1.0  0.12847  0.64643  0.17890  1.0000
  C   C705      1.0  0.27153  0.53781  0.34477  1.0000
  C   C706      1.0  0.58621  0.61397  0.26446  1.0000
  C   C707      1.0  0.36985  0.47707  0.34600  1.0000
  Fe  Fe105     1.0  0.28208  0.69594  0.21068  1.0000
  H   H1205     1.0  0.58201  0.60547  0.24065  1.0000
  C   C708      1.0  0.58181  0.65706  0.40527  1.0000
  C   C709      1.0  0.35794  0.53057  0.41733  1.0000
  C   C710      1.0  0.32866  0.53060  0.21375  1.0000
  Fe  Fe106     1.0  0.44242  0.59279  0.12544  1.0000
  H   H1206     1.0  0.24493  0.52757  0.29968  1.0000
  C   C711      1.0  0.21226  0.68948  0.40698  1.0000
  H   H1207     1.0  0.24128  0.46749  0.03360  1.0000
  S   S201      1.0  0.29367  0.56026  0.99591  1.0000
  H   H1208     1.0  0.14714  0.47698  0.93881  1.0000
  C   C712      1.0  0.56037  0.68741  0.28308  1.0000
  H   H1209     1.0  0.56513  0.47194  0.13916  1.0000
  S   S202      1.0  0.24351  0.50278  0.13402  1.0000
  C   C713      1.0  0.57530  0.59197  0.32150  1.0000
  Fe  Fe107     1.0  0.21628  0.51766  0.14627  1.0000
  C   C714      1.0  0.16593  0.48828  0.04676  1.0000
  C   C715      1.0  0.34555  0.67060  0.95627  1.0000
  C   C716      1.0  0.34592  0.65842  0.23206  1.0000
  H   H1210     1.0  0.61418  0.51680  0.14596  1.0000
  H   H1211     1.0  0.53124  0.45229  0.10832  1.0000
  C   C717      1.0  0.22946  0.60081  0.25632  1.0000
  H   H1212     1.0  0.37056  0.66813  0.00796  1.0000
  H   H1213     1.0  0.30869  0.46819  0.94773  1.0000
  S   S203      1.0  0.23536  0.52664  0.20074  1.0000
  H   H1214     1.0  0.14571  0.48590  0.04319  1.0000
  H   H1215     1.0  0.39565  0.46668  0.16396  1.0000
  C   C718      1.0  0.29636  0.64526  0.98857  1.0000
  C   C719      1.0  0.34629  0.52137  0.00708  1.0000
  H   H1216     1.0  0.36953  0.58871  0.01840  1.0000
  H   H1217     1.0  0.34796  0.48668  0.28992  1.0000
  S   S204      1.0  0.42306  0.55291  0.19993  1.0000
  S   S205      1.0  0.28526  0.69500  0.36867  1.0000
  N   N49       1.0  0.34440  0.51710  0.09298  1.0000
  C   C720      1.0  0.54263  0.63341  0.38145  1.0000
  H   H1218     1.0  0.19954  0.56122  0.27348  1.0000
  Fe  Fe108     1.0  0.22922  0.69230  0.24667  1.0000
  H   H1219     1.0  0.36016  0.54658  0.37896  1.0000
  H   H1220     1.0  0.38282  0.55448  0.05268  1.0000
  H   H1221     1.0  0.60852  0.62591  0.25443  1.0000
  H   H1222     1.0  0.17096  0.47720  0.03334  1.0000
  C   C721      1.0  0.41036  0.58634  0.36678  1.0000
  H   H1223     1.0  0.55406  0.57442  0.42010  1.0000
  H   H1224     1.0  0.53194  0.58434  0.28099  1.0000
  C   C722      1.0  0.54642  0.67016  0.39176  1.0000
  S   S206      1.0  0.61750  0.64478  0.05343  1.0000
  H   H1225     1.0  0.25275  0.62624  0.01313  1.0000
  H   H1226     1.0  0.12829  0.54252  0.34326  1.0000
  H   H1227     1.0  0.13309  0.53996  0.96270  1.0000
  H   H1228     1.0  0.40896  0.62408  0.34299  1.0000
  H   H1229     1.0  0.15793  0.57074  0.06729  1.0000
  C   C723      1.0  0.25221  0.49757  0.95462  1.0000
  H   H1230     1.0  0.48534  0.55435  0.32508  1.0000
  H   H1231     1.0  0.14615  0.61246  0.17262  1.0000
  H   H1232     1.0  0.41466  0.66049  0.11608  1.0000
  C   C724      1.0  0.28207  0.58668  0.30148  1.0000
  H   H1233     1.0  0.31684  0.46779  0.36708  1.0000
  H   H1234     1.0  0.52574  0.52581  0.40634  1.0000
  H   H1235     1.0  0.28538  0.48972  0.33081  1.0000
  H   H1236     1.0  0.55487  0.52930  0.12897  1.0000
  N   N50       1.0  0.19293  0.53597  0.96416  1.0000
  H   H1237     1.0  0.47222  0.50688  0.20281  1.0000
  H   H1238     1.0  0.23052  0.50582  0.36567  1.0000
  H   H1239     1.0  0.54893  0.69606  0.29126  1.0000
  C   C725      1.0  0.48820  0.63986  0.30636  1.0000
  H   H1240     1.0  0.18587  0.45156  0.24251  1.0000
  C   C726      1.0  0.14931  0.54869  0.08813  1.0000
  C   C727      1.0  0.35029  0.65494  0.00779  1.0000
  C   C728      1.0  0.39458  0.60210  0.35911  1.0000
  H   H1241     1.0  0.34070  0.45325  0.24682  1.0000
  H   H1242     1.0  0.57624  0.53059  0.05968  1.0000
  S   S207      1.0  0.23043  0.47394  0.94137  1.0000
  H   H1243     1.0  0.34708  0.64156  0.23410  1.0000
  H   H1244     1.0  0.42906  0.52680  0.01026  1.0000
  C   C729      1.0  0.35287  0.56739  0.03580  1.0000
  H   H1245     1.0  0.23815  0.69251  0.99555  1.0000
  H   H1246     1.0  0.54646  0.66940  0.28220  1.0000
  H   H1247     1.0  0.57774  0.62817  0.25384  1.0000
  C   C730      1.0  0.54861  0.53774  0.22071  1.0000
  C   C731      1.0  0.59723  0.46648  0.23473  1.0000
  H   H1248     1.0  0.30367  0.56493  0.39688  1.0000
  H   H1249     1.0  0.58194  0.53876  0.35063  1.0000
  H   H1250     1.0  0.26410  0.56601  0.38303  1.0000
  C   C732      1.0  0.46237  0.48426  0.22285  1.0000
  C   C733      1.0  0.52777  0.57230  0.32268  1.0000
  H   H1251     1.0  0.14334  0.52579  0.01802  1.0000
  H   H1252     1.0  0.16550  0.64469  0.16537  1.0000
  H   H1253     1.0  0.18514  0.54888  0.11052  1.0000
  S   S208      1.0  0.17185  0.49088  0.16706  1.0000
  H   H1254     1.0  0.50069  0.49213  0.12259  1.0000
  H   H1255     1.0  0.44876  0.67798  0.14734  1.0000
  S   S209      1.0  0.45407  0.58700  0.24950  1.0000
  H   H1256     1.0  0.38049  0.49973  0.32728  1.0000
  S   S210      1.0  0.24121  0.56033  0.07871  1.0000
  H   H1257     1.0  0.23361  0.53913  0.33412  1.0000
  H   H1258     1.0  0.47892  0.63992  0.94981  1.0000
  H   H1259     1.0  0.58819  0.67266  0.30700  1.0000
  H   H1260     1.0  0.49325  0.62565  0.25962  1.0000
  H   H1261     1.0  0.18601  0.62770  0.25848  1.0000
  C   C734      1.0  0.54739  0.45414  0.01963  1.0000
  H   H1262     1.0  0.29629  0.46514  0.16232  1.0000
  S   S211      1.0  0.29331  0.55800  0.11946  1.0000
  H   H1263     1.0  0.17297  0.65013  0.23125  1.0000
  H   H1264     1.0  0.18279  0.52752  0.03903  1.0000
  S   S212      1.0  0.49902  0.51352  0.94641  1.0000
  C   C735      1.0  0.52037  0.66055  0.95459  1.0000
  C   C736      1.0  0.16479  0.53637  0.11208  1.0000
  C   C737      1.0  0.55993  0.48865  0.12757  1.0000
  C   C738      1.0  0.53830  0.47990  0.38759  1.0000
  H   H1265     1.0  0.45833  0.56840  0.41130  1.0000
  C   C739      1.0  0.24375  0.52749  0.33463  1.0000
  C   C740      1.0  0.49938  0.46109  0.36115  1.0000
  H   H1266     1.0  0.26740  0.53364  0.38297  1.0000
  H   H1267     1.0  0.57434  0.50509  0.04766  1.0000
  H   H1268     1.0  0.52908  0.48103  0.06277  1.0000
  C   C741      1.0  0.31853  0.62931  0.95350  1.0000
  C   C742      1.0  0.41559  0.54549  0.41479  1.0000
  C   C743      1.0  0.34907  0.50091  0.14288  1.0000
  H   H1269     1.0  0.36973  0.56177  0.19298  1.0000
  C   C744      1.0  0.53197  0.57739  0.18743  1.0000
  C   C745      1.0  0.57818  0.51188  0.07402  1.0000
  H   H1270     1.0  0.32983  0.66773  0.16796  1.0000
  S   S213      1.0  0.60137  0.57377  0.17236  1.0000
  C   C746      1.0  0.25669  0.60491  0.17570  1.0000
  C   C747      1.0  0.30516  0.50982  0.25294  1.0000
  C   C748      1.0  0.53264  0.51840  0.13715  1.0000
  H   H1271     1.0  0.53739  0.65666  0.43313  1.0000
  C   C749      1.0  0.51622  0.62006  0.03094  1.0000
  H   H1272     1.0  0.61223  0.49184  0.01481  1.0000
  C   C750      1.0  0.35011  0.54118  0.27119  1.0000
  H   H1273     1.0  0.33969  0.50210  0.17221  1.0000
  C   C751      1.0  0.53655  0.55597  0.42578  1.0000
  S   S214      1.0  0.47950  0.53839  0.24733  1.0000
  C   C752      1.0  0.58038  0.55036  0.31216  1.0000
  H   H1274     1.0  0.27648  0.46357  0.93962  1.0000
  H   H1275     1.0  0.20667  0.51816  0.02973  1.0000
  H   H1276     1.0  0.53069  0.51438  0.07354  1.0000
  H   H1277     1.0  0.13053  0.61249  0.41042  1.0000
  H   H1278     1.0  0.42748  0.64230  0.23758  1.0000
  H   H1279     1.0  0.31618  0.61517  0.20262  1.0000
  C   C753      1.0  0.26846  0.63484  0.97932  1.0000
  H   H1280     1.0  0.57187  0.60222  0.33898  1.0000
  C   C754      1.0  0.55431  0.47935  0.35457  1.0000
  H   H1281     1.0  0.33515  0.64908  0.41308  1.0000
  S   S215      1.0  0.49687  0.66694  0.15891  1.0000
  H   H1282     1.0  0.30183  0.64189  0.43454  1.0000
  C   C755      1.0  0.51324  0.54971  0.22140  1.0000
  H   H1283     1.0  0.48880  0.67190  0.94338  1.0000
  Fe  Fe109     1.0  0.41552  0.57602  0.22827  1.0000
  H   H1284     1.0  0.40721  0.57977  0.33976  1.0000
  H   H1285     1.0  0.49398  0.61070  0.04273  1.0000
  H   H1286     1.0  0.32945  0.53453  0.17648  1.0000
  H   H1287     1.0  0.62123  0.53518  0.24173  1.0000
  C   C756      1.0  0.25394  0.62422  0.22357  1.0000
  Fe  Fe110     1.0  0.26655  0.68507  0.31408  1.0000
  S   S216      1.0  0.48360  0.60686  0.13750  1.0000
  H   H1288     1.0  0.28631  0.64455  0.15842  1.0000
  C   C757      1.0  0.49419  0.68577  0.26243  1.0000
  C   C758      1.0  0.15099  0.54095  0.97700  1.0000
  H   H1289     1.0  0.57001  0.67947  0.97852  1.0000
  H   H1290     1.0  0.38505  0.47007  0.34895  1.0000
  Fe  Fe111     1.0  0.53121  0.54730  0.95086  1.0000
  H   H1291     1.0  0.36321  0.46754  0.29026  1.0000
  Fe  Fe112     1.0  0.52964  0.49990  0.94591  1.0000
  H   H1292     1.0  0.40261  0.64081  0.20398  1.0000
  H   H1293     1.0  0.25340  0.59371  0.93534  1.0000
  C   C759      1.0  0.26731  0.62640  0.18317  1.0000
  H   H1294     1.0  0.33557  0.56570  0.05632  1.0000
  H   H1295     1.0  0.38736  0.66396  0.09211  1.0000
  S   S217      1.0  0.45251  0.49541  0.07832  1.0000
  C   C760      1.0  0.33488  0.69522  0.19181  1.0000
  H   H1296     1.0  0.20314  0.63319  0.18854  1.0000
  H   H1297     1.0  0.59694  0.67718  0.39789  1.0000
  H   H1298     1.0  0.42257  0.56467  0.00168  1.0000
  H   H1299     1.0  0.29938  0.66173  0.99497  1.0000
  H   H1300     1.0  0.22701  0.68320  0.40091  1.0000
  C   C761      1.0  0.44990  0.52407  0.06712  1.0000
  N   N51       1.0  0.40421  0.56225  0.41887  1.0000
  C   C762      1.0  0.59233  0.47440  0.02866  1.0000
  C   C763      1.0  0.35108  0.46897  0.31552  1.0000
  Fe  Fe113     1.0  0.46369  0.56798  0.21332  1.0000
  Fe  Fe114     1.0  0.27037  0.54630  0.07093  1.0000
  H   H1301     1.0  0.59953  0.51764  0.07403  1.0000
  H   H1302     1.0  0.40438  0.69411  0.20337  1.0000
  Fe  Fe115     1.0  0.38246  0.46916  0.99186  1.0000
  H   H1303     1.0  0.16464  0.64136  0.30986  1.0000
  H   H1304     1.0  0.49018  0.60684  0.97210  1.0000
  C   C764      1.0  0.32338  0.65473  0.42982  1.0000
  C   C765      1.0  0.57318  0.47661  0.00166  1.0000
  H   H1305     1.0  0.48081  0.64267  0.00417  1.0000
  H   H1306     1.0  0.40628  0.53761  0.39147  1.0000
  H   H1307     1.0  0.13469  0.61217  0.32543  1.0000
  H   H1308     1.0  0.18381  0.60173  0.19085  1.0000
  C   C766      1.0  0.55409  0.55208  0.31261  1.0000
  H   H1309     1.0  0.27879  0.56797  0.24258  1.0000
  C   C767      1.0  0.43831  0.68190  0.17043  1.0000
  N   N52       1.0  0.52629  0.63701  0.97461  1.0000
  C   C768      1.0  0.29478  0.47904  0.12524  1.0000
  H   H1310     1.0  0.32961  0.67659  0.40226  1.0000
  H   H1311     1.0  0.51835  0.60289  0.96785  1.0000
  C   C769      1.0  0.62349  0.52758  0.16504  1.0000
  C   C770      1.0  0.56745  0.56538  0.18733  1.0000
  S   S218      1.0  0.23948  0.67261  0.21285  1.0000
  H   H1312     1.0  0.43211  0.60173  0.35313  1.0000
  H   H1313     1.0  0.42313  0.48063  0.23603  1.0000
  H   H1314     1.0  0.59510  0.67210  0.96442  1.0000
  C   C771      1.0  0.33667  0.67354  0.19410  1.0000
  H   H1315     1.0  0.30556  0.45747  0.28737  1.0000
  Fe  Fe116     1.0  0.23509  0.64110  0.29138  1.0000
  H   H1316     1.0  0.52938  0.67278  0.97128  1.0000
  H   H1317     1.0  0.54702  0.48728  0.41061  1.0000
  H   H1318     1.0  0.35840  0.69244  0.29138  1.0000
  C   C772      1.0  0.16675  0.62821  0.25895  1.0000
  H   H1319     1.0  0.32224  0.59684  0.18003  1.0000
  C   C773      1.0  0.18800  0.51858  0.02026  1.0000
  C   C774      1.0  0.32627  0.52114  0.30991  1.0000
  H   H1320     1.0  0.49895  0.53224  0.33491  1.0000
  C   C775      1.0  0.55909  0.58523  0.17029  1.0000
  H   H1321     1.0  0.29724  0.60820  0.27284  1.0000
  Fe  Fe117     1.0  0.26209  0.56847  0.13250  1.0000
  H   H1322     1.0  0.59175  0.58799  0.33596  1.0000
  H   H1323     1.0  0.34001  0.60248  0.22248  1.0000
  C   C776      1.0  0.35191  0.50947  0.05874  1.0000
  H   H1324     1.0  0.30095  0.55404  0.26048  1.0000
  C   C777      1.0  0.25203  0.48896  0.00447  1.0000
  S   S219      1.0  0.58837  0.48892  0.35129  1.0000
  H   H1325     1.0  0.51213  0.58035  0.05015  1.0000
  C   C778      1.0  0.29696  0.57040  0.25677  1.0000
  H   H1326     1.0  0.22337  0.56513  0.20149  1.0000
  H   H1327     1.0  0.26452  0.58351  0.28602  1.0000
  C   C779      1.0  0.51588  0.45725  0.18900  1.0000
  C   C780      1.0  0.31661  0.56159  0.37732  1.0000
  H   H1328     1.0  0.58505  0.62357  0.40565  1.0000
  S   S220      1.0  0.53420  0.56366  0.99950  1.0000
  S   S221      1.0  0.38129  0.47149  0.05983  1.0000
  N   N53       1.0  0.55010  0.56571  0.33756  1.0000
  N   N54       1.0  0.29210  0.56733  0.30695  1.0000
  H   H1329     1.0  0.52288  0.46689  0.21078  1.0000
  H   H1330     1.0  0.16437  0.47776  0.08756  1.0000
  H   H1331     1.0  0.55516  0.46959  0.29869  1.0000
  S   S222      1.0  0.42234  0.46966  0.98823  1.0000
  S   S223      1.0  0.55955  0.53084  0.95841  1.0000
  H   H1332     1.0  0.46363  0.47678  0.26193  1.0000
  H   H1333     1.0  0.58041  0.53924  0.29410  1.0000
  C   C781      1.0  0.12959  0.46092  0.97043  1.0000
  C   C782      1.0  0.21224  0.56540  0.94577  1.0000
  H   H1334     1.0  0.36289  0.51569  0.41659  1.0000
  C   C783      1.0  0.49038  0.65284  0.96386  1.0000
  H   H1335     1.0  0.49833  0.47067  0.41720  1.0000
  N   N55       1.0  0.31973  0.65445  0.94873  1.0000
  H   H1336     1.0  0.20349  0.70022  0.08265  1.0000
  H   H1337     1.0  0.59351  0.69996  0.31386  1.0000
  H   H1338     1.0  0.42096  0.69153  0.05805  1.0000
  H   H1339     1.0  0.22187  0.52394  0.95353  1.0000
  C   C784      1.0  0.12592  0.56115  0.32506  1.0000
  H   H1340     1.0  0.12803  0.68449  0.36525  1.0000
  H   H1341     1.0  0.18953  0.50447  0.95172  1.0000
  C   C785      1.0  0.24147  0.57200  0.94739  1.0000
  C   C786      1.0  0.20438  0.52565  0.94013  1.0000
  C   C787      1.0  0.56245  0.69964  0.37963  1.0000
  H   H1342     1.0  0.42539  0.52535  0.93971  1.0000
  H   H1343     1.0  0.61444  0.58610  0.93614  1.0000
  H   H1344     1.0  0.30143  0.61980  0.94068  1.0000
  H   H1345     1.0  0.41207  0.60689  0.43289  1.0000
  H   H1346     1.0  0.18058  0.64805  0.43507  1.0000
  Fe  Fe118     1.0  0.15673  0.91564  0.52922  1.0000
  S   S224      1.0  0.60709  0.90794  0.81388  1.0000
  H   H1347     1.0  0.23028  0.87481  0.61306  1.0000
  C   C788      1.0  0.41762  0.88318  0.72859  1.0000
  H   H1348     1.0  0.12973  0.87324  0.91330  1.0000
  C   C789      1.0  0.24877  0.78534  0.56956  1.0000
  S   S225      1.0  0.36347  0.85118  0.77323  1.0000
  C   C790      1.0  0.42991  0.73296  0.44691  1.0000
  H   H1349     1.0  0.25657  0.82258  0.56440  1.0000
  H   H1350     1.0  0.37185  0.89515  0.66129  1.0000
  H   H1351     1.0  0.34329  0.79911  0.87813  1.0000
  H   H1352     1.0  0.43921  0.92509  0.77474  1.0000
  C   C791      1.0  0.62481  0.91899  0.59432  1.0000
  C   C792      1.0  0.43036  0.70837  0.67250  1.0000
  C   C793      1.0  0.52435  0.87529  0.50880  1.0000
  H   H1353     1.0  0.58727  0.94358  0.61888  1.0000
  H   H1354     1.0  0.34855  0.93012  0.76296  1.0000
  C   C794      1.0  0.20818  0.89585  0.57756  1.0000
  Fe  Fe119     1.0  0.57697  0.74237  0.62962  1.0000
  H   H1355     1.0  0.24487  0.85793  0.54112  1.0000
  H   H1356     1.0  0.57935  0.77076  0.75232  1.0000
  H   H1357     1.0  0.38149  0.73978  0.56321  1.0000
  S   S226      1.0  0.13377  0.87770  0.60548  1.0000
  C   C795      1.0  0.28273  0.91304  0.57636  1.0000
  H   H1358     1.0  0.52566  0.90292  0.55315  1.0000
  H   H1359     1.0  0.19181  0.82496  0.80563  1.0000
  H   H1360     1.0  0.60297  0.90954  0.66273  1.0000
  H   H1361     1.0  0.52888  0.89139  0.46896  1.0000
  C   C796      1.0  0.29191  0.93044  0.52396  1.0000
  Fe  Fe120     1.0  0.27409  0.77936  0.79001  1.0000
  H   H1362     1.0  0.15225  0.79103  0.64607  1.0000
  Fe  Fe121     1.0  0.56901  0.78504  0.63672  1.0000
  C   C797      1.0  0.57266  0.89115  0.51138  1.0000
  H   H1363     1.0  0.39068  0.92911  0.68790  1.0000
  H   H1364     1.0  0.51245  0.72528  0.54696  1.0000
  H   H1365     1.0  0.57417  0.87358  0.60865  1.0000
  C   C798      1.0  0.57444  0.73632  0.82363  1.0000
  H   H1366     1.0  0.30601  0.90767  0.73990  1.0000
  C   C799      1.0  0.43754  0.75909  0.48545  1.0000
  Fe  Fe122     1.0  0.52049  0.73198  0.66103  1.0000
  C   C800      1.0  0.61156  0.72035  0.53295  1.0000
  H   H1367     1.0  0.41449  0.86252  0.63155  1.0000
  H   H1368     1.0  0.44242  0.93550  0.81920  1.0000
  H   H1369     1.0  0.24633  0.74869  0.57880  1.0000
  C   C801      1.0  0.58230  0.76399  0.78939  1.0000
  H   H1370     1.0  0.50032  0.75783  0.48424  1.0000
  H   H1371     1.0  0.26606  0.77211  0.90163  1.0000
  H   H1372     1.0  0.36915  0.78681  0.68513  1.0000
  C   C802      1.0  0.16361  0.86193  0.73071  1.0000
  S   S227      1.0  0.55991  0.71136  0.80931  1.0000
  H   H1373     1.0  0.58883  0.95016  0.70800  1.0000
  C   C803      1.0  0.41069  0.70516  0.74533  1.0000
  H   H1374     1.0  0.42412  0.78954  0.65099  1.0000
  C   C804      1.0  0.15755  0.80910  0.78052  1.0000
  S   S228      1.0  0.53235  0.75311  0.70261  1.0000
  H   H1375     1.0  0.24867  0.72508  0.52563  1.0000
  Fe  Fe123     1.0  0.14138  0.94929  0.55566  1.0000
  S   S229      1.0  0.59320  0.76385  0.66898  1.0000
  S   S230      1.0  0.47940  0.71320  0.65145  1.0000
  C   C805      1.0  0.15143  0.87598  0.48968  1.0000
  H   H1376     1.0  0.46102  0.91981  0.81360  1.0000
  H   H1377     1.0  0.18759  0.89196  0.57512  1.0000
  H   H1378     1.0  0.31758  0.89690  0.49889  1.0000
  N   N56       1.0  0.39371  0.78066  0.61284  1.0000
  C   C806      1.0  0.40899  0.70565  0.70104  1.0000
  S   S231      1.0  0.46785  0.90494  0.60555  1.0000
  Fe  Fe124     1.0  0.19484  0.74310  0.55521  1.0000
  C   C807      1.0  0.24452  0.71203  0.85840  1.0000
  H   H1379     1.0  0.18929  0.73579  0.65501  1.0000
  C   C808      1.0  0.39221  0.85587  0.69646  1.0000
  C   C809      1.0  0.23669  0.87234  0.52548  1.0000
  C   C810      1.0  0.20900  0.86916  0.61325  1.0000
  S   S232      1.0  0.60731  0.74074  0.58770  1.0000
  C   C811      1.0  0.30813  0.90161  0.52045  1.0000
  H   H1380     1.0  0.41517  0.75922  0.65375  1.0000
  C   C812      1.0  0.54570  0.90887  0.53233  1.0000
  C   C813      1.0  0.41878  0.78052  0.62788  1.0000
  H   H1381     1.0  0.40520  0.81752  0.61304  1.0000
  C   C814      1.0  0.45618  0.71172  0.73095  1.0000
  S   S233      1.0  0.32751  0.84719  0.67089  1.0000
  H   H1382     1.0  0.44126  0.79627  0.55103  1.0000
  H   H1383     1.0  0.23887  0.71937  0.70313  1.0000
  H   H1384     1.0  0.36985  0.72678  0.62757  1.0000
  C   C815      1.0  0.46202  0.77970  0.44870  1.0000
  Fe  Fe125     1.0  0.15429  0.77066  0.89154  1.0000
  H   H1385     1.0  0.29574  0.82636  0.59919  1.0000
  H   H1386     1.0  0.26202  0.80963  0.90159  1.0000
  S   S234      1.0  0.24414  0.73925  0.85871  1.0000
  H   H1387     1.0  0.21532  0.90942  0.59214  1.0000
  C   C816      1.0  0.38728  0.77160  0.57662  1.0000
  H   H1388     1.0  0.42867  0.70845  0.63851  1.0000
  H   H1389     1.0  0.27910  0.78469  0.48127  1.0000
  H   H1390     1.0  0.19890  0.87251  0.52482  1.0000
  S   S235      1.0  0.61132  0.79622  0.87209  1.0000
  C   C817      1.0  0.36401  0.94827  0.72749  1.0000
  C   C818      1.0  0.59396  0.78298  0.80336  1.0000
  H   H1391     1.0  0.47427  0.71369  0.74298  1.0000
  H   H1392     1.0  0.41846  0.88895  0.75557  1.0000
  H   H1393     1.0  0.61932  0.88454  0.51385  1.0000
  S   S236      1.0  0.15112  0.73013  0.55992  1.0000
  H   H1394     1.0  0.55117  0.88200  0.62920  1.0000
  S   S237      1.0  0.27104  0.86659  0.66575  1.0000
  C   C819      1.0  0.55275  0.86702  0.62275  1.0000
  C   C820      1.0  0.60078  0.84314  0.46620  1.0000
  H   H1395     1.0  0.41396  0.85048  0.52697  1.0000
  S   S238      1.0  0.17670  0.94169  0.55980  1.0000
  H   H1396     1.0  0.40563  0.74463  0.59776  1.0000
  H   H1397     1.0  0.29620  0.81668  0.89039  1.0000
  H   H1398     1.0  0.52848  0.72291  0.50247  1.0000
  C   C821      1.0  0.43970  0.88830  0.65548  1.0000
  H   H1399     1.0  0.23976  0.73593  0.73524  1.0000
  N   N57       1.0  0.35297  0.92765  0.67325  1.0000
  S   S239      1.0  0.15212  0.77559  0.81720  1.0000
  H   H1400     1.0  0.24744  0.88922  0.53103  1.0000
  S   S240      1.0  0.17425  0.90838  0.47709  1.0000
  C   C822      1.0  0.22838  0.72820  0.71350  1.0000
  S   S241      1.0  0.16748  0.89490  0.70130  1.0000
  C   C823      1.0  0.27986  0.76827  0.60170  1.0000
  H   H1401     1.0  0.19720  0.87175  0.76141  1.0000
  S   S242      1.0  0.22063  0.78340  0.54646  1.0000
  N   N58       1.0  0.19672  0.84684  0.60275  1.0000
  C   C824      1.0  0.59713  0.77401  0.85181  1.0000
  H   H1402     1.0  0.39967  0.82580  0.51057  1.0000
  C   C825      1.0  0.42139  0.73593  0.48429  1.0000
  H   H1403     1.0  0.12762  0.85256  0.87204  1.0000
  H   H1404     1.0  0.30539  0.87748  0.78830  1.0000
  C   C826      1.0  0.51477  0.75309  0.47187  1.0000
  H   H1405     1.0  0.36900  0.73990  0.67951  1.0000
  C   C827      1.0  0.59946  0.94102  0.59733  1.0000
  H   H1406     1.0  0.31471  0.80052  0.47063  1.0000
  H   H1407     1.0  0.22155  0.90750  0.53926  1.0000
  H   H1408     1.0  0.37904  0.92348  0.59834  1.0000
  H   H1409     1.0  0.45708  0.81728  0.57561  1.0000
  H   H1410     1.0  0.22721  0.93724  0.67413  1.0000
  C   C828      1.0  0.60872  0.83054  0.44147  1.0000
  H   H1411     1.0  0.59160  0.73939  0.92319  1.0000
  C   C829      1.0  0.17629  0.72714  0.82563  1.0000
  S   S243      1.0  0.28790  0.82003  0.78080  1.0000
  H   H1412     1.0  0.17304  0.79899  0.70464  1.0000
  H   H1413     1.0  0.29072  0.74216  0.54928  1.0000
  C   C830      1.0  0.14292  0.84145  0.72754  1.0000
  H   H1414     1.0  0.56032  0.91572  0.55161  1.0000
  H   H1415     1.0  0.37348  0.84043  0.69871  1.0000
  H   H1416     1.0  0.15902  0.83032  0.65459  1.0000
  H   H1417     1.0  0.30093  0.86595  0.59172  1.0000
  H   H1418     1.0  0.17674  0.75869  0.64433  1.0000
  C   C831      1.0  0.22440  0.95007  0.68563  1.0000
  Fe  Fe126     1.0  0.55584  0.73057  0.73136  1.0000
  C   C832      1.0  0.27942  0.72071  0.56237  1.0000
  S   S244      1.0  0.55532  0.76580  0.59240  1.0000
  H   H1419     1.0  0.57340  0.87179  0.52514  1.0000
  C   C833      1.0  0.57842  0.72783  0.87125  1.0000
  H   H1420     1.0  0.17672  0.74674  0.79875  1.0000
  C   C834      1.0  0.18128  0.85600  0.75867  1.0000
  H   H1421     1.0  0.29423  0.87855  0.73489  1.0000
  C   C835      1.0  0.18287  0.74003  0.71866  1.0000
  H   H1422     1.0  0.45686  0.78525  0.59852  1.0000
  C   C836      1.0  0.38613  0.74411  0.59287  1.0000
  H   H1423     1.0  0.35072  0.75735  0.64993  1.0000
  C   C837      1.0  0.39318  0.86380  0.73067  1.0000
  H   H1424     1.0  0.35006  0.89710  0.74914  1.0000
  H   H1425     1.0  0.18130  0.87380  0.45179  1.0000
  H   H1426     1.0  0.28602  0.75278  0.61332  1.0000
  S   S245      1.0  0.26742  0.79388  0.71361  1.0000
  H   H1427     1.0  0.51452  0.85480  0.60569  1.0000
  Fe  Fe127     1.0  0.15054  0.90439  0.63526  1.0000
  C   C838      1.0  0.28519  0.80961  0.59423  1.0000
  H   H1428     1.0  0.20353  0.82500  0.70305  1.0000
  H   H1429     1.0  0.61592  0.70286  0.49249  1.0000
  C   C839      1.0  0.39576  0.80851  0.59124  1.0000
  C   C840      1.0  0.41132  0.83046  0.53548  1.0000
  C   C841      1.0  0.44094  0.89535  0.69108  1.0000
  H   H1430     1.0  0.50928  0.83068  0.54774  1.0000
  H   H1431     1.0  0.16059  0.84998  0.59073  1.0000
  H   H1432     1.0  0.54507  0.84764  0.66019  1.0000
  C   C842      1.0  0.32133  0.78449  0.89193  1.0000
  H   H1433     1.0  0.59739  0.83114  0.50740  1.0000
  C   C843      1.0  0.14991  0.80849  0.61738  1.0000
  C   C844      1.0  0.45339  0.93430  0.79200  1.0000
  H   H1434     1.0  0.22707  0.94590  0.90004  1.0000
  H   H1435     1.0  0.60012  0.80439  0.77694  1.0000
  H   H1436     1.0  0.22750  0.83510  0.62391  1.0000
  S   S246      1.0  0.18658  0.76864  0.93061  1.0000
  H   H1437     1.0  0.20288  0.79579  0.70861  1.0000
  H   H1438     1.0  0.19726  0.84117  0.54078  1.0000
  H   H1439     1.0  0.58790  0.90212  0.52506  1.0000
  C   C845      1.0  0.17827  0.82959  0.78351  1.0000
  H   H1440     1.0  0.21146  0.93581  0.72499  1.0000
  S   S247      1.0  0.31589  0.78734  0.76623  1.0000
  C   C846      1.0  0.38418  0.91751  0.63459  1.0000
  C   C847      1.0  0.38126  0.93356  0.65625  1.0000
  H   H1441     1.0  0.24115  0.88149  0.48434  1.0000
  C   C848      1.0  0.44470  0.79594  0.58545  1.0000
  H   H1442     1.0  0.61565  0.86493  0.44987  1.0000
  H   H1443     1.0  0.43163  0.83325  0.52585  1.0000
  C   C849      1.0  0.16054  0.86334  0.47307  1.0000
  C   C850      1.0  0.13999  0.81503  0.75218  1.0000
  N   N59       1.0  0.54504  0.88468  0.53380  1.0000
  H   H1444     1.0  0.40551  0.92207  0.62726  1.0000
  H   H1445     1.0  0.33605  0.88364  0.71372  1.0000
  H   H1446     1.0  0.33498  0.91096  0.62937  1.0000
  H   H1447     1.0  0.23981  0.73425  0.43803  1.0000
  H   H1448     1.0  0.43103  0.76111  0.51478  1.0000
  C   C851      1.0  0.41544  0.86821  0.65872  1.0000
  H   H1449     1.0  0.51332  0.75531  0.43530  1.0000
  S   S248      1.0  0.15142  0.80079  0.90539  1.0000
  H   H1450     1.0  0.12856  0.84567  0.70779  1.0000
  C   C852      1.0  0.19275  0.72043  0.79978  1.0000
  C   C853      1.0  0.46167  0.70169  0.54402  1.0000
  C   C854      1.0  0.28774  0.70235  0.59482  1.0000
  H   H1451     1.0  0.19509  0.70314  0.82960  1.0000
  C   C855      1.0  0.14292  0.83700  0.48452  1.0000
  C   C856      1.0  0.33823  0.89960  0.72100  1.0000
  H   H1452     1.0  0.19866  0.80996  0.62293  1.0000
  C   C857      1.0  0.37056  0.76781  0.69941  1.0000
  H   H1453     1.0  0.21338  0.73834  0.78225  1.0000
  H   H1454     1.0  0.15907  0.77259  0.45790  1.0000
  H   H1455     1.0  0.50760  0.84698  0.48456  1.0000
  H   H1456     1.0  0.50435  0.87085  0.52661  1.0000
  C   C858      1.0  0.58916  0.74640  0.88579  1.0000
  H   H1457     1.0  0.45986  0.91006  0.68982  1.0000
  C   C859      1.0  0.19530  0.81064  0.69042  1.0000
  Fe  Fe128     1.0  0.31025  0.80434  0.68884  1.0000
  H   H1458     1.0  0.60343  0.92602  0.44108  1.0000
  H   H1459     1.0  0.28853  0.94786  0.50527  1.0000
  S   S249      1.0  0.31927  0.79196  0.63821  1.0000
  H   H1460     1.0  0.26587  0.82875  0.46265  1.0000
  S   S250      1.0  0.60322  0.85967  0.77115  1.0000
  C   C860      1.0  0.16652  0.83483  0.61701  1.0000
  C   C861      1.0  0.37023  0.76041  0.65967  1.0000
  H   H1461     1.0  0.47647  0.71705  0.45064  1.0000
  S   S251      1.0  0.18758  0.70157  0.61695  1.0000
  C   C862      1.0  0.28554  0.88948  0.60080  1.0000
  H   H1462     1.0  0.53525  0.76899  0.46546  1.0000
  S   S252      1.0  0.53541  0.93767  0.63326  1.0000
  H   H1463     1.0  0.55141  0.95001  0.48529  1.0000
  S   S253      1.0  0.58527  0.83044  0.59951  1.0000
  C   C863      1.0  0.30419  0.92449  0.49586  1.0000
  C   C864      1.0  0.55371  0.93491  0.48015  1.0000
  H   H1464     1.0  0.15467  0.81159  0.58016  1.0000
  C   C865      1.0  0.29350  0.78995  0.60826  1.0000
  C   C866      1.0  0.25726  0.76580  0.58272  1.0000
  H   H1465     1.0  0.53950  0.85135  0.49629  1.0000
  S   S254      1.0  0.31600  0.71450  0.61466  1.0000
  C   C867      1.0  0.20606  0.85785  0.54791  1.0000
  H   H1466     1.0  0.53531  0.84311  0.59194  1.0000
  N   N60       1.0  0.18194  0.71450  0.76152  1.0000
  H   H1467     1.0  0.36756  0.76997  0.56963  1.0000
  H   H1468     1.0  0.29442  0.87617  0.43801  1.0000
  H   H1469     1.0  0.54074  0.93136  0.45606  1.0000
  H   H1470     1.0  0.33951  0.71624  0.86881  1.0000
  H   H1471     1.0  0.31178  0.79490  0.86505  1.0000
  H   H1472     1.0  0.29677  0.81388  0.48685  1.0000
  C   C868      1.0  0.30943  0.89059  0.74693  1.0000
  S   S255      1.0  0.20165  0.73661  0.49404  1.0000
  H   H1473     1.0  0.61786  0.79472  0.51814  1.0000
  H   H1474     1.0  0.27502  0.73591  0.93282  1.0000
  H   H1475     1.0  0.31878  0.76658  0.89093  1.0000
  Fe  Fe129     1.0  0.32922  0.82919  0.75089  1.0000
  Fe  Fe130     1.0  0.28524  0.83554  0.70163  1.0000
  H   H1476     1.0  0.31694  0.92313  0.64796  1.0000
  C   C869      1.0  0.60863  0.92204  0.62212  1.0000
  H   H1477     1.0  0.40199  0.78676  0.53907  1.0000
  C   C870      1.0  0.58324  0.90810  0.45338  1.0000
  H   H1478     1.0  0.38839  0.76940  0.71412  1.0000
  C   C871      1.0  0.50495  0.70358  0.44533  1.0000
  S   S256      1.0  0.48105  0.80822  0.45245  1.0000
  C   C872      1.0  0.53561  0.86144  0.58837  1.0000
  C   C873      1.0  0.27642  0.80286  0.91911  1.0000
  C   C874      1.0  0.17527  0.73880  0.67317  1.0000
  H   H1479     1.0  0.27245  0.73753  0.78494  1.0000
  Fe  Fe131     1.0  0.50134  0.94101  0.60130  1.0000
  H   H1480     1.0  0.35253  0.75120  0.73191  1.0000
  H   H1481     1.0  0.57344  0.70691  0.89670  1.0000
  H   H1482     1.0  0.37524  0.80659  0.59464  1.0000
  H   H1483     1.0  0.19883  0.86179  0.65180  1.0000
  H   H1484     1.0  0.20319  0.75814  0.70468  1.0000
  C   C875      1.0  0.60195  0.70294  0.51559  1.0000
  C   C876      1.0  0.29875  0.88409  0.57296  1.0000
  H   H1485     1.0  0.57526  0.94492  0.46054  1.0000
  H   H1486     1.0  0.27252  0.91730  0.59779  1.0000
  H   H1487     1.0  0.30690  0.70412  0.85734  1.0000
  C   C877      1.0  0.35485  0.94969  0.68112  1.0000
  H   H1488     1.0  0.15013  0.82714  0.47217  1.0000
  C   C878      1.0  0.33783  0.92776  0.63465  1.0000
  C   C879      1.0  0.45392  0.71121  0.68756  1.0000
  H   H1489     1.0  0.22966  0.74574  0.67818  1.0000
  C   C880      1.0  0.26302  0.80744  0.57460  1.0000
  C   C881      1.0  0.52024  0.84961  0.50979  1.0000
  C   C882      1.0  0.26052  0.71692  0.81728  1.0000
  C   C883      1.0  0.29752  0.80478  0.46515  1.0000
  C   C884      1.0  0.20512  0.82557  0.63292  1.0000
  C   C885      1.0  0.59371  0.71960  0.56505  1.0000
  C   C886      1.0  0.62034  0.84892  0.57248  1.0000
  C   C887      1.0  0.51079  0.72465  0.51267  1.0000
  C   C888      1.0  0.43458  0.70876  0.75978  1.0000
  Fe  Fe132     1.0  0.15747  0.72065  0.50290  1.0000
  H   H1490     1.0  0.46019  0.71974  0.51508  1.0000
  H   H1491     1.0  0.59230  0.80899  0.46032  1.0000
  S   S257      1.0  0.54130  0.70695  0.69481  1.0000
  H   H1492     1.0  0.40244  0.72015  0.51280  1.0000
  C   C889      1.0  0.25573  0.71109  0.54886  1.0000
  H   H1493     1.0  0.33608  0.72486  0.47716  1.0000
  H   H1494     1.0  0.24630  0.79306  0.45121  1.0000
  H   H1495     1.0  0.38341  0.94803  0.72761  1.0000
  C   C890      1.0  0.19899  0.70589  0.74392  1.0000
  H   H1496     1.0  0.58619  0.89568  0.44086  1.0000
  H   H1497     1.0  0.16879  0.74507  0.73149  1.0000
  H   H1498     1.0  0.60194  0.78109  0.45093  1.0000
  H   H1499     1.0  0.61162  0.71406  0.83605  1.0000
  H   H1500     1.0  0.18570  0.72990  0.85428  1.0000
  H   H1501     1.0  0.33540  0.94997  0.68336  1.0000
  H   H1502     1.0  0.43615  0.70856  0.79387  1.0000
  H   H1503     1.0  0.61410  0.94781  0.67901  1.0000
  H   H1504     1.0  0.15427  0.72274  0.68309  1.0000
  H   H1505     1.0  0.46526  0.70506  0.57499  1.0000
  H   H1506     1.0  0.15518  0.71056  0.84556  1.0000
  H   H1507     1.0  0.39137  0.70438  0.68831  1.0000
  H   H1508     1.0  0.58132  0.84241  0.45987  1.0000
  S   S258      1.0  0.40918  0.70318  0.44811  1.0000
  H   H1509     1.0  0.12819  0.80243  0.62691  1.0000
  H   H1510     1.0  0.25197  0.71065  0.44673  1.0000
  C   C891      1.0  0.32313  0.70226  0.50118  1.0000
  C   C892      1.0  0.62391  0.78873  0.44034  1.0000
  H   H1511     1.0  0.31519  0.86201  0.43555  1.0000
  H   H1512     1.0  0.50730  0.74982  0.24346  1.0000
  N   N61       1.0  0.55961  0.76119  0.03017  1.0000
  H   H1513     1.0  0.57977  0.70271  0.39586  1.0000
  C   C893      1.0  0.56497  0.73937  0.12033  1.0000
  H   H1514     1.0  0.26510  0.91770  0.06742  1.0000
  N   N62       1.0  0.12679  0.90151  0.34436  1.0000
  H   H1515     1.0  0.25152  0.88408  0.01893  1.0000
  H   H1516     1.0  0.13207  0.72662  0.28971  1.0000
  H   H1517     1.0  0.23013  0.94997  0.26338  1.0000
  H   H1518     1.0  0.45833  0.71706  0.07350  1.0000
  C   C894      1.0  0.15828  0.80696  0.39457  1.0000
  H   H1519     1.0  0.59434  0.79203  0.03307  1.0000
  H   H1520     1.0  0.14671  0.93654  0.35090  1.0000
  H   H1521     1.0  0.55960  0.89419  0.14868  1.0000
  C   C895      1.0  0.14096  0.92727  0.04757  1.0000
  S   S259      1.0  0.50929  0.88202  0.20346  1.0000
  C   C896      1.0  0.20277  0.70540  0.14466  1.0000
  H   H1522     1.0  0.28598  0.90753  0.25436  1.0000
  H   H1523     1.0  0.56774  0.82635  0.35974  1.0000
  H   H1524     1.0  0.24146  0.78214  0.14390  1.0000
  C   C897      1.0  0.21621  0.91006  0.04950  1.0000
  H   H1525     1.0  0.24159  0.75081  0.23675  1.0000
  H   H1526     1.0  0.52057  0.94530  0.02737  1.0000
  Fe  Fe133     1.0  0.56933  0.87930  0.31335  1.0000
  H   H1527     1.0  0.50271  0.72078  0.05442  1.0000
  C   C898      1.0  0.34440  0.78637  0.27434  1.0000
  H   H1528     1.0  0.19616  0.76167  0.36255  1.0000
  C   C899      1.0  0.58398  0.82709  0.33981  1.0000
  C   C900      1.0  0.15624  0.78086  0.42072  1.0000
  N   N63       1.0  0.18332  0.78225  0.17982  1.0000
  C   C901      1.0  0.26845  0.87933  0.17983  1.0000
  C   C902      1.0  0.15349  0.81733  0.34727  1.0000
  C   C903      1.0  0.55592  0.79345  0.13172  1.0000
  H   H1529     1.0  0.32128  0.76557  0.96895  1.0000
  H   H1530     1.0  0.38921  0.78247  0.27449  1.0000
  H   H1531     1.0  0.23578  0.82238  0.34846  1.0000
  H   H1532     1.0  0.14491  0.90695  0.40008  1.0000
  H   H1533     1.0  0.18992  0.90873  0.30895  1.0000
  H   H1534     1.0  0.53171  0.80418  0.27571  1.0000
  C   C904      1.0  0.41119  0.73277  0.14177  1.0000
  C   C905      1.0  0.17333  0.90350  0.33738  1.0000
  C   C906      1.0  0.54103  0.80376  0.10096  1.0000
  H   H1535     1.0  0.24418  0.76157  0.95639  1.0000
  C   C907      1.0  0.57683  0.75145  0.01688  1.0000
  H   H1536     1.0  0.19520  0.75477  0.17639  1.0000
  H   H1537     1.0  0.18296  0.71660  0.37793  1.0000
  H   H1538     1.0  0.54840  0.77222  0.96044  1.0000
  H   H1539     1.0  0.16343  0.72809  0.27546  1.0000
  H   H1540     1.0  0.49511  0.70285  0.26301  1.0000
  C   C908      1.0  0.26466  0.90156  0.16907  1.0000
  H   H1541     1.0  0.14154  0.76439  0.33407  1.0000
  H   H1542     1.0  0.20007  0.72140  0.42102  1.0000
  H   H1543     1.0  0.58817  0.89878  0.20539  1.0000
  N   N64       1.0  0.27951  0.94411  0.27977  1.0000
  H   H1544     1.0  0.31789  0.73050  0.26635  1.0000
  H   H1545     1.0  0.28500  0.72300  0.98856  1.0000
  Fe  Fe134     1.0  0.51215  0.84628  0.38177  1.0000
  H   H1546     1.0  0.52222  0.72182  0.00678  1.0000
  C   C909      1.0  0.46455  0.79220  0.27316  1.0000
  H   H1547     1.0  0.54906  0.70383  0.39647  1.0000
  H   H1548     1.0  0.52519  0.86428  0.14048  1.0000
  C   C910      1.0  0.15369  0.74091  0.26898  1.0000
  C   C911      1.0  0.51420  0.91351  0.15292  1.0000
  C   C912      1.0  0.59955  0.86411  0.15917  1.0000
  H   H1549     1.0  0.27807  0.80577  0.95073  1.0000
  H   H1550     1.0  0.31555  0.92496  0.26989  1.0000
  C   C913      1.0  0.45325  0.80576  0.29003  1.0000
  C   C914      1.0  0.31098  0.72936  0.33427  1.0000
  C   C915      1.0  0.20652  0.89148  0.10735  1.0000
  S   S260      1.0  0.56340  0.91472  0.26057  1.0000
  H   H1551     1.0  0.39627  0.70219  0.10263  1.0000
  H   H1552     1.0  0.18216  0.84282  0.01392  1.0000
  C   C916      1.0  0.62193  0.72566  0.11563  1.0000
  S   S261      1.0  0.30073  0.80679  0.18929  1.0000
  C   C917      1.0  0.24969  0.85282  0.21920  1.0000
  H   H1553     1.0  0.40272  0.94235  0.23869  1.0000
  S   S262      1.0  0.21493  0.83243  0.94451  1.0000
  H   H1554     1.0  0.56989  0.85446  0.23939  1.0000
  H   H1555     1.0  0.34512  0.95075  0.07094  1.0000
  C   C918      1.0  0.25428  0.80666  0.40961  1.0000
  H   H1556     1.0  0.34550  0.78096  0.21263  1.0000
  C   C919      1.0  0.45458  0.75334  0.41047  1.0000
  C   C920      1.0  0.58297  0.80271  0.35018  1.0000
  C   C921      1.0  0.50208  0.77576  0.17311  1.0000
  H   H1557     1.0  0.49022  0.76035  0.06058  1.0000
  H   H1558     1.0  0.42230  0.74800  0.10168  1.0000
  C   C922      1.0  0.27209  0.73218  0.97109  1.0000
  H   H1559     1.0  0.29671  0.85899  0.26552  1.0000
  H   H1560     1.0  0.45772  0.84402  0.20260  1.0000
  H   H1561     1.0  0.56760  0.87131  0.09112  1.0000
  C   C923      1.0  0.27603  0.83703  0.00925  1.0000
  H   H1562     1.0  0.40990  0.75499  0.36444  1.0000
  H   H1563     1.0  0.23333  0.93021  0.03882  1.0000
  H   H1564     1.0  0.51305  0.90112  0.10057  1.0000
  H   H1565     1.0  0.24538  0.76859  0.26766  1.0000
  C   C924      1.0  0.27362  0.75366  0.01934  1.0000
  H   H1566     1.0  0.20717  0.87518  0.96225  1.0000
  C   C925      1.0  0.18809  0.70708  0.17759  1.0000
  H   H1567     1.0  0.56096  0.71646  0.00818  1.0000
  H   H1568     1.0  0.61768  0.91112  0.15912  1.0000
  H   H1569     1.0  0.27761  0.71630  0.06637  1.0000
  N   N65       1.0  0.22355  0.89855  0.02292  1.0000
  C   C926      1.0  0.25047  0.73534  0.36943  1.0000
  C   C927      1.0  0.26591  0.77268  0.93610  1.0000
  H   H1570     1.0  0.20618  0.86728  0.25961  1.0000
  H   H1571     1.0  0.51989  0.84449  0.11339  1.0000
  C   C928      1.0  0.23584  0.82331  0.98145  1.0000
  C   C929      1.0  0.22266  0.72312  0.31729  1.0000
  S   S263      1.0  0.14854  0.76144  0.02165  1.0000
  H   H1572     1.0  0.62239  0.74582  0.15357  1.0000
  H   H1573     1.0  0.50164  0.73751  0.99122  1.0000
  C   C930      1.0  0.18137  0.79695  0.12686  1.0000
  C   C931      1.0  0.26977  0.91181  0.04224  1.0000
  C   C932      1.0  0.57884  0.89402  0.14243  1.0000
  H   H1574     1.0  0.27906  0.92206  0.13857  1.0000
  H   H1575     1.0  0.16789  0.82187  0.16737  1.0000
  H   H1576     1.0  0.16444  0.88125  0.36558  1.0000
  H   H1577     1.0  0.22123  0.88524  0.12420  1.0000
  H   H1578     1.0  0.24142  0.76779  0.06664  1.0000
  C   C933      1.0  0.43948  0.84848  0.28295  1.0000
  C   C934      1.0  0.54362  0.77376  0.18306  1.0000
  H   H1579     1.0  0.53704  0.75480  0.09506  1.0000
  C   C935      1.0  0.14834  0.80231  0.32490  1.0000
  C   C936      1.0  0.60651  0.85231  0.30498  1.0000
  C   C937      1.0  0.33558  0.77311  0.32655  1.0000
  C   C938      1.0  0.23105  0.81135  0.38992  1.0000
  S   S264      1.0  0.25337  0.82470  0.23231  1.0000
  C   C939      1.0  0.62476  0.72960  0.15518  1.0000
  C   C940      1.0  0.59728  0.90896  0.16494  1.0000
  H   H1580     1.0  0.18389  0.82814  0.21093  1.0000
  C   C941      1.0  0.43641  0.82742  0.21716  1.0000
  H   H1581     1.0  0.25227  0.93956  0.96149  1.0000
  H   H1582     1.0  0.25762  0.79408  0.39784  1.0000
  C   C942      1.0  0.51662  0.76474  0.20369  1.0000
  C   C943      1.0  0.29675  0.94447  0.31539  1.0000
  C   C944      1.0  0.55795  0.84729  0.21724  1.0000
  H   H1583     1.0  0.25140  0.74331  0.03492  1.0000
  N   N66       1.0  0.42909  0.80772  0.27350  1.0000
  C   C945      1.0  0.32199  0.74240  0.28296  1.0000
  H   H1584     1.0  0.16245  0.81859  0.41190  1.0000
  C   C946      1.0  0.59073  0.81237  0.95885  1.0000
  H   H1585     1.0  0.44113  0.80171  0.19257  1.0000
  C   C947      1.0  0.42085  0.71145  0.16869  1.0000
  H   H1586     1.0  0.19958  0.81729  0.10281  1.0000
  H   H1587     1.0  0.18238  0.91520  0.35500  1.0000
  H   H1588     1.0  0.44179  0.83231  0.14421  1.0000
  H   H1589     1.0  0.61068  0.87763  0.07974  1.0000
  H   H1590     1.0  0.52952  0.72437  0.09911  1.0000
  H   H1591     1.0  0.20709  0.93728  0.95551  1.0000
  C   C948      1.0  0.13408  0.94332  0.96388  1.0000
  C   C949      1.0  0.14948  0.76519  0.39946  1.0000
  C   C950      1.0  0.47457  0.74515  0.09712  1.0000
  H   H1592     1.0  0.44511  0.86350  0.24195  1.0000
  C   C951      1.0  0.24201  0.89709  0.19746  1.0000
  H   H1593     1.0  0.48967  0.79235  0.38330  1.0000
  Fe  Fe135     1.0  0.44934  0.72860  0.27508  1.0000
  S   S265      1.0  0.23514  0.92354  0.18357  1.0000
  C   C952      1.0  0.41975  0.81880  0.29881  1.0000
  H   H1594     1.0  0.26118  0.85226  0.40841  1.0000
  H   H1595     1.0  0.14126  0.90976  0.04857  1.0000
  N   N67       1.0  0.28025  0.83210  0.39476  1.0000
  S   S266      1.0  0.31267  0.94440  0.43013  1.0000
  C   C953      1.0  0.24422  0.88993  0.04208  1.0000
  C   C954      1.0  0.52823  0.84790  0.14225  1.0000
  H   H1596     1.0  0.21166  0.76495  0.30920  1.0000
  C   C955      1.0  0.23668  0.90915  0.35454  1.0000
  H   H1597     1.0  0.57066  0.91629  0.43230  1.0000
  H   H1598     1.0  0.55920  0.83743  0.13709  1.0000
  H   H1599     1.0  0.24377  0.80302  0.16816  1.0000
  C   C956      1.0  0.25397  0.73117  0.42054  1.0000
  C   C957      1.0  0.39429  0.75852  0.34631  1.0000
  H   H1600     1.0  0.26402  0.72971  0.35718  1.0000
  S   S267      1.0  0.29175  0.80085  0.07487  1.0000
  C   C958      1.0  0.25891  0.84384  0.98026  1.0000
  S   S268      1.0  0.36380  0.82213  0.23561  1.0000
  C   C959      1.0  0.51537  0.91742  0.10540  1.0000
  H   H1601     1.0  0.48380  0.73474  0.12497  1.0000
  H   H1602     1.0  0.60388  0.83246  0.95394  1.0000
  H   H1603     1.0  0.44979  0.77055  0.28817  1.0000
  C   C960      1.0  0.54644  0.74475  0.08587  1.0000
  H   H1604     1.0  0.41489  0.74488  0.15921  1.0000
  H   H1605     1.0  0.61037  0.86852  0.18524  1.0000
  H   H1606     1.0  0.21293  0.82801  0.27882  1.0000
  S   S269      1.0  0.46578  0.71913  0.34215  1.0000
  H   H1607     1.0  0.47195  0.80395  0.23187  1.0000
  C   C961      1.0  0.19263  0.70258  0.10674  1.0000
  H   H1608     1.0  0.46132  0.75105  0.38175  1.0000
  S   S270      1.0  0.58992  0.80666  0.10400  1.0000
  H   H1609     1.0  0.32201  0.84270  0.39386  1.0000
  C   C962      1.0  0.19848  0.87386  0.03219  1.0000
  H   H1610     1.0  0.31809  0.79533  0.94590  1.0000
  S   S271      1.0  0.55182  0.87479  0.38276  1.0000
  H   H1611     1.0  0.58383  0.76210  0.97549  1.0000
  C   C963      1.0  0.22749  0.84852  0.24843  1.0000
  H   H1612     1.0  0.24440  0.91425  0.94747  1.0000
  H   H1613     1.0  0.19333  0.77687  0.09691  1.0000
  S   S272      1.0  0.15150  0.84772  0.31878  1.0000
  Fe  Fe136     1.0  0.52329  0.88302  0.26848  1.0000
  H   H1614     1.0  0.41182  0.77048  0.27280  1.0000
  H   H1615     1.0  0.20291  0.72014  0.30908  1.0000
  H   H1616     1.0  0.54509  0.80869  0.21955  1.0000
  H   H1617     1.0  0.40029  0.81798  0.29220  1.0000
  C   C964      1.0  0.19320  0.80214  0.19630  1.0000
  H   H1618     1.0  0.60749  0.84089  0.40227  1.0000
  C   C965      1.0  0.17373  0.81227  0.20219  1.0000
  S   S273      1.0  0.60934  0.88305  0.29302  1.0000
  H   H1619     1.0  0.44232  0.73692  0.06244  1.0000
  C   C966      1.0  0.47057  0.77679  0.41121  1.0000
  S   S274      1.0  0.29651  0.85735  0.09564  1.0000
  H   H1620     1.0  0.60033  0.94634  0.30292  1.0000
  H   H1621     1.0  0.22817  0.71743  0.98395  1.0000
  S   S275      1.0  0.55080  0.94181  0.34329  1.0000
  H   H1622     1.0  0.59565  0.75740  0.02851  1.0000
  C   C967      1.0  0.29316  0.84305  0.30524  1.0000
  H   H1623     1.0  0.57404  0.70307  0.24446  1.0000
  H   H1624     1.0  0.18677  0.87304  0.12066  1.0000
  H   H1625     1.0  0.43883  0.93702  0.25644  1.0000
  H   H1626     1.0  0.23112  0.92499  0.34793  1.0000
  S   S276      1.0  0.60051  0.75793  0.23253  1.0000
  H   H1627     1.0  0.47033  0.82640  0.27615  1.0000
  H   H1628     1.0  0.51629  0.82851  0.17916  1.0000
  C   C968      1.0  0.15477  0.70657  0.13048  1.0000
  H   H1629     1.0  0.28713  0.94451  0.34622  1.0000
  H   H1630     1.0  0.17688  0.79504  0.06098  1.0000
  C   C969      1.0  0.27003  0.80965  0.03977  1.0000
  H   H1631     1.0  0.51568  0.93141  0.19593  1.0000
  H   H1632     1.0  0.14948  0.90365  0.28529  1.0000
  C   C970      1.0  0.12519  0.81454  0.07586  1.0000
  C   C971      1.0  0.51688  0.93451  0.15910  1.0000
  H   H1633     1.0  0.41044  0.80380  0.18820  1.0000
  H   H1634     1.0  0.13236  0.91961  0.08716  1.0000
  H   H1635     1.0  0.28348  0.90326  0.05664  1.0000
  N   N68       1.0  0.42818  0.70144  0.13897  1.0000
  S   S277      1.0  0.40764  0.71283  0.31747  1.0000
  H   H1636     1.0  0.31129  0.88604  0.37827  1.0000
  Fe  Fe137     1.0  0.29052  0.83885  0.17819  1.0000
  H   H1637     1.0  0.42408  0.83808  0.20746  1.0000
  H   H1638     1.0  0.21295  0.79118  0.40466  1.0000
  S   S278      1.0  0.33225  0.86802  0.17021  1.0000
  Fe  Fe138     1.0  0.18092  0.79587  0.95015  1.0000
  H   H1639     1.0  0.20457  0.76152  0.22224  1.0000
  C   C972      1.0  0.20277  0.77152  0.18331  1.0000
  C   C973      1.0  0.31863  0.74457  0.35653  1.0000
  C   C974      1.0  0.24486  0.75028  0.27156  1.0000
  C   C975      1.0  0.51428  0.79512  0.12169  1.0000
  S   S279      1.0  0.53058  0.84786  0.31688  1.0000
  H   H1640     1.0  0.27535  0.82394  0.31402  1.0000
  C   C976      1.0  0.30345  0.92758  0.24257  1.0000
  H   H1641     1.0  0.23321  0.80857  0.11198  1.0000
  C   C977      1.0  0.21571  0.92908  0.93971  1.0000
  H   H1642     1.0  0.14865  0.74397  0.20004  1.0000
  H   H1643     1.0  0.56597  0.79743  0.02898  1.0000
  C   C978      1.0  0.24245  0.70998  0.99950  1.0000
  H   H1644     1.0  0.30855  0.87121  0.32814  1.0000
  H   H1645     1.0  0.25918  0.89981  0.31856  1.0000
  H   H1646     1.0  0.15540  0.79552  0.23377  1.0000
  H   H1647     1.0  0.37911  0.73866  0.35248  1.0000
  H   H1648     1.0  0.55050  0.81920  0.06132  1.0000
  H   H1649     1.0  0.56668  0.81315  0.25862  1.0000
  H   H1650     1.0  0.14594  0.81080  0.28753  1.0000
  H   H1651     1.0  0.59519  0.84296  0.17188  1.0000
  H   H1652     1.0  0.21763  0.88980  0.36839  1.0000
  C   C979      1.0  0.51961  0.94243  0.06393  1.0000
  H   H1653     1.0  0.16436  0.80141  0.12594  1.0000
  N   N69       1.0  0.57365  0.86522  0.16275  1.0000
  C   C980      1.0  0.28447  0.73693  0.05943  1.0000
  H   H1654     1.0  0.23093  0.77152  0.35064  1.0000
  C   C981      1.0  0.31069  0.77629  0.94570  1.0000
  C   C982      1.0  0.15584  0.75837  0.21281  1.0000
  C   C983      1.0  0.28900  0.85292  0.33902  1.0000
  H   H1655     1.0  0.25914  0.75772  0.34220  1.0000
  Fe  Fe139     1.0  0.15213  0.73440  0.99947  1.0000
  C   C984      1.0  0.60406  0.80374  0.32442  1.0000
  C   C985      1.0  0.43223  0.81528  0.18430  1.0000
  H   H1656     1.0  0.50312  0.80374  0.09792  1.0000
  H   H1657     1.0  0.16431  0.93417  0.28544  1.0000
  H   H1658     1.0  0.30676  0.74807  0.05022  1.0000
  C   C986      1.0  0.56410  0.72038  0.03862  1.0000
  Fe  Fe140     1.0  0.62245  0.78465  0.26021  1.0000
  H   H1659     1.0  0.43759  0.71986  0.18320  1.0000
  H   H1660     1.0  0.52319  0.72378  0.42934  1.0000
  H   H1661     1.0  0.27447  0.86081  0.32767  1.0000
  H   H1662     1.0  0.28121  0.93032  0.00405  1.0000
  H   H1663     1.0  0.18058  0.93961  0.06069  1.0000
  H   H1664     1.0  0.55448  0.73131  0.15904  1.0000
  S   S280      1.0  0.46897  0.76661  0.19756  1.0000
  C   C987      1.0  0.14617  0.77620  0.35105  1.0000
  C   C988      1.0  0.55820  0.85547  0.13200  1.0000
  Fe  Fe141     1.0  0.33957  0.88367  0.08815  1.0000
  H   H1665     1.0  0.38349  0.76402  0.36516  1.0000
  C   C989      1.0  0.22971  0.79590  0.01221  1.0000
  H   H1666     1.0  0.31052  0.73453  0.39640  1.0000
  H   H1667     1.0  0.45799  0.85009  0.29528  1.0000
  C   C990      1.0  0.25425  0.91665  0.30653  1.0000
  Fe  Fe142     1.0  0.30974  0.82708  0.10597  1.0000
  S   S281      1.0  0.13330  0.85001  0.10467  1.0000
  H   H1668     1.0  0.24141  0.91504  0.28092  1.0000
  H   H1669     1.0  0.56938  0.71521  0.33881  1.0000
  C   C991      1.0  0.61941  0.88308  0.10625  1.0000
  Fe  Fe143     1.0  0.54312  0.90822  0.33041  1.0000
  C   C992      1.0  0.20326  0.72765  0.38116  1.0000
  C   C993      1.0  0.40609  0.78005  0.28937  1.0000
  S   S282      1.0  0.14388  0.73142  0.43279  1.0000
  C   C994      1.0  0.21140  0.75826  0.34864  1.0000
  H   H1670     1.0  0.31632  0.93487  0.20641  1.0000
  H   H1671     1.0  0.28573  0.88266  0.15741  1.0000
  C   C995      1.0  0.23532  0.92048  0.96763  1.0000
  C   C996      1.0  0.20167  0.86103  0.00351  1.0000
  H   H1672     1.0  0.18188  0.87881  0.02299  1.0000
  H   H1673     1.0  0.23526  0.87119  0.08078  1.0000
  H   H1674     1.0  0.29853  0.92547  0.33393  1.0000
  S   S283      1.0  0.27244  0.71915  0.23643  1.0000
  H   H1675     1.0  0.26378  0.86507  0.95627  1.0000
  H   H1676     1.0  0.48216  0.79216  0.28791  1.0000
  H   H1677     1.0  0.52955  0.77313  0.00435  1.0000
  H   H1678     1.0  0.56569  0.78315  0.37730  1.0000
  H   H1679     1.0  0.34090  0.78498  0.34348  1.0000
  H   H1680     1.0  0.61805  0.73928  0.08311  1.0000
  H   H1681     1.0  0.26495  0.75166  0.27314  1.0000
  H   H1682     1.0  0.58761  0.90723  0.10096  1.0000
  S   S284      1.0  0.60245  0.77381  0.33438  1.0000
  H   H1683     1.0  0.30394  0.81355  0.39077  1.0000
  S   S285      1.0  0.31755  0.70997  0.15278  1.0000
  S   S286      1.0  0.35343  0.85440  0.09369  1.0000
  N   N70       1.0  0.28060  0.75869  0.96805  1.0000
  H   H1684     1.0  0.20360  0.90298  0.12235  1.0000
  S   S287      1.0  0.50204  0.87945  0.33379  1.0000
  C   C997      1.0  0.13297  0.91421  0.37489  1.0000
  C   C998      1.0  0.30192  0.82421  0.40861  1.0000
  H   H1685     1.0  0.56926  0.72348  0.12264  1.0000
  H   H1686     1.0  0.46896  0.75696  0.10776  1.0000
  C   C999      1.0  0.51529  0.73354  0.01517  1.0000
  H   H1687     1.0  0.21176  0.77992  0.01369  1.0000
  C   C1000     1.0  0.24661  0.78906  0.04182  1.0000
  Fe  Fe144     1.0  0.61478  0.79670  0.15736  1.0000
  H   H1688     1.0  0.15269  0.70919  0.19543  1.0000
  C   C1001     1.0  0.37956  0.94911  0.04642  1.0000
  H   H1689     1.0  0.19071  0.85725  0.07268  1.0000
  H   H1690     1.0  0.21249  0.82070  0.16916  1.0000
  H   H1691     1.0  0.42961  0.85476  0.30158  1.0000
  C   C1002     1.0  0.17086  0.94880  0.03213  1.0000
  H   H1692     1.0  0.59988  0.92999  0.14620  1.0000
  H   H1693     1.0  0.24673  0.90535  0.38516  1.0000
  H   H1694     1.0  0.19836  0.79333  0.23246  1.0000
  H   H1695     1.0  0.22517  0.82213  0.40307  1.0000
  H   H1696     1.0  0.21666  0.85382  0.01314  1.0000
  C   C1003     1.0  0.15316  0.91145  0.31058  1.0000
  H   H1697     1.0  0.53955  0.84895  0.22301  1.0000
  Fe  Fe145     1.0  0.34294  0.83671  0.17673  1.0000
  H   H1698     1.0  0.19960  0.91447  0.03772  1.0000
  H   H1699     1.0  0.42811  0.93644  0.31141  1.0000
  H   H1700     1.0  0.60376  0.80799  0.94209  1.0000
  S   S288      1.0  0.14376  0.88373  0.18110  1.0000
  C   C1004     1.0  0.22370  0.87069  0.23761  1.0000
  H   H1701     1.0  0.13586  0.92613  0.96604  1.0000
  C   C1005     1.0  0.45022  0.72489  0.09122  1.0000
  C   C1006     1.0  0.17697  0.78164  0.09993  1.0000
  H   H1702     1.0  0.15731  0.76255  0.11810  1.0000
  C   C1007     1.0  0.23188  0.79283  0.14996  1.0000
  C   C1008     1.0  0.33802  0.77091  0.25275  1.0000
  H   H1703     1.0  0.50227  0.70650  0.18215  1.0000
  C   C1009     1.0  0.55014  0.81669  0.24400  1.0000
  S   S289      1.0  0.36163  0.92797  0.02542  1.0000
  H   H1704     1.0  0.13489  0.83257  0.03814  1.0000
  H   H1705     1.0  0.31119  0.84017  0.30714  1.0000
  H   H1706     1.0  0.41578  0.80603  0.34028  1.0000
  C   C1010     1.0  0.57748  0.79040  0.01538  1.0000
  H   H1707     1.0  0.29426  0.85303  0.00701  1.0000
  Fe  Fe146     1.0  0.12706  0.85067  0.26324  1.0000
  H   H1708     1.0  0.16205  0.75326  0.28549  1.0000
  H   H1709     1.0  0.44867  0.79459  0.33154  1.0000
  H   H1710     1.0  0.55495  0.76568  0.20700  1.0000
  C   C1011     1.0  0.53875  0.76139  0.00121  1.0000
  H   H1711     1.0  0.58419  0.75791  0.10891  1.0000
  H   H1712     1.0  0.14065  0.76531  0.20979  1.0000
  H   H1713     1.0  0.28166  0.77340  0.01692  1.0000
  H   H1714     1.0  0.54473  0.70746  0.06786  1.0000
  H   H1715     1.0  0.27686  0.73382  0.09564  1.0000
  H   H1716     1.0  0.57798  0.71275  0.05615  1.0000
  H   H1717     1.0  0.38940  0.72267  0.14482  1.0000
  C   C1012     1.0  0.16851  0.70291  0.09987  1.0000
  H   H1718     1.0  0.28170  0.94859  0.20739  1.0000
  C   C1013     1.0  0.27561  0.84452  0.42193  1.0000
  C   C1014     1.0  0.29433  0.94869  0.23361  1.0000
  H   H1719     1.0  0.34170  0.71898  0.22483  1.0000
  N   N71       1.0  0.22230  0.71948  0.36821  1.0000
  C   C1015     1.0  0.30081  0.86853  0.41760  1.0000
  H   H1720     1.0  0.27468  0.74638  0.41495  1.0000
  H   H1721     1.0  0.15648  0.94576  0.16154  1.0000
  H   H1722     1.0  0.22195  0.70635  0.14831  1.0000
  H   H1723     1.0  0.49933  0.70208  0.41317  1.0000
  H   H1724     1.0  0.23844  0.70177  0.04019  1.0000
  H   H1725     1.0  0.52290  0.94123  0.94594  1.0000
  C   C1016     1.0  0.16425  0.70807  0.16998  1.0000
  H   H1726     1.0  0.19923  0.91219  0.93898  1.0000
  H   H1727     1.0  0.13634  0.70729  0.12488  1.0000
  H   H1728     1.0  0.46292  0.94876  0.28572  1.0000
  C   C1017     1.0  0.44398  0.94811  0.27594  1.0000
  H   H1729     1.0  0.22576  0.70726  0.31638  1.0000
  S   S290      1.0  0.19839  0.70650  0.22985  1.0000
  C   C1018     1.0  0.34343  0.70247  0.22612  1.0000
  H   H1730     1.0  0.39288  0.94842  0.30270  1.0000
  H   H1731     1.0  0.57582  0.81520  0.93756  1.0000
  C   C1019     1.0  0.66080  0.11363  0.51711  1.0000
  C   C1020     1.0  0.74157  0.16583  0.57879  1.0000
  H   H1732     1.0  0.68255  0.12888  0.63081  1.0000
  C   C1021     1.0  0.63894  0.17186  0.79820  1.0000
  Fe  Fe147     1.0  0.72632  0.09143  0.74295  1.0000
  H   H1733     1.0  0.73325  0.09891  0.87370  1.0000
  H   H1734     1.0  0.71445  0.96937  0.60032  1.0000
  C   C1022     1.0  0.68154  0.01120  0.55073  1.0000
  C   C1023     1.0  0.76060  0.19336  0.55748  1.0000
  H   H1735     1.0  0.67184  0.11340  0.58114  1.0000
  N   N72       1.0  0.65427  0.14027  0.55245  1.0000
  H   H1736     1.0  0.68189  0.99976  0.53352  1.0000
  C   C1024     1.0  0.78240  0.17589  0.77834  1.0000
  C   C1025     1.0  0.08264  0.00973  0.88247  1.0000
  H   H1737     1.0  0.73506  0.99730  0.71004  1.0000
  C   C1026     1.0  0.05419  0.03828  0.81969  1.0000
  H   H1738     1.0  0.04106  0.95427  0.58133  1.0000
  H   H1739     1.0  0.70871  0.96350  0.79913  1.0000
  Fe  Fe148     1.0  0.67972  0.06999  0.82750  1.0000
  H   H1740     1.0  0.64836  0.10073  0.79876  1.0000
  H   H1741     1.0  0.07667  0.01444  0.61903  1.0000
  C   C1027     1.0  0.66528  0.17270  0.78200  1.0000
  H   H1742     1.0  0.71518  0.12909  0.80827  1.0000
  Fe  Fe149     1.0  0.69100  0.02986  0.81769  1.0000
  H   H1743     1.0  0.72026  0.11672  0.88779  1.0000
  H   H1744     1.0  0.02735  0.98871  0.90231  1.0000
  C   C1028     1.0  0.65449  0.99406  0.59122  1.0000
  S   S291      1.0  0.76748  0.12699  0.69671  1.0000
  C   C1029     1.0  0.64005  0.08277  0.87863  1.0000
  H   H1745     1.0  0.78422  0.00151  0.79066  1.0000
  H   H1746     1.0  0.67538  0.10718  0.51162  1.0000
  C   C1030     1.0  0.00044  0.00265  0.91136  1.0000
  N   N73       1.0  0.05229  0.03195  0.87271  1.0000
  C   C1031     1.0  0.78867  0.95733  0.81298  1.0000
  C   C1032     1.0  0.02247  0.95625  0.65670  1.0000
  H   H1747     1.0  0.72486  0.16058  0.56343  1.0000
  N   N74       1.0  0.63591  0.17377  0.84333  1.0000
  C   C1033     1.0  0.76296  0.95333  0.79496  1.0000
  C   C1034     1.0  0.72828  0.97524  0.72694  1.0000
  H   H1748     1.0  0.07693  0.02564  0.92441  1.0000
  S   S292      1.0  0.64562  0.06545  0.68334  1.0000
  H   H1749     1.0  0.64553  0.00115  0.71514  1.0000
  C   C1035     1.0  0.72336  0.95972  0.78449  1.0000
  C   C1036     1.0  0.73675  0.11956  0.86276  1.0000
  H   H1750     1.0  0.67952  0.15188  0.64389  1.0000
  C   C1037     1.0  0.73671  0.13545  0.80739  1.0000
  H   H1751     1.0  0.79395  0.19868  0.75549  1.0000
  C   C1038     1.0  0.78267  0.20000  0.57674  1.0000
  C   C1039     1.0  0.63497  0.09470  0.83190  1.0000
  H   H1752     1.0  0.03655  0.97389  0.74149  1.0000
  H   H1753     1.0  0.65773  0.16676  0.57823  1.0000
  H   H1754     1.0  0.10180  0.99441  0.57743  1.0000
  H   H1755     1.0  0.70896  0.96657  0.71839  1.0000
  H   H1756     1.0  0.66738  0.17611  0.74396  1.0000
  H   H1757     1.0  0.64989  0.12195  0.65747  1.0000
  H   H1758     1.0  0.69904  0.01471  0.56649  1.0000
  H   H1759     1.0  0.77589  0.00576  0.73523  1.0000
  H   H1760     1.0  0.75694  0.96338  0.87176  1.0000
  H   H1761     1.0  0.08395  0.01312  0.84470  1.0000
  C   C1040     1.0  0.07559  0.95437  0.55381  1.0000
  H   H1762     1.0  0.74291  0.97292  0.70848  1.0000
  H   H1763     1.0  0.71893  0.16741  0.80560  1.0000
  C   C1041     1.0  0.66794  0.15558  0.57664  1.0000
  H   H1764     1.0  0.67457  0.03419  0.67201  1.0000
  H   H1765     1.0  0.63744  0.18824  0.76477  1.0000
  H   H1766     1.0  0.76519  0.03522  0.74420  1.0000
  H   H1767     1.0  0.74335  0.15913  0.87556  1.0000
  H   H1768     1.0  0.77016  0.19391  0.83339  1.0000
  C   C1042     1.0  0.76548  0.15194  0.64107  1.0000
  C   C1043     1.0  0.05163  0.05449  0.87591  1.0000
  H   H1769     1.0  0.06950  0.07458  0.84791  1.0000
  H   H1770     1.0  0.73297  0.00631  0.77660  1.0000
  C   C1044     1.0  0.74365  0.14514  0.62129  1.0000
  H   H1771     1.0  0.04586  0.01912  0.81977  1.0000
  C   C1045     1.0  0.76659  0.99694  0.77522  1.0000
  H   H1772     1.0  0.81793  0.17270  0.76369  1.0000
  C   C1046     1.0  0.74134  0.17845  0.79636  1.0000
  C   C1047     1.0  0.72569  0.17459  0.71235  1.0000
  C   C1048     1.0  0.78049  0.96121  0.50375  1.0000
  H   H1773     1.0  0.65765  0.15161  0.87883  1.0000
  H   H1774     1.0  0.06710  0.98838  0.91114  1.0000
  H   H1775     1.0  0.72124  0.18933  0.71497  1.0000
  S   S293      1.0  0.65355  0.03343  0.82448  1.0000
  H   H1776     1.0  0.68895  0.17174  0.55358  1.0000
  C   C1049     1.0  0.07744  0.03085  0.88553  1.0000
  C   C1050     1.0  0.08195  0.98739  0.60043  1.0000
  S   S294      1.0  0.07653  0.01575  0.75237  1.0000
  H   H1777     1.0  0.62934  0.96714  0.47647  1.0000
  C   C1051     1.0  0.08748  0.00238  0.62860  1.0000
  H   H1778     1.0  0.64199  0.17065  0.50870  1.0000
  H   H1779     1.0  0.78719  0.14297  0.77946  1.0000
  C   C1052     1.0  0.64835  0.97226  0.82594  1.0000
  Fe  Fe150     1.0  0.12092  0.03571  0.74681  1.0000
  H   H1780     1.0  0.66472  0.15281  0.80746  1.0000
  H   H1781     1.0  0.04160  0.05540  0.75204  1.0000
  H   H1782     1.0  0.07563  0.05036  0.79691  1.0000
  H   H1783     1.0  0.76834  0.19887  0.69863  1.0000
  C   C1053     1.0  0.79732  0.16565  0.75867  1.0000
  C   C1054     1.0  0.66641  0.01172  0.69210  1.0000
  H   H1784     1.0  0.72346  0.98559  0.44528  1.0000
  H   H1785     1.0  0.72716  0.17991  0.67307  1.0000
  H   H1786     1.0  0.75607  0.12873  0.87036  1.0000
  H   H1787     1.0  0.79650  0.97289  0.46828  1.0000
  H   H1788     1.0  0.99830  0.01553  0.92343  1.0000
  H   H1789     1.0  0.74574  0.98158  0.53567  1.0000
  C   C1055     1.0  0.75422  0.01391  0.77769  1.0000
  H   H1790     1.0  0.69224  0.14479  0.52394  1.0000
  H   H1791     1.0  0.63487  0.02764  0.53588  1.0000
  S   S295      1.0  0.66749  0.07671  0.88532  1.0000
  H   H1792     1.0  0.10233  0.01195  0.89005  1.0000
  H   H1793     1.0  0.01953  0.04623  0.80590  1.0000
  H   H1794     1.0  0.07143  0.99574  0.57261  1.0000
  C   C1056     1.0  0.66982  0.13824  0.63013  1.0000
  H   H1795     1.0  0.05220  0.07660  0.77665  1.0000
  C   C1057     1.0  0.75276  0.17688  0.72373  1.0000
  H   H1796     1.0  0.00021  0.96390  0.85636  1.0000
  C   C1058     1.0  0.78538  0.17933  0.61780  1.0000
  N   N75       1.0  0.75327  0.16628  0.77779  1.0000
  H   H1797     1.0  0.65948  0.12693  0.47936  1.0000
  C   C1059     1.0  0.02831  0.00433  0.90967  1.0000
  H   H1798     1.0  0.80245  0.18469  0.63255  1.0000
  N   N76       1.0  0.74811  0.96647  0.80313  1.0000
  H   H1799     1.0  0.79987  0.17438  0.71791  1.0000
  H   H1800     1.0  0.72642  0.96363  0.86407  1.0000
  H   H1801     1.0  0.68377  0.03103  0.51991  1.0000
  H   H1802     1.0  0.10138  0.95200  0.62410  1.0000
  H   H1803     1.0  0.78492  0.17013  0.81632  1.0000
  H   H1804     1.0  0.04659  0.06660  0.92736  1.0000
  C   C1060     1.0  0.66859  0.00267  0.65591  1.0000
  H   H1805     1.0  0.65615  0.06252  0.51300  1.0000
  C   C1061     1.0  0.67092  0.12859  0.54459  1.0000
  H   H1806     1.0  0.74215  0.12664  0.78847  1.0000
  C   C1062     1.0  0.73941  0.95567  0.85805  1.0000
  C   C1063     1.0  0.74855  0.17941  0.84233  1.0000
  H   H1807     1.0  0.08924  0.97676  0.52947  1.0000
  H   H1808     1.0  0.63849  0.99091  0.57202  1.0000
  H   H1809     1.0  0.08247  0.98933  0.66987  1.0000
  H   H1810     1.0  0.65533  0.04339  0.60980  1.0000
  H   H1811     1.0  0.63824  0.14878  0.48761  1.0000
  H   H1812     1.0  0.69017  0.01497  0.63436  1.0000
  H   H1813     1.0  0.73702  0.18725  0.85328  1.0000
  H   H1814     1.0  0.68062  0.04844  0.56804  1.0000
  H   H1815     1.0  0.70853  0.15362  0.73679  1.0000
  H   H1816     1.0  0.75536  0.01434  0.81221  1.0000
  C   C1064     1.0  0.67837  0.18265  0.46144  1.0000
  H   H1817     1.0  0.99468  0.99209  0.81728  1.0000
  H   H1818     1.0  0.72838  0.12394  0.63876  1.0000
  H   H1819     1.0  0.11100  0.97208  0.67508  1.0000
  C   C1065     1.0  0.64271  0.04229  0.54777  1.0000
  C   C1066     1.0  0.65175  0.15990  0.50321  1.0000
  N   N77       1.0  0.06619  0.95648  0.63166  1.0000
  C   C1067     1.0  0.04087  0.05497  0.78748  1.0000
  C   C1068     1.0  0.04428  0.96426  0.77211  1.0000
  H   H1820     1.0  0.96761  0.95706  0.72498  1.0000
  S   S296      1.0  0.69165  0.09948  0.74437  1.0000
  Fe  Fe151     1.0  0.66881  0.06240  0.74075  1.0000
  H   H1821     1.0  0.03382  0.05683  0.86590  1.0000
  H   H1822     1.0  0.67598  0.19845  0.84284  1.0000
  S   S297      1.0  0.71613  0.06446  0.82658  1.0000
  C   C1069     1.0  0.66621  0.96566  0.85253  1.0000
  N   N78       1.0  0.65082  0.00560  0.62089  1.0000
  C   C1070     1.0  0.65862  0.03544  0.58716  1.0000
  H   H1823     1.0  0.09563  0.05130  0.86070  1.0000
  S   S298      1.0  0.70451  0.05642  0.73352  1.0000
  H   H1824     1.0  0.75805  0.16586  0.71032  1.0000
  H   H1825     1.0  0.10925  0.01751  0.61569  1.0000
  H   H1826     1.0  0.99545  0.00763  0.87540  1.0000
  H   H1827     1.0  0.64106  0.09479  0.53949  1.0000
  H   H1828     1.0  0.67862  0.00638  0.71853  1.0000
  H   H1829     1.0  0.68843  0.17425  0.44887  1.0000
  C   C1071     1.0  0.98473  0.96937  0.84081  1.0000
  H   H1830     1.0  0.96425  0.96931  0.78421  1.0000
  H   H1831     1.0  0.64955  0.99189  0.81167  1.0000
  H   H1832     1.0  0.99322  0.96537  0.78066  1.0000
  S   S299      1.0  0.69166  0.98997  0.85999  1.0000
  C   C1072     1.0  0.11844  0.95212  0.92539  1.0000
  C   C1073     1.0  0.70721  0.97200  0.48092  1.0000
  C   C1074     1.0  0.65750  0.20018  0.83562  1.0000
  C   C1075     1.0  0.06348  0.98006  0.78640  1.0000
  C   C1076     1.0  0.07338  0.96744  0.82603  1.0000
  H   H1833     1.0  0.66472  0.98110  0.67898  1.0000
  H   H1834     1.0  0.96835  0.96216  0.87194  1.0000
  H   H1835     1.0  0.08702  0.97903  0.83915  1.0000
  H   H1836     1.0  0.75138  0.95585  0.58247  1.0000
  H   H1837     1.0  0.80526  0.97872  0.78875  1.0000
  H   H1838     1.0  0.68809  0.96878  0.47008  1.0000
  H   H1839     1.0  0.76926  0.96130  0.75447  1.0000
  C   C1077     1.0  0.73596  0.95896  0.56260  1.0000
  C   C1078     1.0  0.63764  0.15012  0.88668  1.0000
  H   H1840     1.0  0.70923  0.98240  0.50119  1.0000
  H   H1841     1.0  0.12195  0.06902  0.91192  1.0000
  C   C1079     1.0  0.75389  0.95966  0.49102  1.0000
  C   C1080     1.0  0.97457  0.95816  0.80750  1.0000
  C   C1081     1.0  0.62644  0.11709  0.58525  1.0000
  H   H1842     1.0  0.75856  0.98127  0.46520  1.0000
  H   H1843     1.0  0.68336  0.18949  0.78002  1.0000
  H   H1844     1.0  0.78751  0.97203  0.52343  1.0000
  H   H1845     1.0  0.62755  0.10026  0.61857  1.0000
  H   H1846     1.0  0.65225  0.97327  0.61653  1.0000
  H   H1847     1.0  0.78512  0.95122  0.85264  1.0000
  C   C1082     1.0  0.05103  0.05117  0.92760  1.0000
  S   S300      1.0  0.62800  0.17967  0.62177  1.0000
  H   H1848     1.0  0.70853  0.19459  0.91429  1.0000
  H   H1849     1.0  0.69256  0.19588  0.47266  1.0000
  H   H1850     1.0  0.03237  0.97890  0.63448  1.0000
  H   H1851     1.0  0.74786  0.20014  0.76614  1.0000
  C   C1083     1.0  0.62915  0.95357  0.81699  1.0000
  H   H1852     1.0  0.62534  0.04296  0.56262  1.0000
  H   H1853     1.0  0.64645  0.98609  0.25700  1.0000
  H   H1854     1.0  0.67374  0.19605  0.42802  1.0000
  C   C1084     1.0  0.12296  0.95364  0.14869  1.0000
  S   S301      1.0  0.09193  0.03210  0.26972  1.0000
  C   C1085     1.0  0.70161  0.15379  0.27955  1.0000
  S   S302      1.0  0.04333  0.00602  0.19885  1.0000
  C   C1086     1.0  0.65963  0.15106  0.30650  1.0000
  H   H1855     1.0  0.00895  0.97861  0.08307  1.0000
  S   S303      1.0  0.71108  0.12240  0.15417  1.0000
  S   S304      1.0  0.10580  0.99782  0.23309  1.0000
  H   H1856     1.0  0.12199  0.01027  0.12934  1.0000
  H   H1857     1.0  0.79712  0.19370  0.99330  1.0000
  H   H1858     1.0  0.64036  0.02083  0.08785  1.0000
  H   H1859     1.0  0.03526  0.03074  0.95894  1.0000
  Fe  Fe152     1.0  0.08450  0.02268  0.21018  1.0000
  C   C1087     1.0  0.02368  0.99215  0.13229  1.0000
  S   S305      1.0  0.67819  0.15547  0.14541  1.0000
  C   C1088     1.0  0.63347  0.14694  0.93813  1.0000
  H   H1860     1.0  0.64922  0.09235  0.34274  1.0000
  H   H1861     1.0  0.10340  0.01655  0.40569  1.0000
  S   S306      1.0  0.12088  0.06128  0.14937  1.0000
  H   H1862     1.0  0.09366  0.96762  0.13309  1.0000
  H   H1863     1.0  0.05158  0.95261  0.30920  1.0000
  S   S307      1.0  0.65942  0.09490  0.24702  1.0000
  S   S308      1.0  0.64988  0.10035  0.14137  1.0000
  H   H1864     1.0  0.00404  0.98676  0.15089  1.0000
  Fe  Fe153     1.0  0.67131  0.08360  0.19689  1.0000
  C   C1089     1.0  0.11348  0.97206  0.13888  1.0000
  H   H1865     1.0  0.09634  0.96791  0.97076  1.0000
  C   C1090     1.0  0.07442  0.00621  0.08408  1.0000
  C   C1091     1.0  0.10305  0.96833  0.00291  1.0000
  H   H1866     1.0  0.05093  0.95576  0.23020  1.0000
  H   H1867     1.0  0.08574  0.95378  0.03724  1.0000
  C   C1092     1.0  0.67595  0.15010  0.27467  1.0000
  C   C1093     1.0  0.63076  0.98838  0.27101  1.0000
  H   H1868     1.0  0.74350  0.19033  0.12123  1.0000
  H   H1869     1.0  0.66059  0.03030  0.14305  1.0000
  C   C1094     1.0  0.02641  0.98734  0.09426  1.0000
  S   S309      1.0  0.12134  0.98311  0.35989  1.0000
  S   S310      1.0  0.64800  0.15584  0.38446  1.0000
  C   C1095     1.0  0.71038  0.15717  0.31786  1.0000
  S   S311      1.0  0.66841  0.04247  0.22508  1.0000
  H   H1870     1.0  0.10941  0.98914  0.99483  1.0000
  S   S312      1.0  0.05605  0.98585  0.02697  1.0000
  C   C1096     1.0  0.07163  0.01084  0.12213  1.0000
  H   H1871     1.0  0.12452  0.04043  0.34293  1.0000
  C   C1097     1.0  0.04627  0.00321  0.14712  1.0000
  C   C1098     1.0  0.63670  0.03647  0.08851  1.0000
  Fe  Fe154     1.0  0.64102  0.11459  0.18853  1.0000
  H   H1872     1.0  0.63955  0.13190  0.96421  1.0000
  H   H1873     1.0  0.09396  0.01105  0.06648  1.0000
  H   H1874     1.0  0.67631  0.06432  0.08638  1.0000
  H   H1875     1.0  0.10247  0.03986  0.97278  1.0000
  C   C1099     1.0  0.05176  0.99380  0.07102  1.0000
  H   H1876     1.0  0.73018  0.15992  0.32186  1.0000
  H   H1877     1.0  0.03032  0.99674  0.94854  1.0000
  Fe  Fe155     1.0  0.68867  0.13995  0.10222  1.0000
  C   C1100     1.0  0.65690  0.04689  0.11467  1.0000
  H   H1878     1.0  0.63063  0.16413  0.10046  1.0000
  H   H1879     1.0  0.76300  0.18508  0.08688  1.0000
  C   C1101     1.0  0.69346  0.15684  0.35123  1.0000
  S   S313      1.0  0.72297  0.15536  0.23634  1.0000
  H   H1880     1.0  0.68682  0.19328  0.04586  1.0000
  H   H1881     1.0  0.64035  0.14925  0.30125  1.0000
  H   H1882     1.0  0.08903  0.01975  0.13300  1.0000
  H   H1883     1.0  0.66904  0.14752  0.24518  1.0000
  S   S314      1.0  0.70454  0.16381  0.01817  1.0000
  Fe  Fe156     1.0  0.11667  0.01073  0.28681  1.0000
  H   H1884     1.0  0.65024  0.05485  0.13367  1.0000
  Fe  Fe157     1.0  0.69747  0.13491  0.20054  1.0000
  H   H1885     1.0  0.64290  0.05302  0.04806  1.0000
  C   C1102     1.0  0.69782  0.19105  0.98376  1.0000
  H   H1886     1.0  0.70026  0.15939  0.38087  1.0000
  C   C1103     1.0  0.66821  0.15420  0.34504  1.0000
  H   H1887     1.0  0.76431  0.18941  0.00988  1.0000
  H   H1888     1.0  0.63730  0.08474  0.05962  1.0000
  H   H1889     1.0  0.62996  0.18508  0.01725  1.0000
  C   C1104     1.0  0.63635  0.01398  0.26191  1.0000
  H   H1890     1.0  0.63004  0.06483  0.40313  1.0000
  H   H1891     1.0  0.12052  0.05233  0.38245  1.0000
  H   H1892     1.0  0.62688  0.06607  0.95744  1.0000
  C   C1105     1.0  0.12251  0.03602  0.38156  1.0000
  C   C1106     1.0  0.62978  0.07296  0.36358  1.0000
  H   H1893     1.0  0.63919  0.19916  0.07723  1.0000
  C   C1107     1.0  0.76145  0.20117  0.08945  1.0000
  H   H1894     1.0  0.98496  0.98123  0.93990  1.0000
  H   H1895     1.0  0.64583  0.16629  0.93612  1.0000
  H   H1896     1.0  0.63038  0.05880  0.35366  1.0000
  C   C1108     1.0  0.12346  0.05512  0.94908  1.0000
  H   H1897     1.0  0.07083  0.05512  0.93563  1.0000
  S   S315      1.0  0.84243  0.37896  0.73191  1.0000
  H   H1898     1.0  0.65086  0.20385  0.86342  1.0000
  S   S316      1.0  0.10000  0.39875  0.79219  1.0000
  H   H1899     1.0  0.97301  0.36286  0.47333  1.0000
  H   H1900     1.0  0.88646  0.43466  0.59460  1.0000
  H   H1901     1.0  0.72015  0.39942  0.88940  1.0000
  H   H1902     1.0  0.04019  0.42853  0.53638  1.0000
  C   C1109     1.0  0.69476  0.28610  0.48767  1.0000
  H   H1903     1.0  0.73570  0.43391  0.87662  1.0000
  C   C1110     1.0  0.90769  0.42519  0.81456  1.0000
  H   H1904     1.0  0.95967  0.35999  0.61026  1.0000
  H   H1905     1.0  0.85551  0.44973  0.75213  1.0000
  H   H1906     1.0  0.87141  0.39975  0.52463  1.0000
  Fe  Fe158     1.0  0.81162  0.31447  0.48177  1.0000
  H   H1907     1.0  0.94124  0.31407  0.80051  1.0000
  H   H1908     1.0  0.84163  0.38149  0.86622  1.0000
  C   C1111     1.0  0.69952  0.24724  0.62297  1.0000
  H   H1909     1.0  0.73863  0.34920  0.64822  1.0000
  C   C1112     1.0  0.79991  0.25294  0.70362  1.0000
  H   H1910     1.0  0.81085  0.33823  0.64472  1.0000
  H   H1911     1.0  0.92341  0.26902  0.86056  1.0000
  C   C1113     1.0  0.04365  0.44455  0.82021  1.0000
  H   H1912     1.0  0.77069  0.28661  0.92351  1.0000
  C   C1114     1.0  0.12079  0.42198  0.59154  1.0000
  H   H1913     1.0  0.85122  0.44602  0.49725  1.0000
  H   H1914     1.0  0.99404  0.43060  0.93383  1.0000
  N   N79       1.0  0.90873  0.32222  0.55874  1.0000
  H   H1915     1.0  0.67245  0.24413  0.78743  1.0000
  H   H1916     1.0  0.94147  0.25343  0.89557  1.0000
  C   C1115     1.0  0.89517  0.32942  0.58695  1.0000
  C   C1116     1.0  0.70168  0.20260  0.93206  1.0000
  H   H1917     1.0  0.11947  0.43351  0.66833  1.0000
  H   H1918     1.0  0.65190  0.22658  0.76148  1.0000
  H   H1919     1.0  0.88003  0.39006  0.64723  1.0000
  H   H1920     1.0  0.77779  0.33164  0.77367  1.0000
  C   C1117     1.0  0.68045  0.21570  0.59596  1.0000
  H   H1921     1.0  0.02288  0.41515  0.67813  1.0000
  C   C1118     1.0  0.95906  0.28461  0.77679  1.0000
  C   C1119     1.0  0.72459  0.33059  0.68457  1.0000
  H   H1922     1.0  0.73993  0.44416  0.79676  1.0000
  Fe  Fe159     1.0  0.81173  0.27063  0.58172  1.0000
  N   N80       1.0  0.69331  0.40990  0.59647  1.0000
  H   H1923     1.0  0.65214  0.37784  0.63548  1.0000
  H   H1924     1.0  0.94726  0.35504  0.54579  1.0000
  H   H1925     1.0  0.71400  0.31371  0.67839  1.0000
  S   S317      1.0  0.74209  0.39130  0.75223  1.0000
  H   H1926     1.0  0.97223  0.40429  0.53041  1.0000
  Fe  Fe160     1.0  0.09224  0.37224  0.87540  1.0000
  C   C1120     1.0  0.69668  0.22448  0.90327  1.0000
  N   N81       1.0  0.64396  0.26699  0.49108  1.0000
  H   H1927     1.0  0.94988  0.31966  0.61069  1.0000
  C   C1121     1.0  0.95384  0.34324  0.49595  1.0000
  H   H1928     1.0  0.65148  0.30852  0.44156  1.0000
  H   H1929     1.0  0.01386  0.40963  0.59233  1.0000
  C   C1122     1.0  0.95527  0.37482  0.61042  1.0000
  S   S318      1.0  0.07315  0.39242  0.89279  1.0000
  C   C1123     1.0  0.02848  0.43069  0.56096  1.0000
  H   H1930     1.0  0.66647  0.40385  0.55037  1.0000
  H   H1931     1.0  0.67500  0.40177  0.89559  1.0000
  C   C1124     1.0  0.94188  0.36882  0.65540  1.0000
  C   C1125     1.0  0.09286  0.34318  0.76412  1.0000
  C   C1126     1.0  0.67402  0.36844  0.68966  1.0000
  H   H1932     1.0  0.79656  0.39965  0.66114  1.0000
  C   C1127     1.0  0.65485  0.20481  0.62527  1.0000
  S   S319      1.0  0.83537  0.25774  0.63535  1.0000
  H   H1933     1.0  0.69502  0.37442  0.69170  1.0000
  H   H1934     1.0  0.86921  0.30640  0.54596  1.0000
  H   H1935     1.0  0.78639  0.25199  0.68022  1.0000
  C   C1128     1.0  0.12029  0.34314  0.70450  1.0000
  C   C1129     1.0  0.88246  0.43229  0.44809  1.0000
  C   C1130     1.0  0.01966  0.44563  0.82547  1.0000
  H   H1936     1.0  0.83687  0.42675  0.68005  1.0000
  H   H1937     1.0  0.93271  0.36423  0.49532  1.0000
  H   H1938     1.0  0.94001  0.26507  0.80042  1.0000
  H   H1939     1.0  0.91960  0.30569  0.65770  1.0000
  H   H1940     1.0  0.97801  0.26246  0.91955  1.0000
  C   C1131     1.0  0.93762  0.38860  0.65631  1.0000
  H   H1941     1.0  0.72317  0.33226  0.51339  1.0000
  Fe  Fe161     1.0  0.07807  0.41638  0.81060  1.0000
  H   H1942     1.0  0.70977  0.33557  0.69503  1.0000
  H   H1943     1.0  0.00079  0.35620  0.77654  1.0000
  C   C1132     1.0  0.77191  0.42149  0.73322  1.0000
  C   C1133     1.0  0.99411  0.28376  0.90309  1.0000
  C   C1134     1.0  0.93721  0.34054  0.89859  1.0000
  H   H1944     1.0  0.95426  0.32696  0.83751  1.0000
  H   H1945     1.0  0.69555  0.43777  0.86595  1.0000
  H   H1946     1.0  0.95446  0.30110  0.75188  1.0000
  C   C1135     1.0  0.78826  0.43725  0.68409  1.0000
  C   C1136     1.0  0.94638  0.41419  0.61228  1.0000
  C   C1137     1.0  0.71929  0.36812  0.46523  1.0000
  H   H1947     1.0  0.87829  0.40590  0.88304  1.0000
  H   H1948     1.0  0.87935  0.29205  0.49154  1.0000
  C   C1138     1.0  0.82522  0.25595  0.68982  1.0000
  C   C1139     1.0  0.11398  0.33949  0.75126  1.0000
  H   H1949     1.0  0.92383  0.28976  0.91046  1.0000
  H   H1950     1.0  0.88314  0.44467  0.74571  1.0000
  Fe  Fe162     1.0  0.03427  0.36081  0.89652  1.0000
  S   S320      1.0  0.03755  0.38670  0.81505  1.0000
  H   H1951     1.0  0.73648  0.33042  0.74985  1.0000
  S   S321      1.0  0.62674  0.32050  0.52979  1.0000
  H   H1952     1.0  0.72557  0.29964  0.75314  1.0000
  H   H1953     1.0  0.68322  0.20818  0.57336  1.0000
  C   C1140     1.0  0.96335  0.34615  0.90405  1.0000
  C   C1141     1.0  0.95465  0.44700  0.91618  1.0000
  N   N82       1.0  0.96561  0.29760  0.84260  1.0000
  H   H1954     1.0  0.84909  0.25818  0.78604  1.0000
  H   H1955     1.0  0.00542  0.32387  0.84054  1.0000
  H   H1956     1.0  0.65858  0.38317  0.79339  1.0000
  H   H1957     1.0  0.05512  0.44346  0.69999  1.0000
  H   H1958     1.0  0.87805  0.35005  0.52683  1.0000
  H   H1959     1.0  0.80170  0.30670  0.70444  1.0000
  H   H1960     1.0  0.85378  0.45075  0.57352  1.0000
  H   H1961     1.0  0.10461  0.41558  0.62219  1.0000
  C   C1142     1.0  0.89070  0.31456  0.52835  1.0000
  H   H1962     1.0  0.68047  0.37888  0.86061  1.0000
  C   C1143     1.0  0.69457  0.41950  0.86796  1.0000
  H   H1963     1.0  0.01229  0.28672  0.88212  1.0000
  C   C1144     1.0  0.66027  0.24771  0.44765  1.0000
  H   H1964     1.0  0.90715  0.37303  0.53443  1.0000
  C   C1145     1.0  0.85375  0.43108  0.53210  1.0000
  H   H1965     1.0  0.65482  0.42872  0.58406  1.0000
  C   C1146     1.0  0.01485  0.42918  0.65587  1.0000
  H   H1966     1.0  0.79553  0.38001  0.44104  1.0000
  H   H1967     1.0  0.83977  0.41060  0.53903  1.0000
  H   H1968     1.0  0.71302  0.39791  0.81919  1.0000
  S   S322      1.0  0.82005  0.27969  0.50374  1.0000
  C   C1147     1.0  0.88864  0.35272  0.55434  1.0000
  S   S323      1.0  0.76734  0.28947  0.49407  1.0000
  S   S324      1.0  0.92972  0.33633  0.70993  1.0000
  H   H1969     1.0  0.77457  0.28627  0.82587  1.0000
  H   H1970     1.0  0.92300  0.42332  0.83538  1.0000
  Fe  Fe163     1.0  0.83777  0.28917  0.82052  1.0000
  H   H1971     1.0  0.82915  0.43257  0.83392  1.0000
  H   H1972     1.0  0.84902  0.40810  0.92792  1.0000
  H   H1973     1.0  0.76252  0.27689  0.78302  1.0000
  C   C1148     1.0  0.66997  0.38994  0.64341  1.0000
  S   S325      1.0  0.85886  0.32515  0.74173  1.0000
  H   H1974     1.0  0.68783  0.38217  0.54092  1.0000
  H   H1975     1.0  0.63162  0.20744  0.67500  1.0000
  N   N83       1.0  0.88261  0.43653  0.52497  1.0000
  H   H1976     1.0  0.75243  0.29232  0.70891  1.0000
  H   H1977     1.0  0.66259  0.36413  0.72420  1.0000
  Fe  Fe164     1.0  0.89697  0.32932  0.76377  1.0000
  C   C1149     1.0  0.68258  0.42086  0.55169  1.0000
  H   H1978     1.0  0.88690  0.38659  0.59703  1.0000
  H   H1979     1.0  0.05689  0.43430  0.60354  1.0000
  H   H1980     1.0  0.76140  0.32237  0.64989  1.0000
  H   H1981     1.0  0.98039  0.35930  0.87121  1.0000
  H   H1982     1.0  0.69875  0.43324  0.51590  1.0000
  H   H1983     1.0  0.70854  0.29250  0.50858  1.0000
  H   H1984     1.0  0.98100  0.27440  0.83111  1.0000
  H   H1985     1.0  0.66073  0.44314  0.51789  1.0000
  C   C1150     1.0  0.84573  0.43052  0.85084  1.0000
  H   H1986     1.0  0.75414  0.35329  0.55230  1.0000
  C   C1151     1.0  0.78085  0.37813  0.68756  1.0000
  H   H1987     1.0  0.97001  0.28190  0.75214  1.0000
  H   H1988     1.0  0.82145  0.42916  0.57378  1.0000
  C   C1152     1.0  0.76761  0.31447  0.68522  1.0000
  H   H1989     1.0  0.81980  0.38810  0.91552  1.0000
  S   S326      1.0  0.80136  0.25309  0.83067  1.0000
  H   H1990     1.0  0.71797  0.41610  0.67419  1.0000
  H   H1991     1.0  0.95766  0.41017  0.90272  1.0000
  S   S327      1.0  0.72806  0.27409  0.61941  1.0000
  C   C1153     1.0  0.66587  0.27608  0.51435  1.0000
  H   H1992     1.0  0.79768  0.22113  0.56011  1.0000
  H   H1993     1.0  0.85742  0.39666  0.80232  1.0000
  C   C1154     1.0  0.98628  0.30568  0.86863  1.0000
  Fe  Fe165     1.0  0.87500  0.31892  0.86372  1.0000
  C   C1155     1.0  0.10449  0.34913  0.67171  1.0000
  H   H1994     1.0  0.78270  0.37300  0.72567  1.0000
  H   H1995     1.0  0.99706  0.30944  0.78298  1.0000
  H   H1996     1.0  0.76121  0.37756  0.68405  1.0000
  C   C1156     1.0  0.91309  0.44997  0.66469  1.0000
  Fe  Fe166     1.0  0.85893  0.35038  0.77140  1.0000
  S   S328      1.0  0.76798  0.24249  0.60143  1.0000
  C   C1157     1.0  0.87705  0.39509  0.60966  1.0000
  H   H1997     1.0  0.88013  0.27213  0.55446  1.0000
  H   H1998     1.0  0.64236  0.41298  0.86356  1.0000
  H   H1999     1.0  0.89941  0.40785  0.80931  1.0000
  H   H2000     1.0  0.76663  0.41827  0.80383  1.0000
  H   H2001     1.0  0.70213  0.44286  0.60822  1.0000
  H   H2002     1.0  0.82100  0.41419  0.92350  1.0000
  H   H2003     1.0  0.68276  0.37281  0.78944  1.0000
  C   C1158     1.0  0.67428  0.42965  0.79815  1.0000
  H   H2004     1.0  0.73223  0.43934  0.72607  1.0000
  S   S329      1.0  0.75603  0.21975  0.50964  1.0000
  H   H2005     1.0  0.64367  0.22816  0.52691  1.0000
  H   H2006     1.0  0.80662  0.36518  0.66947  1.0000
  H   H2007     1.0  0.74273  0.28317  0.81655  1.0000
  C   C1159     1.0  0.83334  0.40873  0.90760  1.0000
  C   C1160     1.0  0.00069  0.43337  0.69084  1.0000
  C   C1161     1.0  0.71652  0.41442  0.89247  1.0000
  C   C1162     1.0  0.64549  0.40907  0.83405  1.0000
  H   H2008     1.0  0.90650  0.42362  0.49982  1.0000
  Fe  Fe167     1.0  0.05925  0.36684  0.80306  1.0000
  C   C1163     1.0  0.87248  0.44858  0.76820  1.0000
  C   C1164     1.0  0.72725  0.39512  0.45011  1.0000
  H   H2009     1.0  0.66202  0.25909  0.55305  1.0000
  H   H2010     1.0  0.85512  0.38493  0.61388  1.0000
  H   H2011     1.0  0.70164  0.36221  0.58190  1.0000
  H   H2012     1.0  0.98218  0.43403  0.68098  1.0000
  S   S330      1.0  0.05172  0.35541  0.74617  1.0000
  H   H2013     1.0  0.07084  0.35689  0.65953  1.0000
  C   C1165     1.0  0.75470  0.39207  0.50858  1.0000
  H   H2014     1.0  0.00436  0.43142  0.86085  1.0000
  H   H2015     1.0  0.91871  0.44480  0.77753  1.0000
  C   C1166     1.0  0.93553  0.34710  0.52451  1.0000
  H   H2016     1.0  0.10873  0.35118  0.63621  1.0000
  C   C1167     1.0  0.77809  0.32068  0.75549  1.0000
  C   C1168     1.0  0.74684  0.36508  0.52354  1.0000
  H   H2017     1.0  0.66357  0.40102  0.65515  1.0000
  C   C1169     1.0  0.68843  0.23529  0.92587  1.0000
  H   H2018     1.0  0.68584  0.23165  0.76015  1.0000
  S   S331      1.0  0.74532  0.32742  0.85004  1.0000
  N   N84       1.0  0.76722  0.32921  0.71032  1.0000
  H   H2019     1.0  0.94368  0.42972  0.61346  1.0000
  H   H2020     1.0  0.89536  0.33306  0.49135  1.0000
  Fe  Fe168     1.0  0.76300  0.27959  0.57304  1.0000
  C   C1170     1.0  0.73849  0.32217  0.72692  1.0000
  H   H2021     1.0  0.69685  0.26939  0.48870  1.0000
  C   C1171     1.0  0.71284  0.43406  0.59821  1.0000
  H   H2022     1.0  0.81067  0.39662  0.47246  1.0000
  C   C1172     1.0  0.68048  0.39010  0.78526  1.0000
  H   H2023     1.0  0.74255  0.42075  0.62816  1.0000
  C   C1173     1.0  0.72940  0.35321  0.50141  1.0000
  H   H2024     1.0  0.89169  0.28022  0.62149  1.0000
  C   C1174     1.0  0.98217  0.34722  0.76682  1.0000
  C   C1175     1.0  0.79502  0.31667  0.67099  1.0000
  H   H2025     1.0  0.78720  0.25949  0.91413  1.0000
  C   C1176     1.0  0.97700  0.29183  0.80878  1.0000
  H   H2026     1.0  0.66758  0.23247  0.46310  1.0000
  C   C1177     1.0  0.79198  0.25089  0.74814  1.0000
  H   H2027     1.0  0.74481  0.44901  0.62905  1.0000
  S   S332      1.0  0.68159  0.26206  0.88928  1.0000
  Fe  Fe169     1.0  0.77545  0.25410  0.52183  1.0000
  Fe  Fe170     1.0  0.65824  0.35375  0.45671  1.0000
  H   H2028     1.0  0.90084  0.40697  0.71075  1.0000
  H   H2029     1.0  0.91107  0.29730  0.50449  1.0000
  H   H2030     1.0  0.69985  0.23349  0.86328  1.0000
  H   H2031     1.0  0.71638  0.38787  0.61858  1.0000
  C   C1178     1.0  0.83522  0.25636  0.76344  1.0000
  H   H2032     1.0  0.66616  0.29271  0.51786  1.0000
  N   N85       1.0  0.86248  0.42573  0.82282  1.0000
  H   H2033     1.0  0.94477  0.33857  0.46896  1.0000
  H   H2034     1.0  0.67349  0.43144  0.76172  1.0000
  H   H2035     1.0  0.78241  0.43093  0.65828  1.0000
  H   H2036     1.0  0.83944  0.41408  0.61229  1.0000
  C   C1179     1.0  0.77941  0.43011  0.76612  1.0000
  H   H2037     1.0  0.07639  0.44487  0.65448  1.0000
  H   H2038     1.0  0.97531  0.36278  0.75004  1.0000
  C   C1180     1.0  0.69309  0.39721  0.82242  1.0000
  C   C1181     1.0  0.78497  0.35964  0.67367  1.0000
  C   C1182     1.0  0.91183  0.29813  0.59697  1.0000
  H   H2039     1.0  0.63046  0.41163  0.81281  1.0000
  C   C1183     1.0  0.70264  0.23662  0.59517  1.0000
  C   C1184     1.0  0.88570  0.42479  0.84481  1.0000
  H   H2040     1.0  0.79980  0.32699  0.74437  1.0000
  C   C1185     1.0  0.89070  0.29287  0.51937  1.0000
  H   H2041     1.0  0.72215  0.24484  0.57219  1.0000
  H   H2042     1.0  0.67120  0.24511  0.67279  1.0000
  H   H2043     1.0  0.89577  0.44187  0.85051  1.0000
  H   H2044     1.0  0.94336  0.44114  0.89212  1.0000
  H   H2045     1.0  0.04676  0.42942  0.85174  1.0000
  C   C1186     1.0  0.86667  0.41361  0.69855  1.0000
  N   N86       1.0  0.69608  0.42308  0.81712  1.0000
  C   C1187     1.0  0.84184  0.43147  0.57539  1.0000
  C   C1188     1.0  0.74527  0.40721  0.47120  1.0000
  C   C1189     1.0  0.65149  0.21516  0.65359  1.0000
  S   S333      1.0  0.69011  0.32855  0.87865  1.0000
  S   S334      1.0  0.05318  0.33856  0.88528  1.0000
  C   C1190     1.0  0.66699  0.22662  0.78297  1.0000
  C   C1191     1.0  0.88612  0.42204  0.50146  1.0000
  H   H2046     1.0  0.93420  0.34938  0.86154  1.0000
  S   S335      1.0  0.89890  0.35751  0.78827  1.0000
  H   H2047     1.0  0.99509  0.41624  0.73044  1.0000
  Fe  Fe171     1.0  0.70321  0.29698  0.89937  1.0000
  S   S336      1.0  0.74644  0.36409  0.89481  1.0000
  C   C1192     1.0  0.81856  0.39379  0.81552  1.0000
  C   C1193     1.0  0.08292  0.35216  0.68510  1.0000
  H   H2048     1.0  0.90773  0.33597  0.60911  1.0000
  S   S337      1.0  0.77599  0.40668  0.53707  1.0000
  C   C1194     1.0  0.76330  0.28990  0.79707  1.0000
  C   C1195     1.0  0.64115  0.24237  0.49132  1.0000
  H   H2049     1.0  0.69033  0.40720  0.74564  1.0000
  C   C1196     1.0  0.84275  0.25738  0.72001  1.0000
  C   C1197     1.0  0.89415  0.42199  0.69345  1.0000
  C   C1198     1.0  0.80976  0.25286  0.77775  1.0000
  H   H2050     1.0  0.81132  0.37686  0.80908  1.0000
  H   H2051     1.0  0.92090  0.29114  0.57883  1.0000
  C   C1199     1.0  0.67385  0.23654  0.65217  1.0000
  C   C1200     1.0  0.67043  0.43890  0.54905  1.0000
  H   H2052     1.0  0.75169  0.42818  0.45868  1.0000
  Fe  Fe172     1.0  0.75510  0.32960  0.91611  1.0000
  H   H2053     1.0  0.70206  0.30429  0.44887  1.0000
  C   C1201     1.0  0.95804  0.41950  0.56668  1.0000
  C   C1202     1.0  0.96252  0.39985  0.56554  1.0000
  H   H2054     1.0  0.67089  0.35872  0.60734  1.0000
  C   C1203     1.0  0.69079  0.37365  0.57912  1.0000
  H   H2055     1.0  0.77243  0.24856  0.75883  1.0000
  C   C1204     1.0  0.93963  0.27233  0.87969  1.0000
  S   S338      1.0  0.80668  0.30736  0.55881  1.0000
  H   H2056     1.0  0.86234  0.25976  0.70938  1.0000
  H   H2057     1.0  0.98031  0.31295  0.89029  1.0000
  H   H2058     1.0  0.87596  0.31106  0.61488  1.0000
  H   H2059     1.0  0.98687  0.34400  0.73714  1.0000
  S   S339      1.0  0.83509  0.31411  0.84888  1.0000
  H   H2060     1.0  0.93068  0.28382  0.65622  1.0000
  H   H2061     1.0  0.64102  0.38746  0.85266  1.0000
  H   H2062     1.0  0.80303  0.38615  0.84847  1.0000
  C   C1205     1.0  0.70786  0.39670  0.58749  1.0000
  C   C1206     1.0  0.92906  0.30260  0.63191  1.0000
  H   H2063     1.0  0.66491  0.34858  0.69236  1.0000
  H   H2064     1.0  0.87494  0.35285  0.57940  1.0000
  C   C1207     1.0  0.95950  0.32078  0.81319  1.0000
  H   H2065     1.0  0.88071  0.41744  0.43796  1.0000
  H   H2066     1.0  0.63107  0.20775  0.93132  1.0000
  H   H2067     1.0  0.85790  0.45028  0.84761  1.0000
  C   C1208     1.0  0.84599  0.39880  0.82732  1.0000
  H   H2068     1.0  0.86419  0.43464  0.44479  1.0000
  H   H2069     1.0  0.01760  0.44101  0.53817  1.0000
  C   C1209     1.0  0.07745  0.34973  0.73090  1.0000
  C   C1210     1.0  0.85813  0.43316  0.67550  1.0000
  H   H2070     1.0  0.79285  0.30568  0.65175  1.0000
  C   C1211     1.0  0.73025  0.42906  0.63477  1.0000
  H   H2071     1.0  0.99831  0.41682  0.64600  1.0000
  H   H2072     1.0  0.72570  0.41239  0.55412  1.0000
  H   H2073     1.0  0.95920  0.32749  0.52143  1.0000
  H   H2074     1.0  0.74487  0.26426  0.91145  1.0000
  C   C1212     1.0  0.92825  0.27258  0.92378  1.0000
  C   C1213     1.0  0.72317  0.44737  0.78248  1.0000
  S   S340      1.0  0.65443  0.38730  0.45674  1.0000
  H   H2075     1.0  0.78265  0.36625  0.63512  1.0000
  C   C1214     1.0  0.89052  0.42645  0.57338  1.0000
  Fe  Fe173     1.0  0.73293  0.35903  0.83293  1.0000
  S   S341      1.0  0.69628  0.35301  0.43951  1.0000
  H   H2076     1.0  0.67884  0.45023  0.78968  1.0000
  H   H2077     1.0  0.11243  0.42387  0.55923  1.0000
  H   H2078     1.0  0.81930  0.41156  0.78146  1.0000
  S   S342      1.0  0.87592  0.29103  0.84083  1.0000
  H   H2079     1.0  0.08834  0.34071  0.79995  1.0000
  H   H2080     1.0  0.92786  0.38433  0.69097  1.0000
  H   H2081     1.0  0.91267  0.43443  0.56526  1.0000
  H   H2082     1.0  0.12389  0.36089  0.82785  1.0000
  C   C1215     1.0  0.64938  0.29098  0.43940  1.0000
  H   H2083     1.0  0.91343  0.37698  0.91198  1.0000
  C   C1216     1.0  0.04802  0.44710  0.58010  1.0000
  H   H2084     1.0  0.79359  0.44049  0.93296  1.0000
  H   H2085     1.0  0.70967  0.40570  0.93310  1.0000
  H   H2086     1.0  0.72697  0.45095  0.56049  1.0000
  C   C1217     1.0  0.81288  0.39853  0.43571  1.0000
  C   C1218     1.0  0.97613  0.41016  0.15760  1.0000
  H   H2087     1.0  0.09192  0.33479  0.13136  1.0000
  H   H2088     1.0  0.91544  0.36986  0.03820  1.0000
  H   H2089     1.0  0.07862  0.44341  0.27461  1.0000
  H   H2090     1.0  0.69907  0.29578  0.14221  1.0000
  H   H2091     1.0  0.03391  0.40511  0.27133  1.0000
  H   H2092     1.0  0.75596  0.27739  0.11178  1.0000
  H   H2093     1.0  0.77916  0.21138  0.09977  1.0000
  C   C1219     1.0  0.68529  0.22433  0.97723  1.0000
  S   S343      1.0  0.65257  0.41741  0.07831  1.0000
  H   H2094     1.0  0.66885  0.29923  0.41402  1.0000
  S   S344      1.0  0.81455  0.44522  0.12538  1.0000
  H   H2095     1.0  0.79293  0.42244  0.40864  1.0000
  H   H2096     1.0  0.76598  0.30640  0.37425  1.0000
  N   N87       1.0  0.78108  0.24074  0.99462  1.0000
  C   C1220     1.0  0.70465  0.26605  0.13499  1.0000
  H   H2097     1.0  0.78900  0.31139  0.24194  1.0000
  C   C1221     1.0  0.75598  0.26476  0.93966  1.0000
  C   C1222     1.0  0.96720  0.33434  0.95205  1.0000
  C   C1223     1.0  0.75450  0.41600  0.98762  1.0000
  C   C1224     1.0  0.10857  0.41859  0.05293  1.0000
  N   N88       1.0  0.73995  0.40024  0.04258  1.0000
  C   C1225     1.0  0.81186  0.33426  0.01612  1.0000
  H   H2098     1.0  0.82710  0.28678  0.02166  1.0000
  H   H2099     1.0  0.81367  0.28256  0.95486  1.0000
  S   S345      1.0  0.88166  0.31338  0.93723  1.0000
  C   C1226     1.0  0.66271  0.30147  0.04591  1.0000
  H   H2100     1.0  0.68489  0.21211  0.09439  1.0000
  S   S346      1.0  0.66190  0.35965  0.18890  1.0000
  H   H2101     1.0  0.65950  0.40085  0.29398  1.0000
  C   C1227     1.0  0.73439  0.41098  0.11041  1.0000
  H   H2102     1.0  0.80157  0.43534  0.25832  1.0000
  C   C1228     1.0  0.71940  0.44974  0.20220  1.0000
  H   H2103     1.0  0.75194  0.43437  0.96540  1.0000
  S   S347      1.0  0.62926  0.34877  0.41126  1.0000
  S   S348      1.0  0.89275  0.44232  0.96464  1.0000
  H   H2104     1.0  0.68479  0.41449  0.17263  1.0000
  N   N89       1.0  0.71498  0.24571  0.15497  1.0000
  H   H2105     1.0  0.04785  0.38593  0.02952  1.0000
  H   H2106     1.0  0.07163  0.29937  0.18028  1.0000
  H   H2107     1.0  0.74125  0.25667  0.97420  1.0000
  C   C1229     1.0  0.91581  0.38014  0.94345  1.0000
  C   C1230     1.0  0.79542  0.25620  0.37197  1.0000
  H   H2108     1.0  0.68015  0.41805  0.34417  1.0000
  H   H2109     1.0  0.85708  0.29658  0.33597  1.0000
  C   C1231     1.0  0.06580  0.44674  0.24845  1.0000
  H   H2110     1.0  0.77480  0.40171  0.28892  1.0000
  H   H2111     1.0  0.83772  0.28024  0.39985  1.0000
  S   S349      1.0  0.68478  0.33514  0.99722  1.0000
  H   H2112     1.0  0.86411  0.32629  0.42620  1.0000
  H   H2113     1.0  0.10360  0.36869  0.04046  1.0000
  H   H2114     1.0  0.01845  0.40269  0.38953  1.0000
  H   H2115     1.0  0.69983  0.20377  0.21512  1.0000
  Fe  Fe174     1.0  0.63170  0.40041  0.03398  1.0000
  H   H2116     1.0  0.97431  0.43938  0.08645  1.0000
  C   C1232     1.0  0.87853  0.34774  0.40589  1.0000
  C   C1233     1.0  0.08491  0.42041  0.05438  1.0000
  C   C1234     1.0  0.68467  0.22257  0.11364  1.0000
  H   H2117     1.0  0.77577  0.40349  0.35992  1.0000
  C   C1235     1.0  0.78507  0.20451  0.98481  1.0000
  H   H2118     1.0  0.71752  0.21521  0.26918  1.0000
  H   H2119     1.0  0.76149  0.23739  0.13917  1.0000
  H   H2120     1.0  0.68323  0.25600  0.13561  1.0000
  H   H2121     1.0  0.79042  0.41038  0.98705  1.0000
  S   S350      1.0  0.79203  0.33026  0.94061  1.0000
  C   C1236     1.0  0.07115  0.31728  0.14830  1.0000
  C   C1237     1.0  0.82316  0.31258  0.27592  1.0000
  C   C1238     1.0  0.79049  0.33174  0.99410  1.0000
  H   H2122     1.0  0.63593  0.30253  0.37176  1.0000
  C   C1239     1.0  0.69821  0.22192  0.20758  1.0000
  H   H2123     1.0  0.75006  0.23250  0.05010  1.0000
  C   C1240     1.0  0.79855  0.22876  0.99167  1.0000
  H   H2124     1.0  0.70881  0.34783  0.13746  1.0000
  S   S351      1.0  0.94156  0.43343  0.41523  1.0000
  C   C1241     1.0  0.70505  0.27982  0.16360  1.0000
  H   H2125     1.0  0.69773  0.37757  0.08550  1.0000
  S   S352      1.0  0.78347  0.33271  0.13594  1.0000
  H   H2126     1.0  0.65653  0.39897  0.22233  1.0000
  H   H2127     1.0  0.83639  0.33473  0.24679  1.0000
  H   H2128     1.0  0.64902  0.24404  0.42147  1.0000
  H   H2129     1.0  0.88216  0.41009  0.35392  1.0000
  H   H2130     1.0  0.67642  0.21586  0.21145  1.0000
  H   H2131     1.0  0.95392  0.43085  0.99360  1.0000
  H   H2132     1.0  0.09663  0.36502  0.98993  1.0000
  C   C1242     1.0  0.92501  0.38380  0.37201  1.0000
  H   H2133     1.0  0.06683  0.41318  0.24826  1.0000
  C   C1243     1.0  0.11241  0.33955  0.03915  1.0000
  H   H2134     1.0  0.76551  0.38132  0.06477  1.0000
  H   H2135     1.0  0.79668  0.32521  0.38452  1.0000
  H   H2136     1.0  0.63268  0.23809  0.06491  1.0000
  H   H2137     1.0  0.05026  0.42860  0.20451  1.0000
  C   C1244     1.0  0.66982  0.44130  0.16742  1.0000
  H   H2138     1.0  0.71772  0.38979  0.13323  1.0000
  H   H2139     1.0  0.11639  0.33284  0.07644  1.0000
  H   H2140     1.0  0.67908  0.23281  0.99468  1.0000
  C   C1245     1.0  0.65487  0.29423  0.09523  1.0000
  S   S353      1.0  0.99867  0.33822  0.96253  1.0000
  S   S354      1.0  0.64544  0.41708  0.95209  1.0000
  H   H2141     1.0  0.68694  0.21494  0.28106  1.0000
  H   H2142     1.0  0.65950  0.28684  0.99675  1.0000
  C   C1246     1.0  0.81018  0.33524  0.05924  1.0000
  C   C1247     1.0  0.84535  0.43515  0.32815  1.0000
  H   H2143     1.0  0.63412  0.26066  0.17252  1.0000
  H   H2144     1.0  0.04729  0.43492  0.36699  1.0000
  N   N90       1.0  0.95283  0.40066  0.97905  1.0000
  H   H2145     1.0  0.04001  0.36806  0.99888  1.0000
  H   H2146     1.0  0.77157  0.27677  0.35261  1.0000
  H   H2147     1.0  0.65410  0.43461  0.14963  1.0000
  H   H2148     1.0  0.66867  0.20713  0.14974  1.0000
  H   H2149     1.0  0.74851  0.26981  0.17300  1.0000
  C   C1248     1.0  0.79821  0.26709  0.99181  1.0000
  C   C1249     1.0  0.62766  0.28554  0.41193  1.0000
  H   H2150     1.0  0.67951  0.23863  0.08873  1.0000
  S   S355      1.0  0.95861  0.39353  0.37379  1.0000
  H   H2151     1.0  0.68868  0.35634  0.29885  1.0000
  H   H2152     1.0  0.73418  0.33816  0.14061  1.0000
  H   H2153     1.0  0.70277  0.37780  0.03060  1.0000
  C   C1250     1.0  0.65417  0.28123  0.03502  1.0000
  H   H2154     1.0  0.77149  0.41982  0.06915  1.0000
  N   N91       1.0  0.69452  0.42198  0.23170  1.0000
  C   C1251     1.0  0.86975  0.36704  0.39265  1.0000
  H   H2155     1.0  0.81160  0.30475  0.21801  1.0000
  C   C1252     1.0  0.69415  0.42160  0.31364  1.0000
  C   C1253     1.0  0.96323  0.42286  0.12501  1.0000
  H   H2156     1.0  0.77513  0.44419  0.31246  1.0000
  H   H2157     1.0  0.79571  0.43986  0.98939  1.0000
  H   H2158     1.0  0.95184  0.37690  0.94781  1.0000
  H   H2159     1.0  0.84852  0.44829  0.24816  1.0000
  H   H2160     1.0  0.74745  0.41395  0.13489  1.0000
  H   H2161     1.0  0.72523  0.29036  0.16737  1.0000
  H   H2162     1.0  0.10455  0.32216  0.03431  1.0000
  H   H2163     1.0  0.75130  0.32898  0.99763  1.0000
  C   C1254     1.0  0.70274  0.41383  0.01938  1.0000
  C   C1255     1.0  0.00752  0.44327  0.22159  1.0000
  H   H2164     1.0  0.71643  0.24697  0.24122  1.0000
  H   H2165     1.0  0.75605  0.22902  0.95056  1.0000
  H   H2166     1.0  0.74784  0.32927  0.07478  1.0000
  H   H2167     1.0  0.05806  0.32214  0.16415  1.0000
  H   H2168     1.0  0.67837  0.26809  0.42613  1.0000
  H   H2169     1.0  0.67417  0.36807  0.32677  1.0000
  C   C1256     1.0  0.81285  0.42508  0.39580  1.0000
  H   H2170     1.0  0.00070  0.39499  0.94507  1.0000
  H   H2171     1.0  0.78847  0.32734  0.28736  1.0000
  H   H2172     1.0  0.04045  0.29675  0.00266  1.0000
  C   C1257     1.0  0.88866  0.39494  0.36507  1.0000
  C   C1258     1.0  0.04883  0.32360  0.02970  1.0000
  S   S356      1.0  0.86182  0.37939  0.10323  1.0000
  Fe  Fe175     1.0  0.97253  0.43149  0.37493  1.0000
  H   H2173     1.0  0.80592  0.22162  0.02550  1.0000
  H   H2174     1.0  0.92322  0.41324  0.98415  1.0000
  N   N92       1.0  0.81811  0.43236  0.34236  1.0000
  C   C1259     1.0  0.08357  0.44242  0.01399  1.0000
  H   H2175     1.0  0.96651  0.38107  0.07544  1.0000
  C   C1260     1.0  0.71037  0.39092  0.04618  1.0000
  H   H2176     1.0  0.82665  0.33713  0.07637  1.0000
  H   H2177     1.0  0.04857  0.41147  0.35135  1.0000
  H   H2178     1.0  0.74093  0.36609  0.14645  1.0000
  H   H2179     1.0  0.92551  0.42281  0.11662  1.0000
  C   C1261     1.0  0.79094  0.28024  0.36289  1.0000
  C   C1262     1.0  0.76574  0.33081  0.05841  1.0000
  H   H2180     1.0  0.68993  0.26497  0.20085  1.0000
  C   C1263     1.0  0.05325  0.34998  0.06689  1.0000
  H   H2181     1.0  0.74586  0.40318  0.97175  1.0000
  S   S357      1.0  0.87960  0.43789  0.09463  1.0000
  C   C1264     1.0  0.77056  0.24787  0.94878  1.0000
  C   C1265     1.0  0.75733  0.22109  0.04100  1.0000
  Fe  Fe176     1.0  0.83537  0.42441  0.11401  1.0000
  C   C1266     1.0  0.75830  0.24203  0.16750  1.0000
  H   H2182     1.0  0.66135  0.30995  0.10357  1.0000
  H   H2183     1.0  0.82971  0.33559  0.99975  1.0000
  H   H2184     1.0  0.07501  0.38924  0.99319  1.0000
  H   H2185     1.0  0.79933  0.25526  0.06912  1.0000
  H   H2186     1.0  0.73584  0.36285  0.05286  1.0000
  C   C1267     1.0  0.79574  0.41403  0.28810  1.0000
  H   H2187     1.0  0.71170  0.44220  0.29794  1.0000
  H   H2188     1.0  0.82804  0.44204  0.39851  1.0000
  C   C1268     1.0  0.74380  0.37537  0.06948  1.0000
  C   C1269     1.0  0.05989  0.31006  0.11045  1.0000
  C   C1270     1.0  0.93723  0.37576  0.03139  1.0000
  H   H2189     1.0  0.71578  0.28246  0.09487  1.0000
  H   H2190     1.0  0.72690  0.25179  0.08279  1.0000
  C   C1271     1.0  0.96180  0.38887  0.20745  1.0000
  H   H2191     1.0  0.94185  0.27333  0.94836  1.0000
  H   H2192     1.0  0.83024  0.31844  0.37759  1.0000
  C   C1272     1.0  0.05431  0.37460  0.01882  1.0000
  H   H2193     1.0  0.67665  0.32448  0.26726  1.0000
  H   H2194     1.0  0.94551  0.39649  0.07249  1.0000
  Fe  Fe177     1.0  0.63628  0.37350  0.14122  1.0000
  H   H2195     1.0  0.01176  0.41464  0.30870  1.0000
  H   H2196     1.0  0.79760  0.39037  0.36234  1.0000
  H   H2197     1.0  0.06770  0.40501  0.08707  1.0000
  H   H2198     1.0  0.65121  0.27504  0.33413  1.0000
  C   C1273     1.0  0.76762  0.33039  0.01494  1.0000
  H   H2199     1.0  0.71963  0.40678  0.42190  1.0000
  H   H2200     1.0  0.71069  0.42607  0.97805  1.0000
  S   S358      1.0  0.82420  0.38215  0.17802  1.0000
  C   C1274     1.0  0.68064  0.37068  0.29065  1.0000
  H   H2201     1.0  0.87854  0.45085  0.26709  1.0000
  H   H2202     1.0  0.81894  0.35035  0.28905  1.0000
  H   H2203     1.0  0.01288  0.43942  0.31974  1.0000
  C   C1275     1.0  0.70570  0.22563  0.25112  1.0000
  H   H2204     1.0  0.85953  0.44373  0.34646  1.0000
  H   H2205     1.0  0.07538  0.31775  0.99055  1.0000
  H   H2206     1.0  0.71870  0.21876  0.13555  1.0000
  C   C1276     1.0  0.09418  0.35295  0.03102  1.0000
  C   C1277     1.0  0.64186  0.28424  0.30648  1.0000
  H   H2207     1.0  0.06419  0.35860  0.08808  1.0000
  S   S359      1.0  0.82683  0.41155  0.05937  1.0000
  C   C1278     1.0  0.78691  0.33312  0.08071  1.0000
  H   H2208     1.0  0.83646  0.30354  0.27909  1.0000
  N   N93       1.0  0.81298  0.30893  0.32460  1.0000
  C   C1279     1.0  0.81332  0.26551  0.03217  1.0000
  H   H2209     1.0  0.92287  0.44699  0.23922  1.0000
  H   H2210     1.0  0.05159  0.34082  0.99203  1.0000
  C   C1280     1.0  0.99430  0.39291  0.98080  1.0000
  H   H2211     1.0  0.66153  0.44653  0.19026  1.0000
  H   H2212     1.0  0.74624  0.44264  0.16604  1.0000
  H   H2213     1.0  0.81714  0.24482  0.95969  1.0000
  C   C1281     1.0  0.83645  0.31774  0.34520  1.0000
  H   H2214     1.0  0.78183  0.34289  0.34170  1.0000
  C   C1282     1.0  0.79613  0.40948  0.34041  1.0000
  H   H2215     1.0  0.03788  0.29550  0.12811  1.0000
  H   H2216     1.0  0.01202  0.39805  0.99567  1.0000
  H   H2217     1.0  0.02680  0.31190  0.04868  1.0000
  C   C1283     1.0  0.94510  0.31801  0.99437  1.0000
  H   H2218     1.0  0.84347  0.41465  0.34224  1.0000
  S   S360      1.0  0.01008  0.42018  0.13779  1.0000
  H   H2219     1.0  0.66288  0.36421  0.27680  1.0000
  S   S361      1.0  0.83566  0.35701  0.41257  1.0000
  C   C1284     1.0  0.63956  0.26644  0.13411  1.0000
  C   C1285     1.0  0.67628  0.41789  0.19912  1.0000
  C   C1286     1.0  0.05573  0.30542  0.01921  1.0000
  H   H2220     1.0  0.94796  0.30901  0.03158  1.0000
  C   C1287     1.0  0.90619  0.35617  0.39458  1.0000
  C   C1288     1.0  0.93570  0.41356  0.14207  1.0000
  H   H2221     1.0  0.71099  0.39947  0.22021  1.0000
  S   S362      1.0  0.63335  0.21361  0.29058  1.0000
  S   S363      1.0  0.10981  0.39109  0.10446  1.0000
  H   H2222     1.0  0.74688  0.22253  0.20446  1.0000
  C   C1289     1.0  0.80216  0.32875  0.31155  1.0000
  H   H2223     1.0  0.68051  0.40420  0.02683  1.0000
  H   H2224     1.0  0.73977  0.20776  0.03441  1.0000
  H   H2225     1.0  0.90745  0.39372  0.93924  1.0000
  Fe  Fe178     1.0  0.86768  0.39451  0.15478  1.0000
  H   H2226     1.0  0.00884  0.42550  0.22651  1.0000
  C   C1290     1.0  0.65621  0.31219  0.26874  1.0000
  H   H2227     1.0  0.78699  0.27766  0.40011  1.0000
  C   C1291     1.0  0.64404  0.32430  0.23335  1.0000
  H   H2228     1.0  0.93199  0.36026  0.11102  1.0000
  C   C1292     1.0  0.85046  0.29999  0.36389  1.0000
  C   C1293     1.0  0.63883  0.25368  0.07350  1.0000
  H   H2229     1.0  0.98004  0.37105  0.00873  1.0000
  H   H2230     1.0  0.93070  0.42480  0.33519  1.0000
  H   H2231     1.0  0.70905  0.42765  0.03324  1.0000
  C   C1294     1.0  0.92151  0.39244  0.19217  1.0000
  H   H2232     1.0  0.92377  0.36418  0.26379  1.0000
  H   H2233     1.0  0.98940  0.42073  0.99627  1.0000
  N   N94       1.0  0.06464  0.33410  0.05929  1.0000
  Fe  Fe179     1.0  0.70461  0.33092  0.94233  1.0000
  S   S364      1.0  0.00531  0.44928  0.40570  1.0000
  C   C1295     1.0  0.05316  0.42213  0.24265  1.0000
  H   H2234     1.0  0.81361  0.26220  0.34626  1.0000
  S   S365      1.0  0.88747  0.38088  0.21563  1.0000
  C   C1296     1.0  0.67930  0.42002  0.27400  1.0000
  H   H2235     1.0  0.82626  0.25613  0.03468  1.0000
  C   C1297     1.0  0.91914  0.31255  0.98892  1.0000
  C   C1298     1.0  0.93465  0.38034  0.22494  1.0000
  H   H2236     1.0  0.78440  0.21184  0.94532  1.0000
  H   H2237     1.0  0.77855  0.25345  0.17043  1.0000
  H   H2238     1.0  0.78808  0.27865  0.27825  1.0000
  C   C1299     1.0  0.74453  0.26008  0.15121  1.0000
  C   C1300     1.0  0.78583  0.32533  0.35598  1.0000
  H   H2239     1.0  0.80891  0.40760  0.27712  1.0000
  C   C1301     1.0  0.91502  0.32321  0.94111  1.0000
  H   H2240     1.0  0.11935  0.31581  0.42795  1.0000
  C   C1302     1.0  0.94592  0.39251  0.94180  1.0000
  H   H2241     1.0  0.71993  0.40503  0.26841  1.0000
  H   H2242     1.0  0.79660  0.24470  0.41105  1.0000
  C   C1303     1.0  0.02581  0.43221  0.31068  1.0000
  H   H2243     1.0  0.77788  0.24140  0.36810  1.0000
  C   C1304     1.0  0.80141  0.30104  0.25305  1.0000
  S   S366      1.0  0.71394  0.29629  0.96757  1.0000
  H   H2244     1.0  0.90361  0.35967  0.97853  1.0000
  H   H2245     1.0  0.90885  0.25340  0.94753  1.0000
  H   H2246     1.0  0.67409  0.43681  0.25935  1.0000
  Fe  Fe180     1.0  0.81921  0.37037  0.12191  1.0000
  C   C1305     1.0  0.71279  0.23511  0.12099  1.0000
  H   H2247     1.0  0.75663  0.43979  0.03323  1.0000
  H   H2248     1.0  0.90210  0.29936  0.02191  1.0000
  C   C1306     1.0  0.94541  0.42225  0.97077  1.0000
  C   C1307     1.0  0.03613  0.41999  0.35670  1.0000
  C   C1308     1.0  0.75186  0.41852  0.06221  1.0000
  H   H2249     1.0  0.97179  0.37915  0.23277  1.0000
  H   H2250     1.0  0.93609  0.42856  0.22887  1.0000
  H   H2251     1.0  0.91291  0.34109  0.40680  1.0000
  C   C1309     1.0  0.70298  0.40018  0.25149  1.0000
  H   H2252     1.0  0.93764  0.35744  0.03640  1.0000
  C   C1310     1.0  0.78526  0.42705  0.97449  1.0000
  C   C1311     1.0  0.94612  0.37893  0.07455  1.0000
  H   H2253     1.0  0.06523  0.44373  0.01551  1.0000
  C   C1312     1.0  0.73089  0.35609  0.12664  1.0000
  H   H2254     1.0  0.03183  0.33624  0.09005  1.0000
  H   H2255     1.0  0.06862  0.29792  0.10802  1.0000
  H   H2256     1.0  0.78583  0.27630  0.99435  1.0000
  H   H2257     1.0  0.72615  0.42524  0.10105  1.0000
  H   H2258     1.0  0.99044  0.43593  0.25185  1.0000
  H   H2259     1.0  0.05519  0.28778  0.05337  1.0000
  H   H2260     1.0  0.85233  0.33910  0.31653  1.0000
  C   C1313     1.0  0.98279  0.41233  0.97244  1.0000
  C   C1314     1.0  0.63205  0.24624  0.12311  1.0000
  H   H2261     1.0  0.70058  0.40580  0.33142  1.0000
  Fe  Fe181     1.0  0.87012  0.42177  0.04436  1.0000
  H   H2262     1.0  0.86912  0.31085  0.37176  1.0000
  C   C1315     1.0  0.91623  0.40328  0.35479  1.0000
  H   H2263     1.0  0.83191  0.39862  0.42701  1.0000
  H   H2264     1.0  0.91912  0.44325  0.18625  1.0000
  C   C1316     1.0  0.93286  0.44666  0.20941  1.0000
  C   C1317     1.0  0.68957  0.20191  0.00628  1.0000
  H   H2265     1.0  0.64031  0.45071  0.98325  1.0000
  H   H2266     1.0  0.99852  0.28556  0.93552  1.0000
  H   H2267     1.0  0.10456  0.57469  0.83874  1.0000
  H   H2268     1.0  0.88000  0.48528  0.76837  1.0000
  H   H2269     1.0  0.01415  0.50553  0.85474  1.0000
  C   C1318     1.0  0.70291  0.63505  0.73882  1.0000
  H   H2270     1.0  0.08789  0.53272  0.85447  1.0000
  C   C1319     1.0  0.03861  0.63668  0.65523  1.0000
  Fe  Fe182     1.0  0.72937  0.66855  0.55683  1.0000
  H   H2271     1.0  0.68408  0.62782  0.82986  1.0000
  H   H2272     1.0  0.04157  0.48833  0.49955  1.0000
  H   H2273     1.0  0.11512  0.66488  0.50068  1.0000
  C   C1320     1.0  0.03552  0.69525  0.85966  1.0000
  C   C1321     1.0  0.71762  0.58683  0.48217  1.0000
  C   C1322     1.0  0.09770  0.58750  0.80924  1.0000
  H   H2274     1.0  0.78434  0.64409  0.73834  1.0000
  H   H2275     1.0  0.00331  0.45798  0.57608  1.0000
  H   H2276     1.0  0.82651  0.54054  0.88195  1.0000
  H   H2277     1.0  0.72507  0.62885  0.82064  1.0000
  H   H2278     1.0  0.01549  0.53830  0.83039  1.0000
  H   H2279     1.0  0.84769  0.66872  0.83269  1.0000
  H   H2280     1.0  0.96062  0.60087  0.71234  1.0000
  C   C1323     1.0  0.65448  0.45189  0.91839  1.0000
  C   C1324     1.0  0.70609  0.52136  0.48387  1.0000
  S   S367      1.0  0.91584  0.63380  0.92380  1.0000
  Fe  Fe183     1.0  0.02457  0.53392  0.60826  1.0000
  H   H2281     1.0  0.92143  0.50630  0.48114  1.0000
  H   H2282     1.0  0.93502  0.56731  0.58695  1.0000
  S   S368      1.0  0.00726  0.59897  0.63501  1.0000
  H   H2283     1.0  0.80825  0.62404  0.61385  1.0000
  S   S369      1.0  0.83151  0.56241  0.75970  1.0000
  S   S370      1.0  0.87914  0.54706  0.83878  1.0000
  H   H2284     1.0  0.74196  0.54590  0.77273  1.0000
  H   H2285     1.0  0.06620  0.58519  0.77242  1.0000
  H   H2286     1.0  0.89946  0.49190  0.71459  1.0000
  H   H2287     1.0  0.67162  0.59793  0.80650  1.0000
  H   H2288     1.0  0.02307  0.64262  0.65012  1.0000
  H   H2289     1.0  0.09834  0.58179  0.72522  1.0000
  H   H2290     1.0  0.69026  0.51012  0.80298  1.0000
  H   H2291     1.0  0.09724  0.62002  0.66217  1.0000
  H   H2292     1.0  0.72765  0.61628  0.64793  1.0000
  H   H2293     1.0  0.89023  0.51506  0.81018  1.0000
  H   H2294     1.0  0.88641  0.48764  0.51048  1.0000
  H   H2295     1.0  0.12150  0.62443  0.54591  1.0000
  C   C1325     1.0  0.86952  0.58794  0.89429  1.0000
  S   S371      1.0  0.85879  0.61708  0.61262  1.0000
  Fe  Fe184     1.0  0.83944  0.50762  0.43967  1.0000
  C   C1326     1.0  0.06370  0.46330  0.77437  1.0000
  H   H2296     1.0  0.74957  0.58469  0.62964  1.0000
  H   H2297     1.0  0.05821  0.60508  0.50396  1.0000
  C   C1327     1.0  0.07250  0.56359  0.50477  1.0000
  H   H2298     1.0  0.04182  0.52405  0.77015  1.0000
  C   C1328     1.0  0.76056  0.53972  0.44773  1.0000
  S   S372      1.0  0.92755  0.50442  0.60251  1.0000
  H   H2299     1.0  0.04941  0.49366  0.82727  1.0000
  C   C1329     1.0  0.80347  0.61892  0.65287  1.0000
  C   C1330     1.0  0.88010  0.50626  0.92484  1.0000
  H   H2300     1.0  0.73153  0.53557  0.66290  1.0000
  H   H2301     1.0  0.68494  0.51397  0.49781  1.0000
  H   H2302     1.0  0.85502  0.61472  0.83922  1.0000
  H   H2303     1.0  0.67357  0.56580  0.51451  1.0000
  C   C1331     1.0  0.05839  0.47231  0.62142  1.0000
  H   H2304     1.0  0.00227  0.59360  0.76112  1.0000
  C   C1332     1.0  0.00942  0.61479  0.79991  1.0000
  H   H2305     1.0  0.11242  0.55607  0.70279  1.0000
  S   S373      1.0  0.76174  0.47004  0.47324  1.0000
  C   C1333     1.0  0.75997  0.56622  0.74612  1.0000
  C   C1334     1.0  0.98763  0.67150  0.79655  1.0000
  Fe  Fe185     1.0  0.78821  0.49918  0.49351  1.0000
  C   C1335     1.0  0.81975  0.56153  0.91569  1.0000
  H   H2306     1.0  0.89819  0.58029  0.43645  1.0000
  C   C1336     1.0  0.03510  0.48268  0.73835  1.0000
  C   C1337     1.0  0.08183  0.64334  0.67218  1.0000
  H   H2307     1.0  0.05250  0.48124  0.88857  1.0000
  H   H2308     1.0  0.96225  0.60138  0.55721  1.0000
  C   C1338     1.0  0.09779  0.64459  0.51326  1.0000
  C   C1339     1.0  0.73281  0.48636  0.90060  1.0000
  H   H2309     1.0  0.77537  0.61045  0.82917  1.0000
  H   H2310     1.0  0.96160  0.61158  0.81977  1.0000
  H   H2311     1.0  0.08658  0.52420  0.75397  1.0000
  C   C1340     1.0  0.73488  0.64853  0.78329  1.0000
  C   C1341     1.0  0.83868  0.68212  0.76131  1.0000
  C   C1342     1.0  0.72604  0.68297  0.71345  1.0000
  S   S374      1.0  0.98801  0.49262  0.65416  1.0000
  C   C1343     1.0  0.89122  0.47766  0.75606  1.0000
  H   H2312     1.0  0.94685  0.62773  0.71897  1.0000
  H   H2313     1.0  0.71621  0.48511  0.88421  1.0000
  C   C1344     1.0  0.93634  0.69350  0.92959  1.0000
  S   S375      1.0  0.06211  0.53955  0.56955  1.0000
  C   C1345     1.0  0.04018  0.67359  0.90407  1.0000
  S   S376      1.0  0.81398  0.47908  0.51994  1.0000
  H   H2314     1.0  0.06047  0.67613  0.89445  1.0000
  H   H2315     1.0  0.75497  0.63422  0.47682  1.0000
  H   H2316     1.0  0.06510  0.46560  0.54714  1.0000
  H   H2317     1.0  0.89597  0.47495  0.45429  1.0000
  H   H2318     1.0  0.71114  0.63389  0.88983  1.0000
  C   C1346     1.0  0.90820  0.59249  0.45290  1.0000
  C   C1347     1.0  0.94706  0.68202  0.55766  1.0000
  H   H2319     1.0  0.69251  0.59299  0.52439  1.0000
  H   H2320     1.0  0.72046  0.67183  0.90359  1.0000
  H   H2321     1.0  0.71431  0.45905  0.70875  1.0000
  H   H2322     1.0  0.70956  0.63242  0.44990  1.0000
  C   C1348     1.0  0.05669  0.66286  0.52135  1.0000
  H   H2323     1.0  0.07569  0.48899  0.58741  1.0000
  H   H2324     1.0  0.03279  0.55725  0.49777  1.0000
  H   H2325     1.0  0.12272  0.63333  0.48309  1.0000
  C   C1349     1.0  0.90727  0.64415  0.62704  1.0000
  C   C1350     1.0  0.93378  0.56761  0.47811  1.0000
  H   H2326     1.0  0.72834  0.58996  0.73699  1.0000
  H   H2327     1.0  0.01331  0.61607  0.50211  1.0000
  C   C1351     1.0  0.01695  0.52449  0.82034  1.0000
  H   H2328     1.0  0.74293  0.67535  0.81246  1.0000
  S   S377      1.0  0.75954  0.49888  0.81309  1.0000
  H   H2329     1.0  0.03647  0.64047  0.44067  1.0000
  S   S378      1.0  0.65195  0.66078  0.92896  1.0000
  H   H2330     1.0  0.92304  0.60193  0.52681  1.0000
  S   S379      1.0  0.85079  0.49949  0.68081  1.0000
  H   H2331     1.0  0.97917  0.64696  0.72556  1.0000
  C   C1352     1.0  0.96032  0.59026  0.43605  1.0000
  C   C1353     1.0  0.05753  0.60987  0.65123  1.0000
  C   C1354     1.0  0.79335  0.63021  0.80998  1.0000
  C   C1355     1.0  0.05389  0.62072  0.50280  1.0000
  H   H2332     1.0  0.72542  0.46595  0.78081  1.0000
  H   H2333     1.0  0.93119  0.67542  0.81890  1.0000
  H   H2334     1.0  0.71919  0.63887  0.71164  1.0000
  H   H2335     1.0  0.01770  0.63722  0.78139  1.0000
  C   C1356     1.0  0.88700  0.68978  0.67061  1.0000
  H   H2336     1.0  0.05216  0.48342  0.63328  1.0000
  H   H2337     1.0  0.71069  0.49772  0.55709  1.0000
  H   H2338     1.0  0.05455  0.68063  0.51381  1.0000
  H   H2339     1.0  0.03851  0.69327  0.82737  1.0000
  C   C1357     1.0  0.82168  0.55714  0.87236  1.0000
  C   C1358     1.0  0.10916  0.62551  0.51881  1.0000
  H   H2340     1.0  0.89728  0.63099  0.66688  1.0000
  H   H2341     1.0  0.94891  0.64229  0.75508  1.0000
  H   H2342     1.0  0.87044  0.47616  0.62777  1.0000
  H   H2343     1.0  0.05670  0.59513  0.64311  1.0000
  H   H2344     1.0  0.71046  0.68623  0.69470  1.0000
  H   H2345     1.0  0.76288  0.67522  0.89128  1.0000
  C   C1359     1.0  0.98379  0.64989  0.84437  1.0000
  N   N95       1.0  0.96390  0.58890  0.78789  1.0000
  N   N96       1.0  0.75334  0.58275  0.69925  1.0000
  C   C1360     1.0  0.95469  0.56307  0.83931  1.0000
  C   C1361     1.0  0.97162  0.54824  0.85054  1.0000
  C   C1362     1.0  0.90601  0.65793  0.54153  1.0000
  C   C1363     1.0  0.75210  0.57165  0.66655  1.0000
  H   H2346     1.0  0.89515  0.65535  0.51521  1.0000
  H   H2347     1.0  0.88447  0.55922  0.55824  1.0000
  C   C1364     1.0  0.93422  0.66500  0.60926  1.0000
  N   N97       1.0  0.07941  0.64767  0.47948  1.0000
  C   C1365     1.0  0.03635  0.61591  0.64861  1.0000
  H   H2348     1.0  0.02535  0.65290  0.91317  1.0000
  S   S380      1.0  0.96329  0.52042  0.69325  1.0000
  H   H2349     1.0  0.87007  0.62595  0.87880  1.0000
  H   H2350     1.0  0.93371  0.54805  0.84652  1.0000
  H   H2351     1.0  0.94508  0.66784  0.63537  1.0000
  H   H2352     1.0  0.08786  0.47223  0.66435  1.0000
  H   H2353     1.0  0.70946  0.53925  0.69624  1.0000
  H   H2354     1.0  0.91001  0.47898  0.54433  1.0000
  H   H2355     1.0  0.64842  0.55234  0.88143  1.0000
  C   C1366     1.0  0.69224  0.64859  0.79500  1.0000
  H   H2356     1.0  0.90206  0.54051  0.57058  1.0000
  H   H2357     1.0  0.06341  0.67554  0.44336  1.0000
  H   H2358     1.0  0.63087  0.67542  0.71899  1.0000
  H   H2359     1.0  0.00752  0.69922  0.46969  1.0000
  C   C1367     1.0  0.03971  0.49544  0.52442  1.0000
  C   C1368     1.0  0.69706  0.63171  0.91794  1.0000
  C   C1369     1.0  0.82014  0.46976  0.70106  1.0000
  C   C1370     1.0  0.99407  0.60517  0.76754  1.0000
  C   C1371     1.0  0.81066  0.63765  0.83702  1.0000
  C   C1372     1.0  0.66794  0.65122  0.77687  1.0000
  C   C1373     1.0  0.67741  0.50881  0.86879  1.0000
  H   H2360     1.0  0.94207  0.53953  0.78228  1.0000
  C   C1374     1.0  0.88964  0.47181  0.92904  1.0000
  C   C1375     1.0  0.75393  0.67064  0.79223  1.0000
  C   C1376     1.0  0.90063  0.68947  0.71249  1.0000
  N   N98       1.0  0.06890  0.54815  0.79658  1.0000
  H   H2361     1.0  0.76647  0.66308  0.81539  1.0000
  H   H2362     1.0  0.01363  0.68858  0.86978  1.0000
  H   H2363     1.0  0.92958  0.57535  0.76010  1.0000
  S   S381      1.0  0.87883  0.56158  0.69987  1.0000
  H   H2364     1.0  0.77419  0.62275  0.68970  1.0000
  C   C1377     1.0  0.75593  0.65426  0.92479  1.0000
  H   H2365     1.0  0.65822  0.62049  0.50056  1.0000
  S   S382      1.0  0.11014  0.66011  0.68746  1.0000
  H   H2366     1.0  0.97654  0.45732  0.89893  1.0000
  H   H2367     1.0  0.76959  0.62408  0.63433  1.0000
  H   H2368     1.0  0.74174  0.68440  0.64762  1.0000
  C   C1378     1.0  0.05942  0.48236  0.73349  1.0000
  C   C1379     1.0  0.81994  0.67580  0.73556  1.0000
  H   H2369     1.0  0.70063  0.66316  0.80723  1.0000
  S   S383      1.0  0.80203  0.61726  0.90257  1.0000
  H   H2370     1.0  0.81535  0.57880  0.90213  1.0000
  C   C1380     1.0  0.89480  0.55276  0.54066  1.0000
  H   H2371     1.0  0.73297  0.69756  0.72591  1.0000
  H   H2372     1.0  0.86313  0.54182  0.50357  1.0000
  H   H2373     1.0  0.65747  0.63718  0.76442  1.0000
  H   H2374     1.0  0.07457  0.49639  0.69761  1.0000
  H   H2375     1.0  0.68826  0.63909  0.71777  1.0000
  S   S384      1.0  0.01669  0.68717  0.74945  1.0000
  H   H2376     1.0  0.62840  0.53338  0.60291  1.0000
  C   C1381     1.0  0.95447  0.56019  0.74785  1.0000
  H   H2377     1.0  0.76361  0.59139  0.44204  1.0000
  H   H2378     1.0  0.06232  0.66548  0.67467  1.0000
  H   H2379     1.0  0.66903  0.45969  0.84659  1.0000
  H   H2380     1.0  0.86616  0.67061  0.60959  1.0000
  H   H2381     1.0  0.99851  0.64283  0.85165  1.0000
  H   H2382     1.0  0.67363  0.67255  0.74686  1.0000
  H   H2383     1.0  0.95035  0.46250  0.91600  1.0000
  H   H2384     1.0  0.88829  0.67417  0.66565  1.0000
  C   C1382     1.0  0.93309  0.67804  0.52403  1.0000
  H   H2385     1.0  0.69256  0.56111  0.55929  1.0000
  H   H2386     1.0  0.05357  0.51979  0.87774  1.0000
  Fe  Fe186     1.0  0.85951  0.54479  0.77958  1.0000
  H   H2387     1.0  0.08725  0.63637  0.55200  1.0000
  N   N99       1.0  0.91802  0.57732  0.49560  1.0000
  H   H2388     1.0  0.09531  0.60087  0.81977  1.0000
  Fe  Fe187     1.0  0.68448  0.68276  0.55711  1.0000
  S   S385      1.0  0.76533  0.50664  0.53816  1.0000
  C   C1383     1.0  0.09216  0.54593  0.72826  1.0000
  C   C1384     1.0  0.03107  0.62106  0.47647  1.0000
  H   H2389     1.0  0.81777  0.63665  0.65430  1.0000
  S   S386      1.0  0.65768  0.65214  0.54035  1.0000
  H   H2390     1.0  0.96319  0.57980  0.53782  1.0000
  H   H2391     1.0  0.90860  0.47911  0.77204  1.0000
  H   H2392     1.0  0.76812  0.68985  0.75659  1.0000
  H   H2393     1.0  0.11366  0.60138  0.77301  1.0000
  H   H2394     1.0  0.11421  0.57406  0.49962  1.0000
  H   H2395     1.0  0.93431  0.45641  0.65998  1.0000
  C   C1385     1.0  0.66180  0.49190  0.91862  1.0000
  H   H2396     1.0  0.03599  0.64574  0.53417  1.0000
  H   H2397     1.0  0.08212  0.49969  0.83781  1.0000
  C   C1386     1.0  0.87707  0.46106  0.64596  1.0000
  S   S387      1.0  0.69444  0.65301  0.61784  1.0000
  C   C1387     1.0  0.96114  0.63768  0.88310  1.0000
  H   H2398     1.0  0.04558  0.61244  0.54295  1.0000
  H   H2399     1.0  0.74980  0.64128  0.90894  1.0000
  C   C1388     1.0  0.93532  0.59645  0.51066  1.0000
  S   S388      1.0  0.75551  0.55033  0.91300  1.0000
  C   C1389     1.0  0.89293  0.48386  0.87736  1.0000
  S   S389      1.0  0.64437  0.57833  0.65343  1.0000
  H   H2400     1.0  0.71540  0.56885  0.48153  1.0000
  C   C1390     1.0  0.69258  0.57640  0.52179  1.0000
  C   C1391     1.0  0.77435  0.61259  0.66959  1.0000
  H   H2401     1.0  0.73244  0.52736  0.72506  1.0000
  C   C1392     1.0  0.79837  0.64922  0.75870  1.0000
  N   N100      1.0  0.71403  0.65381  0.75755  1.0000
  H   H2402     1.0  0.94314  0.69076  0.48429  1.0000
  C   C1393     1.0  0.77024  0.57941  0.77631  1.0000
  C   C1394     1.0  0.94566  0.66806  0.82585  1.0000
  H   H2403     1.0  0.05495  0.56145  0.83852  1.0000
  H   H2404     1.0  0.75605  0.58493  0.78680  1.0000
  C   C1395     1.0  0.88812  0.50605  0.85001  1.0000
  H   H2405     1.0  0.79872  0.66715  0.90924  1.0000
  H   H2406     1.0  0.91841  0.68159  0.92144  1.0000
  S   S390      1.0  0.81683  0.53785  0.68929  1.0000
  H   H2407     1.0  0.80194  0.55122  0.86375  1.0000
  H   H2408     1.0  0.88720  0.59192  0.90951  1.0000
  H   H2409     1.0  0.97502  0.60306  0.44743  1.0000
  C   C1396     1.0  0.72670  0.58047  0.71492  1.0000
  C   C1397     1.0  0.95159  0.58224  0.75123  1.0000
  H   H2410     1.0  0.74910  0.47427  0.70629  1.0000
  H   H2411     1.0  0.74763  0.64567  0.76203  1.0000
  Fe  Fe188     1.0  0.98987  0.50112  0.71486  1.0000
  S   S391      1.0  0.72078  0.70033  0.49686  1.0000
  H   H2412     1.0  0.79054  0.59765  0.75600  1.0000
  C   C1398     1.0  0.64536  0.55708  0.90879  1.0000
  H   H2413     1.0  0.07828  0.54772  0.70407  1.0000
  H   H2414     1.0  0.95838  0.62119  0.92016  1.0000
  Fe  Fe189     1.0  0.67050  0.62350  0.59636  1.0000
  H   H2415     1.0  0.99723  0.60414  0.83879  1.0000
  C   C1399     1.0  0.66682  0.46859  0.86662  1.0000
  C   C1400     1.0  0.87784  0.69190  0.57640  1.0000
  C   C1401     1.0  0.95753  0.63205  0.74505  1.0000
  C   C1402     1.0  0.07356  0.66972  0.47347  1.0000
  Fe  Fe190     1.0  0.97491  0.45457  0.43986  1.0000
  H   H2416     1.0  0.06670  0.65866  0.55185  1.0000
  C   C1403     1.0  0.07050  0.57028  0.80417  1.0000
  H   H2417     1.0  0.70331  0.59808  0.79914  1.0000
  Fe  Fe191     1.0  0.84848  0.57626  0.68106  1.0000
  C   C1404     1.0  0.01553  0.46504  0.78466  1.0000
  C   C1405     1.0  0.87105  0.61604  0.85882  1.0000
  H   H2418     1.0  0.77209  0.56426  0.81155  1.0000
  S   S392      1.0  0.82975  0.50382  0.79484  1.0000
  H   H2419     1.0  0.77160  0.57247  0.65708  1.0000
  S   S393      1.0  0.70618  0.63682  0.53990  1.0000
  H   H2420     1.0  0.89831  0.61559  0.47741  1.0000
  H   H2421     1.0  0.86687  0.69329  0.54725  1.0000
  H   H2422     1.0  0.09257  0.68879  0.46091  1.0000
  C   C1406     1.0  0.88192  0.51739  0.87377  1.0000
  H   H2423     1.0  0.09300  0.60427  0.53422  1.0000
  H   H2424     1.0  0.85725  0.51566  0.56663  1.0000
  H   H2425     1.0  0.93095  0.59296  0.81183  1.0000
  C   C1407     1.0  0.68921  0.60421  0.77922  1.0000
  H   H2426     1.0  0.83668  0.57608  0.83741  1.0000
  C   C1408     1.0  0.08049  0.62399  0.66197  1.0000
  H   H2427     1.0  0.79689  0.49773  0.87584  1.0000
  H   H2428     1.0  0.03137  0.49627  0.70591  1.0000
  H   H2429     1.0  0.80751  0.60192  0.67719  1.0000
  H   H2430     1.0  0.69505  0.58981  0.68904  1.0000
  Fe  Fe192     1.0  0.96447  0.51518  0.62862  1.0000
  H   H2431     1.0  0.93855  0.55340  0.50994  1.0000
  C   C1409     1.0  0.95309  0.60562  0.79368  1.0000
  H   H2432     1.0  0.88444  0.69967  0.44244  1.0000
  H   H2433     1.0  0.06006  0.50919  0.52301  1.0000
  C   C1410     1.0  0.06984  0.45697  0.66237  1.0000
  H   H2434     1.0  0.02712  0.61130  0.80244  1.0000
  H   H2435     1.0  0.96089  0.52836  0.88737  1.0000
  C   C1411     1.0  0.94960  0.58526  0.55034  1.0000
  Fe  Fe193     1.0  0.84599  0.52212  0.71316  1.0000
  C   C1412     1.0  0.05408  0.56915  0.47868  1.0000
  H   H2436     1.0  0.68202  0.63713  0.90022  1.0000
  C   C1413     1.0  0.88874  0.60107  0.46553  1.0000
  H   H2437     1.0  0.95094  0.61629  0.47734  1.0000
  H   H2438     1.0  0.97576  0.56499  0.73953  1.0000
  C   C1414     1.0  0.89308  0.64091  0.59300  1.0000
  C   C1415     1.0  0.06296  0.49885  0.84911  1.0000
  H   H2439     1.0  0.04411  0.55631  0.74619  1.0000
  H   H2440     1.0  0.68159  0.59242  0.76132  1.0000
  H   H2441     1.0  0.94681  0.55935  0.71638  1.0000
  C   C1416     1.0  0.09350  0.56068  0.75549  1.0000
  S   S394      1.0  0.10520  0.49243  0.92642  1.0000
  H   H2442     1.0  0.77513  0.56099  0.73777  1.0000
  H   H2443     1.0  0.95372  0.56700  0.86968  1.0000
  H   H2444     1.0  0.89255  0.66792  0.74442  1.0000
  S   S395      1.0  0.00085  0.55589  0.57700  1.0000
  C   C1417     1.0  0.96858  0.68057  0.78732  1.0000
  H   H2445     1.0  0.88146  0.52288  0.51823  1.0000
  C   C1418     1.0  0.72996  0.54172  0.68960  1.0000
  C   C1419     1.0  0.90452  0.46948  0.64065  1.0000
  C   C1420     1.0  0.02275  0.47129  0.57849  1.0000
  H   H2446     1.0  0.99985  0.51837  0.80458  1.0000
  H   H2447     1.0  0.92150  0.55528  0.46344  1.0000
  C   C1421     1.0  0.63101  0.57106  0.90293  1.0000
  C   C1422     1.0  0.72066  0.51227  0.51738  1.0000
  H   H2448     1.0  0.71111  0.58476  0.64906  1.0000
  C   C1423     1.0  0.90194  0.46670  0.48952  1.0000
  S   S396      1.0  0.69875  0.54366  0.84396  1.0000
  H   H2449     1.0  0.02939  0.50789  0.50834  1.0000
  C   C1424     1.0  0.80331  0.45448  0.74977  1.0000
  H   H2450     1.0  0.99143  0.56016  0.85385  1.0000
  S   S397      1.0  0.76937  0.67614  0.57440  1.0000
  C   C1425     1.0  0.63143  0.59484  0.47827  1.0000
  C   C1426     1.0  0.04360  0.53865  0.78079  1.0000
  H   H2451     1.0  0.89598  0.70008  0.72771  1.0000
  H   H2452     1.0  0.11153  0.56292  0.77017  1.0000
  C   C1427     1.0  0.74776  0.52094  0.49900  1.0000
  C   C1428     1.0  0.90464  0.48542  0.50844  1.0000
  H   H2453     1.0  0.73511  0.59231  0.49728  1.0000
  S   S398      1.0  0.02775  0.54149  0.67022  1.0000
  H   H2454     1.0  0.99978  0.62374  0.72988  1.0000
  Fe  Fe194     1.0  0.71494  0.54612  0.90666  1.0000
  C   C1429     1.0  0.87315  0.53240  0.53089  1.0000
  H   H2455     1.0  0.97492  0.54352  0.82265  1.0000
  H   H2456     1.0  0.92264  0.47013  0.47847  1.0000
  C   C1430     1.0  0.06836  0.52549  0.84549  1.0000
  C   C1431     1.0  0.75681  0.49209  0.87416  1.0000
  C   C1432     1.0  0.06095  0.64984  0.66846  1.0000
  H   H2457     1.0  0.82530  0.47275  0.63068  1.0000
  H   H2458     1.0  0.71105  0.55870  0.74082  1.0000
  C   C1433     1.0  0.09993  0.57842  0.47952  1.0000
  H   H2459     1.0  0.68624  0.45911  0.54015  1.0000
  H   H2460     1.0  0.65291  0.64534  0.80894  1.0000
  C   C1434     1.0  0.67852  0.49717  0.84175  1.0000
  C   C1435     1.0  0.65209  0.61939  0.46939  1.0000
  C   C1436     1.0  0.94225  0.64699  0.87393  1.0000
  C   C1437     1.0  0.77826  0.49341  0.89596  1.0000
  Fe  Fe195     1.0  0.80288  0.52239  0.77009  1.0000
  C   C1438     1.0  0.75242  0.64894  0.44226  1.0000
  C   C1439     1.0  0.83413  0.66298  0.81201  1.0000
  H   H2461     1.0  0.87321  0.58058  0.87089  1.0000
  S   S399      1.0  0.72286  0.58041  0.91698  1.0000
  Fe  Fe196     1.0  0.69462  0.66723  0.48476  1.0000
  H   H2462     1.0  0.86977  0.58327  0.49445  1.0000
  C   C1440     1.0  0.71490  0.59373  0.67217  1.0000
  S   S400      1.0  0.98669  0.46827  0.79132  1.0000
  H   H2463     1.0  0.89069  0.62994  0.82962  1.0000
  S   S401      1.0  0.63209  0.48695  0.44285  1.0000
  S   S402      1.0  0.63709  0.52254  0.49303  1.0000
  H   H2464     1.0  0.86515  0.68147  0.68603  1.0000
  Fe  Fe197     1.0  0.00122  0.56012  0.64293  1.0000
  H   H2465     1.0  0.89899  0.47598  0.85859  1.0000
  S   S403      1.0  0.09291  0.46117  0.76633  1.0000
  H   H2466     1.0  0.80901  0.46111  0.77516  1.0000
  H   H2467     1.0  0.92272  0.69836  0.70001  1.0000
  H   H2468     1.0  0.77479  0.69686  0.46940  1.0000
  S   S404      1.0  0.96743  0.45134  0.51262  1.0000
  C   C1441     1.0  0.72948  0.45505  0.72798  1.0000
  Fe  Fe198     1.0  0.76129  0.58091  0.93208  1.0000
  H   H2469     1.0  0.02430  0.60493  0.46786  1.0000
  C   C1442     1.0  0.81256  0.46101  0.66838  1.0000
  H   H2470     1.0  0.01717  0.48000  0.59741  1.0000
  H   H2471     1.0  0.89791  0.69555  0.56177  1.0000
  H   H2472     1.0  0.74994  0.66286  0.45096  1.0000
  H   H2473     1.0  0.97196  0.69780  0.75104  1.0000
  Fe  Fe199     1.0  0.78904  0.45165  0.49506  1.0000
  C   C1443     1.0  0.74941  0.69218  0.67183  1.0000
  H   H2474     1.0  0.62647  0.69696  0.82340  1.0000
  N   N101      1.0  0.03594  0.45493  0.60901  1.0000
  H   H2475     1.0  0.76428  0.68564  0.68657  1.0000
  H   H2476     1.0  0.01358  0.45222  0.68989  1.0000
  H   H2477     1.0  0.84183  0.68246  0.43714  1.0000
  C   C1444     1.0  0.74550  0.61573  0.39389  1.0000
  Fe  Fe200     1.0  0.95531  0.47459  0.34520  1.0000
  H   H2478     1.0  0.04551  0.59898  0.29884  1.0000
  H   H2479     1.0  0.75716  0.68053  0.23164  1.0000
  C   C1445     1.0  0.65576  0.54903  0.95009  1.0000
  H   H2480     1.0  0.71413  0.46641  0.19004  1.0000
  C   C1446     1.0  0.75653  0.61102  0.16829  1.0000
  S   S405      1.0  0.00801  0.52855  0.93925  1.0000
  Fe  Fe201     1.0  0.89029  0.68182  0.25524  1.0000
  S   S406      1.0  0.75094  0.48861  0.02065  1.0000
  H   H2481     1.0  0.10472  0.55440  0.32312  1.0000
  S   S407      1.0  0.67025  0.54905  0.03170  1.0000
  H   H2482     1.0  0.80347  0.55739  0.33004  1.0000
  H   H2483     1.0  0.09542  0.65091  0.13233  1.0000
  C   C1447     1.0  0.82431  0.57946  0.19218  1.0000
  H   H2484     1.0  0.07935  0.60068  0.17747  1.0000
  H   H2485     1.0  0.95308  0.51843  0.35219  1.0000
  H   H2486     1.0  0.10028  0.65693  0.97928  1.0000
  C   C1448     1.0  0.75241  0.48623  0.96799  1.0000
  H   H2487     1.0  0.03330  0.63521  0.05855  1.0000
  S   S408      1.0  0.68972  0.67317  0.41037  1.0000
  H   H2488     1.0  0.80037  0.62745  0.14001  1.0000
  H   H2489     1.0  0.04046  0.60089  0.15676  1.0000
  H   H2490     1.0  0.68757  0.45998  0.13648  1.0000
  S   S409      1.0  0.10378  0.63741  0.34450  1.0000
  H   H2491     1.0  0.93905  0.67139  0.27441  1.0000
  H   H2492     1.0  0.11890  0.46976  0.16010  1.0000
  S   S410      1.0  0.93234  0.57849  0.02992  1.0000
  H   H2493     1.0  0.06238  0.64017  0.16201  1.0000
  H   H2494     1.0  0.99635  0.51908  0.09173  1.0000
  H   H2495     1.0  0.65359  0.56388  0.22214  1.0000
  C   C1449     1.0  0.86070  0.45346  0.27184  1.0000
  H   H2496     1.0  0.02720  0.64734  0.14009  1.0000
  H   H2497     1.0  0.80020  0.47046  0.16629  1.0000
  H   H2498     1.0  0.65884  0.56180  0.09992  1.0000
  C   C1450     1.0  0.86539  0.51268  0.15131  1.0000
  H   H2499     1.0  0.97042  0.46983  0.15175  1.0000
  Fe  Fe202     1.0  0.02803  0.63668  0.26716  1.0000
  C   C1451     1.0  0.96038  0.47269  0.17744  1.0000
  Fe  Fe203     1.0  0.62990  0.61785  0.11386  1.0000
  H   H2500     1.0  0.87281  0.66841  0.98483  1.0000
  H   H2501     1.0  0.63356  0.57237  0.00903  1.0000
  C   C1452     1.0  0.63616  0.61603  0.38901  1.0000
  C   C1453     1.0  0.07703  0.65259  0.12441  1.0000
  C   C1454     1.0  0.11193  0.50403  0.11717  1.0000
  H   H2502     1.0  0.00462  0.64158  0.10436  1.0000
  Fe  Fe204     1.0  0.01442  0.48955  0.33663  1.0000
  C   C1455     1.0  0.08484  0.50551  0.21962  1.0000
  C   C1456     1.0  0.86668  0.54006  0.99345  1.0000
  C   C1457     1.0  0.96095  0.67193  0.38900  1.0000
  C   C1458     1.0  0.95156  0.53203  0.16490  1.0000
  Fe  Fe205     1.0  0.97356  0.60427  0.03103  1.0000
  Fe  Fe206     1.0  0.79099  0.49944  0.39718  1.0000
  H   H2503     1.0  0.05014  0.66800  0.04872  1.0000
  Fe  Fe207     1.0  0.07678  0.51978  0.03282  1.0000
  H   H2504     1.0  0.65252  0.47092  0.22821  1.0000
  C   C1459     1.0  0.83725  0.50013  0.16527  1.0000
  S   S411      1.0  0.81056  0.69348  0.19679  1.0000
  H   H2505     1.0  0.86017  0.58350  0.98044  1.0000
  C   C1460     1.0  0.84487  0.53992  0.96486  1.0000
  C   C1461     1.0  0.00939  0.55101  0.95684  1.0000
  H   H2506     1.0  0.79687  0.62605  0.21008  1.0000
  H   H2507     1.0  0.94420  0.46938  0.09820  1.0000
  H   H2508     1.0  0.84847  0.53386  0.93910  1.0000
  C   C1462     1.0  0.08845  0.65599  0.04582  1.0000
  H   H2509     1.0  0.11524  0.70051  0.38515  1.0000
  C   C1463     1.0  0.09087  0.60663  0.40356  1.0000
  H   H2510     1.0  0.80221  0.67296  0.05165  1.0000
  H   H2511     1.0  0.02058  0.51648  0.14897  1.0000
  C   C1464     1.0  0.78066  0.65277  0.94229  1.0000
  C   C1465     1.0  0.65077  0.46347  0.94378  1.0000
  H   H2512     1.0  0.02901  0.48022  0.21921  1.0000
  H   H2513     1.0  0.71068  0.58431  0.23545  1.0000
  H   H2514     1.0  0.67357  0.55067  0.18414  1.0000
  H   H2515     1.0  0.71297  0.54448  0.26834  1.0000
  H   H2516     1.0  0.79805  0.53699  0.21907  1.0000
  C   C1466     1.0  0.88317  0.48303  0.95274  1.0000
  H   H2517     1.0  0.97293  0.54696  0.15641  1.0000
  S   S412      1.0  0.91280  0.68421  0.19276  1.0000
  C   C1467     1.0  0.72734  0.63544  0.42781  1.0000
  H   H2518     1.0  0.89327  0.59119  0.28833  1.0000
  C   C1468     1.0  0.80613  0.55199  0.22912  1.0000
  N   N102      1.0  0.63796  0.51427  0.19914  1.0000
  H   H2519     1.0  0.09123  0.49138  0.12099  1.0000
  H   H2520     1.0  0.77827  0.64333  0.20234  1.0000
  H   H2521     1.0  0.95610  0.66342  0.21874  1.0000
  H   H2522     1.0  0.82799  0.68468  0.38612  1.0000
  H   H2523     1.0  0.93509  0.49278  0.05218  1.0000
  H   H2524     1.0  0.89993  0.51524  0.11592  1.0000
  H   H2525     1.0  0.94383  0.51954  0.08894  1.0000
  H   H2526     1.0  0.86382  0.51290  0.34986  1.0000
  H   H2527     1.0  0.85744  0.68065  0.38939  1.0000
  H   H2528     1.0  0.73042  0.63643  0.18798  1.0000
  H   H2529     1.0  0.82502  0.46786  0.26947  1.0000
  H   H2530     1.0  0.68978  0.57946  0.42280  1.0000
  H   H2531     1.0  0.95682  0.60354  0.40085  1.0000
  S   S413      1.0  0.81602  0.47844  0.41724  1.0000
  Fe  Fe208     1.0  0.03053  0.66707  0.31779  1.0000
  H   H2532     1.0  0.78045  0.62041  0.10109  1.0000
  H   H2533     1.0  0.10767  0.65723  0.05467  1.0000
  H   H2534     1.0  0.70401  0.61668  0.24445  1.0000
  C   C1469     1.0  0.98871  0.55768  0.95580  1.0000
  S   S414      1.0  0.03149  0.47267  0.98981  1.0000
  H   H2535     1.0  0.92546  0.48897  0.20135  1.0000
  H   H2536     1.0  0.62989  0.61479  0.35796  1.0000
  H   H2537     1.0  0.86467  0.54516  0.02156  1.0000
  H   H2538     1.0  0.94674  0.55828  0.25181  1.0000
  S   S415      1.0  0.74347  0.55047  0.01492  1.0000
  H   H2539     1.0  0.71232  0.48046  0.96614  1.0000
  S   S416      1.0  0.84979  0.65533  0.25314  1.0000
  S   S417      1.0  0.70204  0.55184  0.38857  1.0000
  H   H2540     1.0  0.62726  0.47739  0.27230  1.0000
  H   H2541     1.0  0.69776  0.60657  0.02023  1.0000
  H   H2542     1.0  0.88100  0.47410  0.99245  1.0000
  H   H2543     1.0  0.92487  0.58928  0.33921  1.0000
  H   H2544     1.0  0.92421  0.67210  0.40645  1.0000
  H   H2545     1.0  0.68571  0.60998  0.94891  1.0000
  C   C1470     1.0  0.62951  0.68679  0.16028  1.0000
  Fe  Fe209     1.0  0.07372  0.65080  0.31353  1.0000
  H   H2546     1.0  0.73795  0.63430  0.24458  1.0000
  H   H2547     1.0  0.97184  0.54942  0.94289  1.0000
  C   C1471     1.0  0.65502  0.51011  0.17015  1.0000
  H   H2548     1.0  0.09318  0.67763  0.02129  1.0000
  H   H2549     1.0  0.04833  0.47599  0.18240  1.0000
  H   H2550     1.0  0.06828  0.68755  0.09177  1.0000
  N   N103      1.0  0.92971  0.60846  0.23263  1.0000
  H   H2551     1.0  0.09107  0.68846  0.12902  1.0000
  C   C1472     1.0  0.88786  0.58479  0.20865  1.0000
  Fe  Fe210     1.0  0.68879  0.66310  0.07257  1.0000
  H   H2552     1.0  0.98139  0.67046  0.28996  1.0000
  S   S418      1.0  0.68044  0.69350  0.00871  1.0000
  C   C1473     1.0  0.77723  0.62300  0.22589  1.0000
  H   H2553     1.0  0.75336  0.47739  0.13508  1.0000
  H   H2554     1.0  0.07869  0.65682  0.40409  1.0000
  H   H2555     1.0  0.66644  0.65869  0.34221  1.0000
  C   C1474     1.0  0.97726  0.67151  0.35620  1.0000
  H   H2556     1.0  0.04792  0.58499  0.00704  1.0000
  H   H2557     1.0  0.83697  0.60524  0.26584  1.0000
  C   C1475     1.0  0.94316  0.57565  0.22738  1.0000
  S   S419      1.0  0.10390  0.54699  0.05657  1.0000
  H   H2558     1.0  0.04910  0.59523  0.40843  1.0000
  H   H2559     1.0  0.91101  0.56473  0.28337  1.0000
  C   C1476     1.0  0.77594  0.49016  0.94323  1.0000
  H   H2560     1.0  0.99149  0.56305  0.23126  1.0000
  C   C1477     1.0  0.86289  0.48456  0.11900  1.0000
  C   C1478     1.0  0.63656  0.56767  0.98163  1.0000
  C   C1479     1.0  0.95798  0.63232  0.20878  1.0000
  H   H2561     1.0  0.96283  0.59292  0.20053  1.0000
  H   H2562     1.0  0.75328  0.61431  0.03742  1.0000
  N   N104      1.0  0.75403  0.60142  0.22282  1.0000
  H   H2563     1.0  0.75379  0.63660  0.35915  1.0000
  C   C1480     1.0  0.75774  0.69171  0.28567  1.0000
  C   C1481     1.0  0.83563  0.59871  0.20542  1.0000
  C   C1482     1.0  0.84116  0.57607  0.96995  1.0000
  C   C1483     1.0  0.91378  0.60932  0.26965  1.0000
  H   H2564     1.0  0.06533  0.56889  0.31355  1.0000
  C   C1484     1.0  0.94761  0.50306  0.18571  1.0000
  H   H2565     1.0  0.98171  0.67662  0.16569  1.0000
  H   H2566     1.0  0.04991  0.48380  0.28153  1.0000
  S   S420      1.0  0.66587  0.62911  0.06085  1.0000
  H   H2567     1.0  0.77966  0.59258  0.15696  1.0000
  H   H2568     1.0  0.67937  0.60903  0.35102  1.0000
  Fe  Fe211     1.0  0.87214  0.66107  0.18634  1.0000
  S   S421      1.0  0.02879  0.62671  0.34488  1.0000
  C   C1485     1.0  0.65677  0.64079  0.38012  1.0000
  Fe  Fe212     1.0  0.03310  0.46196  0.06785  1.0000
  C   C1486     1.0  0.91038  0.68070  0.00785  1.0000
  H   H2569     1.0  0.72975  0.65167  0.38929  1.0000
  C   C1487     1.0  0.77731  0.61690  0.27929  1.0000
  H   H2570     1.0  0.70349  0.63936  0.34641  1.0000
  S   S422      1.0  0.95897  0.59764  0.10459  1.0000
  H   H2571     1.0  0.92859  0.61215  0.16120  1.0000
  C   C1488     1.0  0.02021  0.63663  0.12023  1.0000
  C   C1489     1.0  0.92588  0.60928  0.31292  1.0000
  C   C1490     1.0  0.78071  0.61283  0.14076  1.0000
  S   S423      1.0  0.07264  0.65849  0.23738  1.0000
  H   H2572     1.0  0.72001  0.60349  0.98636  1.0000
  H   H2573     1.0  0.96933  0.50457  0.05315  1.0000
  H   H2574     1.0  0.77517  0.57813  0.23890  1.0000
  H   H2575     1.0  0.72183  0.58438  0.28664  1.0000
  H   H2576     1.0  0.75224  0.56760  0.29229  1.0000
  H   H2577     1.0  0.07160  0.58185  0.14715  1.0000
  H   H2578     1.0  0.91377  0.61241  0.33490  1.0000
  H   H2579     1.0  0.88731  0.55406  0.96754  1.0000
  Fe  Fe213     1.0  0.93061  0.61779  0.99078  1.0000
  H   H2580     1.0  0.83023  0.58560  0.15366  1.0000
  C   C1491     1.0  0.03084  0.56119  0.97479  1.0000
  H   H2581     1.0  0.87976  0.58847  0.17555  1.0000
  C   C1492     1.0  0.03145  0.57756  0.99246  1.0000
  C   C1493     1.0  0.07770  0.60218  0.14141  1.0000
  H   H2582     1.0  0.72169  0.58364  0.07155  1.0000
  H   H2583     1.0  0.06498  0.64431  0.99894  1.0000
  N   N105      1.0  0.95950  0.49920  0.14883  1.0000
  Fe  Fe214     1.0  0.65766  0.52979  0.42264  1.0000
  C   C1494     1.0  0.75500  0.57497  0.25178  1.0000
  C   C1495     1.0  0.73069  0.48380  0.94701  1.0000
  C   C1496     1.0  0.10914  0.60007  0.42903  1.0000
  H   H2584     1.0  0.75818  0.63171  0.14658  1.0000
  H   H2585     1.0  0.79793  0.54785  0.01060  1.0000
  H   H2586     1.0  0.64337  0.50073  0.15033  1.0000
  C   C1497     1.0  0.66455  0.64246  0.42047  1.0000
  C   C1498     1.0  0.04186  0.55123  0.27576  1.0000
  C   C1499     1.0  0.82195  0.48002  0.15565  1.0000
  H   H2587     1.0  0.83349  0.47520  0.31535  1.0000
  H   H2588     1.0  0.68083  0.50089  0.22057  1.0000
  C   C1500     1.0  0.80983  0.56329  0.29201  1.0000
  Fe  Fe215     1.0  0.64339  0.67723  0.06633  1.0000
  C   C1501     1.0  0.93316  0.51616  0.35344  1.0000
  H   H2589     1.0  0.10989  0.59720  0.28744  1.0000
  H   H2590     1.0  0.75732  0.60881  0.30281  1.0000
  C   C1502     1.0  0.73135  0.60639  0.04854  1.0000
  H   H2591     1.0  0.79286  0.49220  0.95917  1.0000
  H   H2592     1.0  0.76616  0.68935  0.13729  1.0000
  C   C1503     1.0  0.91584  0.60971  0.19197  1.0000
  H   H2593     1.0  0.77794  0.63179  0.95917  1.0000
  H   H2594     1.0  0.96996  0.58038  0.42709  1.0000
  S   S424      1.0  0.91268  0.61211  0.06083  1.0000
  Fe  Fe216     1.0  0.07667  0.49584  0.96929  1.0000
  H   H2595     1.0  0.87108  0.64413  0.04732  1.0000
  C   C1504     1.0  0.81773  0.55488  0.01861  1.0000
  S   S425      1.0  0.85984  0.63242  0.15959  1.0000
  C   C1505     1.0  0.05064  0.56904  0.29242  1.0000
  H   H2596     1.0  0.82024  0.53691  0.04433  1.0000
  N   N106      1.0  0.84389  0.56641  0.93621  1.0000
  H   H2597     1.0  0.87285  0.47872  0.10089  1.0000
  S   S426      1.0  0.81597  0.53012  0.41552  1.0000
  C   C1506     1.0  0.91659  0.50322  0.33198  1.0000
  C   C1507     1.0  0.73964  0.66164  0.98768  1.0000
  Fe  Fe217     1.0  0.65509  0.65845  0.00110  1.0000
  C   C1508     1.0  0.73367  0.55085  0.25013  1.0000
  H   H2598     1.0  0.08004  0.62298  0.03257  1.0000
  H   H2599     1.0  0.82729  0.50605  0.18335  1.0000
  H   H2600     1.0  0.99931  0.51857  0.18761  1.0000
  H   H2601     1.0  0.10812  0.59469  0.23474  1.0000
  C   C1509     1.0  0.01927  0.69595  0.02419  1.0000
  H   H2602     1.0  0.07642  0.51327  0.18755  1.0000
  H   H2603     1.0  0.78522  0.60241  0.29839  1.0000
  C   C1510     1.0  0.98773  0.52223  0.11845  1.0000
  H   H2604     1.0  0.92907  0.56906  0.20726  1.0000
  C   C1511     1.0  0.12022  0.63500  0.22005  1.0000
  C   C1512     1.0  0.06329  0.59065  0.42805  1.0000
  C   C1513     1.0  0.04298  0.64602  0.07731  1.0000
  H   H2605     1.0  0.00998  0.61419  0.14761  1.0000
  C   C1514     1.0  0.64106  0.55802  0.12311  1.0000
  H   H2606     1.0  0.73523  0.55536  0.21148  1.0000
  C   C1515     1.0  0.96056  0.66079  0.18817  1.0000
  H   H2607     1.0  0.94423  0.53938  0.13115  1.0000
  C   C1516     1.0  0.80955  0.68791  0.06297  1.0000
  H   H2608     1.0  0.97051  0.62952  0.23555  1.0000
  H   H2609     1.0  0.68111  0.49254  0.17467  1.0000
  H   H2610     1.0  0.79399  0.47962  0.29024  1.0000
  C   C1517     1.0  0.69915  0.61853  0.35751  1.0000
  C   C1518     1.0  0.82816  0.59063  0.25528  1.0000
  S   S427      1.0  0.65364  0.64929  0.13101  1.0000
  C   C1519     1.0  0.89176  0.50256  0.32990  1.0000
  S   S428      1.0  0.88405  0.53645  0.16661  1.0000
  H   H2611     1.0  0.71420  0.61982  0.33242  1.0000
  H   H2612     1.0  0.96683  0.67188  0.42130  1.0000
  S   S429      1.0  0.07893  0.53521  0.95170  1.0000
  H   H2613     1.0  0.95554  0.49733  0.21918  1.0000
  H   H2614     1.0  0.94372  0.58254  0.28690  1.0000
  H   H2615     1.0  0.90371  0.68751  0.02972  1.0000
  H   H2616     1.0  0.82504  0.52268  0.99237  1.0000
  S   S430      1.0  0.02603  0.67516  0.24192  1.0000
  C   C1520     1.0  0.79653  0.69539  0.24339  1.0000
  C   C1521     1.0  0.83472  0.47179  0.13346  1.0000
  C   C1522     1.0  0.92407  0.52662  0.37596  1.0000
  C   C1523     1.0  0.66793  0.49256  0.20088  1.0000
  S   S431      1.0  0.72877  0.66966  0.08929  1.0000
  H   H2617     1.0  0.80139  0.54310  0.94580  1.0000
  C   C1524     1.0  0.79935  0.54378  0.27931  1.0000
  H   H2618     1.0  0.77090  0.66142  0.41072  1.0000
  H   H2619     1.0  0.62885  0.56480  0.09787  1.0000
  Fe  Fe218     1.0  0.70385  0.54687  0.99862  1.0000
  H   H2620     1.0  0.82794  0.68905  0.07537  1.0000
  H   H2621     1.0  0.91040  0.62735  0.25022  1.0000
  H   H2622     1.0  0.09892  0.63039  0.22702  1.0000
  H   H2623     1.0  0.04615  0.60118  0.10259  1.0000
  H   H2624     1.0  0.67184  0.53015  0.13948  1.0000
  H   H2625     1.0  0.73705  0.53293  0.27185  1.0000
  H   H2626     1.0  0.09794  0.61607  0.11436  1.0000
  C   C1525     1.0  0.74621  0.54910  0.41452  1.0000
  S   S432      1.0  0.97305  0.64398  0.98580  1.0000
  C   C1526     1.0  0.00848  0.52648  0.14846  1.0000
  H   H2627     1.0  0.02235  0.54876  0.13043  1.0000
  H   H2628     1.0  0.01281  0.53445  0.24291  1.0000
  C   C1527     1.0  0.12086  0.60775  0.24790  1.0000
  H   H2629     1.0  0.72663  0.61269  0.07312  1.0000
  C   C1528     1.0  0.72729  0.59677  0.24509  1.0000
  Fe  Fe219     1.0  0.73647  0.51939  0.99527  1.0000
  C   C1529     1.0  0.00818  0.56500  0.24781  1.0000
  H   H2630     1.0  0.73832  0.60122  0.38137  1.0000
  H   H2631     1.0  0.75616  0.56319  0.37491  1.0000
  C   C1530     1.0  0.08497  0.68298  0.10133  1.0000
  N   N107      1.0  0.73221  0.64537  0.96350  1.0000
  H   H2632     1.0  0.88853  0.56546  0.22313  1.0000
  C   C1531     1.0  0.03890  0.58557  0.28515  1.0000
  Fe  Fe220     1.0  0.85039  0.69456  0.19895  1.0000
  C   C1532     1.0  0.02043  0.54902  0.25389  1.0000
  H   H2633     1.0  0.64325  0.53241  0.28120  1.0000
  H   H2634     1.0  0.08075  0.46384  0.21203  1.0000
  S   S433      1.0  0.63243  0.54551  0.37696  1.0000
  H   H2635     1.0  0.66520  0.52108  0.24362  1.0000
  C   C1533     1.0  0.94839  0.49092  0.07760  1.0000
  S   S434      1.0  0.05363  0.52777  0.29058  1.0000
  H   H2636     1.0  0.79105  0.63608  0.27688  1.0000
  C   C1534     1.0  0.06344  0.47863  0.26742  1.0000
  C   C1535     1.0  0.72514  0.62274  0.22921  1.0000
  C   C1536     1.0  0.88241  0.51239  0.35344  1.0000
  N   N108      1.0  0.04703  0.45508  0.26154  1.0000
  H   H2637     1.0  0.86443  0.51914  0.01453  1.0000
  C   C1537     1.0  0.64257  0.54122  0.24146  1.0000
  H   H2638     1.0  0.93692  0.53648  0.39271  1.0000
  C   C1538     1.0  0.81839  0.45937  0.30996  1.0000
  C   C1539     1.0  0.88427  0.65912  0.00814  1.0000
  Fe  Fe221     1.0  0.07109  0.69624  0.21866  1.0000
  C   C1540     1.0  0.01053  0.58371  0.99253  1.0000
  C   C1541     1.0  0.76924  0.68820  0.25196  1.0000
  H   H2639     1.0  0.98787  0.54199  0.09359  1.0000
  H   H2640     1.0  0.87972  0.49435  0.31032  1.0000
  N   N109      1.0  0.06627  0.64141  0.09255  1.0000
  C   C1542     1.0  0.71953  0.61507  0.00329  1.0000
  H   H2641     1.0  0.65876  0.50078  0.93822  1.0000
  H   H2642     1.0  0.83785  0.59412  0.94991  1.0000
  C   C1543     1.0  0.03404  0.46498  0.21984  1.0000
  C   C1544     1.0  0.75006  0.69262  0.95237  1.0000
  H   H2643     1.0  0.81724  0.56470  0.03914  1.0000
  H   H2644     1.0  0.92101  0.66980  0.03054  1.0000
  H   H2645     1.0  0.09358  0.52171  0.22798  1.0000
  Fe  Fe222     1.0  0.95530  0.63545  0.05902  1.0000
  H   H2646     1.0  0.97298  0.47306  0.20385  1.0000
  C   C1545     1.0  0.96920  0.67117  0.31499  1.0000
  H   H2647     1.0  0.64779  0.57102  0.13867  1.0000
  S   S435      1.0  0.69529  0.51244  0.98809  1.0000
  C   C1546     1.0  0.08270  0.64402  0.01282  1.0000
  H   H2648     1.0  0.72180  0.65368  0.01707  1.0000
  H   H2649     1.0  0.75492  0.65921  0.00805  1.0000
  H   H2650     1.0  0.92041  0.48481  0.13434  1.0000
  C   C1547     1.0  0.09242  0.65550  0.42871  1.0000
  H   H2651     1.0  0.88844  0.64724  0.99564  1.0000
  S   S436      1.0  0.00749  0.67167  0.36818  1.0000
  C   C1548     1.0  0.89795  0.52316  0.37875  1.0000
  C   C1549     1.0  0.99802  0.69592  0.04723  1.0000
  S   S437      1.0  0.88473  0.53148  0.41504  1.0000
  S   S438      1.0  0.98628  0.49581  0.37314  1.0000
  H   H2652     1.0  0.01535  0.67921  0.01974  1.0000
  C   C1550     1.0  0.73671  0.45587  0.15558  1.0000
  S   S439      1.0  0.03171  0.49842  0.05849  1.0000
  S   S440      1.0  0.01119  0.60194  0.01984  1.0000
  C   C1551     1.0  0.05651  0.61108  0.12253  1.0000
  H   H2653     1.0  0.78568  0.62032  0.38213  1.0000
  H   H2654     1.0  0.94337  0.67885  0.95386  1.0000
  H   H2655     1.0  0.04697  0.55633  0.97534  1.0000
  C   C1552     1.0  0.93682  0.67208  0.38056  1.0000
  H   H2656     1.0  0.87616  0.51544  0.94295  1.0000
  S   S441      1.0  0.92542  0.48651  0.30958  1.0000
  C   C1553     1.0  0.10607  0.46300  0.97248  1.0000
  H   H2657     1.0  0.87322  0.58165  0.23738  1.0000
  C   C1554     1.0  0.94521  0.67172  0.30613  1.0000
  H   H2658     1.0  0.97317  0.57889  0.97341  1.0000
  C   C1555     1.0  0.84727  0.69065  0.39642  1.0000
  S   S442      1.0  0.77820  0.50920  0.32608  1.0000
  Fe  Fe223     1.0  0.03382  0.51110  0.97835  1.0000
  H   H2659     1.0  0.73670  0.68621  0.29225  1.0000
  C   C1556     1.0  0.87822  0.50532  0.12723  1.0000
  C   C1557     1.0  0.01776  0.58369  0.26255  1.0000
  H   H2660     1.0  0.94756  0.66498  0.16309  1.0000
  S   S443      1.0  0.07802  0.48226  0.04820  1.0000
  H   H2661     1.0  0.69533  0.64811  0.96203  1.0000
  C   C1558     1.0  0.65607  0.53200  0.21607  1.0000
  C   C1559     1.0  0.11892  0.68282  0.39874  1.0000
  C   C1560     1.0  0.98927  0.57403  0.97371  1.0000
  H   H2662     1.0  0.10183  0.50333  0.20815  1.0000
  C   C1561     1.0  0.94213  0.49894  0.11336  1.0000
  H   H2663     1.0  0.63771  0.67798  0.23151  1.0000
  S   S444      1.0  0.89872  0.67260  0.32965  1.0000
  C   C1562     1.0  0.63295  0.69107  0.19949  1.0000
  H   H2664     1.0  0.86863  0.47550  0.25738  1.0000
  C   C1563     1.0  0.93129  0.58233  0.26018  1.0000
  H   H2665     1.0  0.66666  0.53829  0.95390  1.0000
  H   H2666     1.0  0.63073  0.66994  0.16282  1.0000
  S   S445      1.0  0.96494  0.66863  0.07322  1.0000
  C   C1564     1.0  0.65222  0.55494  0.98596  1.0000
  C   C1565     1.0  0.92899  0.67215  0.33889  1.0000
  H   H2667     1.0  0.91291  0.62803  0.17400  1.0000
  S   S446      1.0  0.00346  0.60483  0.25168  1.0000
  C   C1566     1.0  0.79130  0.45900  0.31828  1.0000
  H   H2668     1.0  0.93968  0.53154  0.19391  1.0000
  H   H2669     1.0  0.78575  0.65939  0.96863  1.0000
  H   H2670     1.0  0.10257  0.69675  0.06791  1.0000
  S   S447      1.0  0.98429  0.47143  0.30322  1.0000
  H   H2671     1.0  0.73798  0.59764  0.16373  1.0000
  Fe  Fe224     1.0  0.91762  0.57475  0.10042  1.0000
  H   H2672     1.0  0.73384  0.69696  0.93816  1.0000
  C   C1567     1.0  0.69708  0.60063  0.41363  1.0000
  H   H2673     1.0  0.96840  0.63368  0.17685  1.0000
  H   H2674     1.0  0.07466  0.47308  0.29580  1.0000
  S   S448      1.0  0.07586  0.69071  0.29275  1.0000
  H   H2675     1.0  0.78163  0.54710  0.43362  1.0000
  H   H2676     1.0  0.94696  0.62576  0.29960  1.0000
  C   C1568     1.0  0.12297  0.53245  0.09006  1.0000
  H   H2677     1.0  0.78469  0.45505  0.35568  1.0000
  S   S449      1.0  0.87077  0.69902  0.13230  1.0000
  H   H2678     1.0  0.79390  0.67963  0.09648  1.0000
  H   H2679     1.0  0.09651  0.63934  0.43243  1.0000
  H   H2680     1.0  0.82828  0.69552  0.97446  1.0000
  H   H2681     1.0  0.72511  0.45393  0.12881  1.0000
  H   H2682     1.0  0.77834  0.62552  0.42992  1.0000
  C   C1569     1.0  0.76947  0.61312  0.41379  1.0000
  N   N110      1.0  0.72237  0.60991  0.42974  1.0000
  H   H2683     1.0  0.03717  0.67365  0.93856  1.0000
  C   C1570     1.0  0.62601  0.57576  0.94004  1.0000
  H   H2684     1.0  0.92545  0.61174  0.42150  1.0000
  H   H2685     1.0  0.73316  0.45222  0.22598  1.0000
  C   C1571     1.0  0.71892  0.53968  0.43234  1.0000
  H   H2686     1.0  0.00256  0.45264  0.18546  1.0000
  H   H2687     1.0  0.68681  0.69802  0.16922  1.0000
  H   H2688     1.0  0.68037  0.59956  0.43478  1.0000
  H   H2689     1.0  0.88305  0.61193  0.43110  1.0000
  H   H2690     1.0  0.90033  0.45208  0.42011  1.0000
  C   C1572     1.0  0.71143  0.65045  0.93695  1.0000
  H   H2691     1.0  0.64289  0.76164  0.89521  1.0000
  H   H2692     1.0  0.09197  0.89081  0.81834  1.0000
  H   H2693     1.0  0.83787  0.72316  0.87483  1.0000
  H   H2694     1.0  0.00264  0.90979  0.46041  1.0000
  H   H2695     1.0  0.07718  0.93600  0.45080  1.0000
  H   H2696     1.0  0.85747  0.77396  0.91027  1.0000
  C   C1573     1.0  0.10665  0.83623  0.52749  1.0000
  H   H2697     1.0  0.70670  0.76482  0.77504  1.0000
  S   S450      1.0  0.66890  0.70839  0.56343  1.0000
  H   H2698     1.0  0.08105  0.86886  0.76964  1.0000
  S   S451      1.0  0.12371  0.92674  0.51777  1.0000
  C   C1574     1.0  0.89764  0.73758  0.63087  1.0000
  C   C1575     1.0  0.92754  0.91968  0.84791  1.0000
  H   H2699     1.0  0.01426  0.84483  0.57581  1.0000
  H   H2700     1.0  0.71267  0.71153  0.60986  1.0000
  H   H2701     1.0  0.63003  0.77800  0.47400  1.0000
  C   C1576     1.0  0.88191  0.86654  0.82991  1.0000
  H   H2702     1.0  0.81448  0.75304  0.88903  1.0000
  C   C1577     1.0  0.02837  0.85516  0.48147  1.0000
  H   H2703     1.0  0.72240  0.75446  0.47832  1.0000
  H   H2704     1.0  0.08388  0.72031  0.88133  1.0000
  H   H2705     1.0  0.98094  0.92310  0.78852  1.0000
  H   H2706     1.0  0.66906  0.70596  0.78985  1.0000
  S   S452      1.0  0.72482  0.91418  0.74822  1.0000
  S   S453      1.0  0.02529  0.86295  0.76778  1.0000
  H   H2707     1.0  0.78286  0.73293  0.55604  1.0000
  H   H2708     1.0  0.95074  0.72673  0.84976  1.0000
  Fe  Fe225     1.0  0.86088  0.74683  0.77164  1.0000
  H   H2709     1.0  0.95926  0.76365  0.53492  1.0000
  H   H2710     1.0  0.69073  0.80868  0.75644  1.0000
  C   C1578     1.0  0.90775  0.85126  0.63173  1.0000
  H   H2711     1.0  0.87679  0.73022  0.65035  1.0000
  Fe  Fe226     1.0  0.78523  0.87456  0.48869  1.0000
  H   H2712     1.0  0.12035  0.89972  0.87817  1.0000
  H   H2713     1.0  0.09330  0.75358  0.83184  1.0000
  H   H2714     1.0  0.07455  0.93039  0.87762  1.0000
  H   H2715     1.0  0.08877  0.81949  0.83689  1.0000
  C   C1579     1.0  0.69133  0.75325  0.43856  1.0000
  C   C1580     1.0  0.09672  0.95005  0.69234  1.0000
  H   H2716     1.0  0.85395  0.89649  0.70035  1.0000
  S   S454      1.0  0.65980  0.86131  0.74054  1.0000
  C   C1581     1.0  0.77394  0.78670  0.83963  1.0000
  C   C1582     1.0  0.72534  0.91561  0.56840  1.0000
  Fe  Fe227     1.0  0.83015  0.86743  0.86193  1.0000
  C   C1583     1.0  0.62755  0.70809  0.84182  1.0000
  H   H2717     1.0  0.12442  0.83345  0.82708  1.0000
  C   C1584     1.0  0.79931  0.77578  0.49220  1.0000
  H   H2718     1.0  0.88559  0.92764  0.61968  1.0000
  H   H2719     1.0  0.67730  0.75242  0.46502  1.0000
  C   C1585     1.0  0.06416  0.83577  0.70299  1.0000
  S   S455      1.0  0.06076  0.85842  0.60713  1.0000
  H   H2720     1.0  0.04844  0.84462  0.86946  1.0000
  C   C1586     1.0  0.04115  0.89834  0.50499  1.0000
  H   H2721     1.0  0.95250  0.87242  0.88665  1.0000
  C   C1587     1.0  0.04087  0.72716  0.88455  1.0000
  C   C1588     1.0  0.64638  0.92204  0.85928  1.0000
  H   H2722     1.0  0.83579  0.90237  0.65484  1.0000
  H   H2723     1.0  0.05765  0.73972  0.76612  1.0000
  S   S456      1.0  0.97838  0.87198  0.80437  1.0000
  H   H2724     1.0  0.80762  0.88541  0.73064  1.0000
  H   H2725     1.0  0.88069  0.72684  0.43853  1.0000
  C   C1589     1.0  0.74432  0.91015  0.71211  1.0000
  H   H2726     1.0  0.81717  0.80966  0.70895  1.0000
  C   C1590     1.0  0.71434  0.76291  0.61968  1.0000
  C   C1591     1.0  0.73377  0.88779  0.70678  1.0000
  C   C1592     1.0  0.72067  0.74288  0.62532  1.0000
  H   H2727     1.0  0.65652  0.79477  0.54278  1.0000
  H   H2728     1.0  0.68973  0.78201  0.59120  1.0000
  H   H2729     1.0  0.92693  0.91622  0.92039  1.0000
  C   C1593     1.0  0.95082  0.74545  0.71709  1.0000
  H   H2730     1.0  0.91736  0.78699  0.71868  1.0000
  C   C1594     1.0  0.67435  0.87546  0.51867  1.0000
  H   H2731     1.0  0.91400  0.89824  0.85957  1.0000
  H   H2732     1.0  0.85893  0.70617  0.60771  1.0000
  S   S457      1.0  0.87044  0.76327  0.68961  1.0000
  S   S458      1.0  0.03626  0.76241  0.64395  1.0000
  C   C1595     1.0  0.90059  0.86687  0.80012  1.0000
  H   H2733     1.0  0.04060  0.71088  0.50421  1.0000
  C   C1596     1.0  0.04833  0.92451  0.83166  1.0000
  H   H2734     1.0  0.64363  0.93189  0.52038  1.0000
  H   H2735     1.0  0.05320  0.88754  0.51644  1.0000
  C   C1597     1.0  0.75785  0.74719  0.83289  1.0000
  H   H2736     1.0  0.72070  0.80733  0.76951  1.0000
  C   C1598     1.0  0.94473  0.78537  0.67450  1.0000
  H   H2737     1.0  0.73228  0.86735  0.85940  1.0000
  H   H2738     1.0  0.70516  0.78843  0.71719  1.0000
  H   H2739     1.0  0.05923  0.83053  0.84344  1.0000
  S   S459      1.0  0.98023  0.70910  0.53205  1.0000
  C   C1599     1.0  0.70745  0.72662  0.60649  1.0000
  S   S460      1.0  0.03411  0.72222  0.60598  1.0000
  H   H2740     1.0  0.67760  0.93450  0.89309  1.0000
  H   H2741     1.0  0.05532  0.79319  0.93009  1.0000
  H   H2742     1.0  0.86797  0.84266  0.69749  1.0000
  H   H2743     1.0  0.07281  0.92157  0.67266  1.0000
  S   S461      1.0  0.82013  0.70299  0.68092  1.0000
  C   C1600     1.0  0.99626  0.89383  0.50121  1.0000
  H   H2744     1.0  0.82457  0.82371  0.76384  1.0000
  H   H2745     1.0  0.70568  0.91474  0.88292  1.0000
  S   S462      1.0  0.91354  0.80639  0.90376  1.0000
  H   H2746     1.0  0.92875  0.70734  0.60695  1.0000
  H   H2747     1.0  0.64390  0.72996  0.73991  1.0000
  S   S463      1.0  0.81220  0.76122  0.68947  1.0000
  N   N111      1.0  0.63579  0.83172  0.44285  1.0000
  H   H2748     1.0  0.90802  0.88192  0.76017  1.0000
  C   C1601     1.0  0.66504  0.74258  0.73809  1.0000
  C   C1602     1.0  0.77592  0.74661  0.52873  1.0000
  C   C1603     1.0  0.83556  0.81896  0.47545  1.0000
  C   C1604     1.0  0.63178  0.93484  0.54186  1.0000
  Fe  Fe228     1.0  0.74342  0.82704  0.58825  1.0000
  C   C1605     1.0  0.69820  0.89386  0.60890  1.0000
  H   H2749     1.0  0.90602  0.77954  0.59789  1.0000
  C   C1606     1.0  0.77821  0.80353  0.52303  1.0000
  Fe  Fe229     1.0  0.68029  0.89341  0.75763  1.0000
  H   H2750     1.0  0.75979  0.74651  0.54895  1.0000
  C   C1607     1.0  0.05570  0.73298  0.48333  1.0000
  C   C1608     1.0  0.91869  0.74938  0.76068  1.0000
  H   H2751     1.0  0.06465  0.94811  0.52982  1.0000
  S   S464      1.0  0.66021  0.91790  0.71529  1.0000
  H   H2752     1.0  0.96258  0.70292  0.86552  1.0000
  S   S465      1.0  0.77647  0.90490  0.49151  1.0000
  H   H2753     1.0  0.93942  0.83617  0.72336  1.0000
  H   H2754     1.0  0.70549  0.75076  0.87715  1.0000
  H   H2755     1.0  0.66706  0.80750  0.87353  1.0000
  Fe  Fe230     1.0  0.01329  0.86719  0.82958  1.0000
  H   H2756     1.0  0.96525  0.91814  0.90595  1.0000
  C   C1609     1.0  0.08129  0.73184  0.84342  1.0000
  H   H2757     1.0  0.81286  0.75572  0.58508  1.0000
  C   C1610     1.0  0.82122  0.71846  0.52561  1.0000
  H   H2758     1.0  0.89647  0.91047  0.90435  1.0000
  H   H2759     1.0  0.08745  0.94342  0.56656  1.0000
  C   C1611     1.0  0.69474  0.76662  0.59548  1.0000
  H   H2760     1.0  0.12345  0.89087  0.81750  1.0000
  C   C1612     1.0  0.99858  0.86099  0.60686  1.0000
  H   H2761     1.0  0.81951  0.78181  0.89128  1.0000
  H   H2762     1.0  0.96026  0.73392  0.71679  1.0000
  N   N112      1.0  0.83025  0.86100  0.69617  1.0000
  H   H2763     1.0  0.91794  0.72432  0.47156  1.0000
  Fe  Fe231     1.0  0.77501  0.88322  0.57292  1.0000
  H   H2764     1.0  0.76304  0.79025  0.51299  1.0000
  H   H2765     1.0  0.81541  0.82009  0.64621  1.0000
  H   H2766     1.0  0.85669  0.77592  0.59385  1.0000
  S   S466      1.0  0.98508  0.89097  0.66930  1.0000
  C   C1613     1.0  0.77125  0.93049  0.68732  1.0000
  H   H2767     1.0  0.80872  0.80496  0.56217  1.0000
  H   H2768     1.0  0.71337  0.87150  0.72727  1.0000
  Fe  Fe232     1.0  0.99975  0.76111  0.61601  1.0000
  N   N113      1.0  0.89834  0.71703  0.62094  1.0000
  H   H2769     1.0  0.90230  0.71107  0.90932  1.0000
  H   H2770     1.0  0.84637  0.83166  0.49059  1.0000
  H   H2771     1.0  0.65618  0.82462  0.91431  1.0000
  H   H2772     1.0  0.09124  0.72606  0.49228  1.0000
  H   H2773     1.0  0.05520  0.77183  0.83840  1.0000
  C   C1614     1.0  0.95430  0.93455  0.74649  1.0000
  H   H2774     1.0  0.11341  0.89833  0.74066  1.0000
  C   C1615     1.0  0.90981  0.84774  0.82222  1.0000
  C   C1616     1.0  0.91272  0.83602  0.67664  1.0000
  S   S467      1.0  0.76382  0.72636  0.81844  1.0000
  S   S468      1.0  0.73081  0.78286  0.64374  1.0000
  H   H2775     1.0  0.07218  0.86499  0.90949  1.0000
  C   C1617     1.0  0.95469  0.87595  0.65603  1.0000
  C   C1618     1.0  0.10159  0.87715  0.77416  1.0000
  H   H2776     1.0  0.67840  0.71850  0.72477  1.0000
  C   C1619     1.0  0.02314  0.74104  0.79000  1.0000
  H   H2777     1.0  0.73664  0.91479  0.89612  1.0000
  H   H2778     1.0  0.68117  0.88920  0.59240  1.0000
  H   H2779     1.0  0.00826  0.81177  0.66653  1.0000
  C   C1620     1.0  0.04784  0.83370  0.67121  1.0000
  H   H2780     1.0  0.86435  0.72231  0.90522  1.0000
  H   H2781     1.0  0.04258  0.92362  0.62067  1.0000
  H   H2782     1.0  0.11160  0.86591  0.77239  1.0000
  N   N114      1.0  0.08894  0.85151  0.87170  1.0000
  C   C1621     1.0  0.85629  0.82134  0.43887  1.0000
  C   C1622     1.0  0.05490  0.94643  0.59830  1.0000
  H   H2783     1.0  0.81279  0.77385  0.47005  1.0000
  H   H2784     1.0  0.11092  0.72286  0.82194  1.0000
  C   C1623     1.0  0.03658  0.93636  0.79511  1.0000
  H   H2785     1.0  0.05012  0.86968  0.47040  1.0000
  H   H2786     1.0  0.85957  0.75177  0.87703  1.0000
  H   H2787     1.0  0.91004  0.74001  0.65652  1.0000
  H   H2788     1.0  0.10169  0.80168  0.88334  1.0000
  H   H2789     1.0  0.82374  0.71335  0.56255  1.0000
  H   H2790     1.0  0.92780  0.87316  0.92201  1.0000
  H   H2791     1.0  0.68608  0.73158  0.45538  1.0000
  H   H2792     1.0  0.62855  0.81764  0.62644  1.0000
  H   H2793     1.0  0.95973  0.86565  0.49397  1.0000
  H   H2794     1.0  0.71217  0.93746  0.79913  1.0000
  H   H2795     1.0  0.67060  0.81091  0.47822  1.0000
  H   H2796     1.0  0.69220  0.94090  0.59854  1.0000
  C   C1624     1.0  0.63571  0.81555  0.49674  1.0000
  C   C1625     1.0  0.62883  0.92893  0.83195  1.0000
  H   H2797     1.0  0.63294  0.73402  0.52227  1.0000
  C   C1626     1.0  0.78719  0.92914  0.65556  1.0000
  H   H2798     1.0  0.10903  0.93958  0.70519  1.0000
  C   C1627     1.0  0.74983  0.88629  0.67533  1.0000
  C   C1628     1.0  0.08404  0.94429  0.65402  1.0000
  H   H2799     1.0  0.88515  0.73219  0.55279  1.0000
  Fe  Fe233     1.0  0.62753  0.83996  0.81052  1.0000
  C   C1629     1.0  0.91868  0.92357  0.88825  1.0000
  S   S469      1.0  0.98841  0.82211  0.88591  1.0000
  H   H2800     1.0  0.00784  0.94872  0.69092  1.0000
  H   H2801     1.0  0.63310  0.82496  0.51672  1.0000
  H   H2802     1.0  0.95809  0.92718  0.72316  1.0000
  H   H2803     1.0  0.62728  0.75263  0.76132  1.0000
  C   C1630     1.0  0.87979  0.71295  0.58885  1.0000
  H   H2804     1.0  0.08242  0.71349  0.79933  1.0000
  H   H2805     1.0  0.71296  0.93690  0.64094  1.0000
  Fe  Fe234     1.0  0.99860  0.72475  0.57951  1.0000
  H   H2806     1.0  0.68931  0.79420  0.88732  1.0000
  C   C1631     1.0  0.96579  0.91246  0.87819  1.0000
  C   C1632     1.0  0.65847  0.88814  0.50129  1.0000
  H   H2807     1.0  0.94890  0.80450  0.64122  1.0000
  C   C1633     1.0  0.06604  0.93980  0.84826  1.0000
  S   S470      1.0  0.86906  0.88928  0.80399  1.0000
  C   C1634     1.0  0.72368  0.92416  0.89378  1.0000
  C   C1635     1.0  0.66158  0.81340  0.50542  1.0000
  C   C1636     1.0  0.06042  0.83392  0.87446  1.0000
  H   H2808     1.0  0.88569  0.89640  0.63821  1.0000
  H   H2809     1.0  0.03107  0.92255  0.69386  1.0000
  C   C1637     1.0  0.96010  0.91962  0.79724  1.0000
  H   H2810     1.0  0.98964  0.85256  0.48760  1.0000
  H   H2811     1.0  0.98732  0.91840  0.86578  1.0000
  H   H2812     1.0  0.74956  0.93090  0.81325  1.0000
  H   H2813     1.0  0.93289  0.92967  0.75112  1.0000
  H   H2814     1.0  0.72739  0.90747  0.54539  1.0000
  H   H2815     1.0  0.76694  0.73770  0.50676  1.0000
  N   N115      1.0  0.95677  0.92752  0.83371  1.0000
  H   H2816     1.0  0.02266  0.92437  0.78285  1.0000
  H   H2817     1.0  0.10127  0.88929  0.44565  1.0000
  H   H2818     1.0  0.74116  0.91552  0.58836  1.0000
  H   H2819     1.0  0.92178  0.93179  0.81479  1.0000
  H   H2820     1.0  0.92236  0.89119  0.56424  1.0000
  C   C1638     1.0  0.77635  0.90737  0.64860  1.0000
  H   H2821     1.0  0.74964  0.95030  0.46822  1.0000
  C   C1639     1.0  0.66449  0.94007  0.87096  1.0000
  H   H2822     1.0  0.96415  0.91289  0.58510  1.0000
  C   C1640     1.0  0.70577  0.82541  0.92149  1.0000
  C   C1641     1.0  0.87303  0.90646  0.62884  1.0000
  N   N116      1.0  0.81489  0.79029  0.51640  1.0000
  S   S471      1.0  0.79654  0.90830  0.60457  1.0000
  H   H2823     1.0  0.04236  0.71342  0.92187  1.0000
  H   H2824     1.0  0.69404  0.89938  0.63492  1.0000
  S   S472      1.0  0.79368  0.87217  0.84715  1.0000
  H   H2825     1.0  0.04221  0.90635  0.52947  1.0000
  H   H2826     1.0  0.94658  0.89744  0.81395  1.0000
  C   C1642     1.0  0.94975  0.89145  0.61088  1.0000
  H   H2827     1.0  0.69885  0.86084  0.87732  1.0000
  S   S473      1.0  0.63704  0.89594  0.62375  1.0000
  C   C1643     1.0  0.84754  0.89160  0.67181  1.0000
  H   H2828     1.0  0.86750  0.90827  0.59423  1.0000
  S   S474      1.0  0.04316  0.89145  0.85487  1.0000
  C   C1644     1.0  0.94956  0.88090  0.90827  1.0000
  Fe  Fe235     1.0  0.10175  0.88973  0.59503  1.0000
  Fe  Fe236     1.0  0.98786  0.86400  0.74667  1.0000
  C   C1645     1.0  0.92619  0.87915  0.59891  1.0000
  H   H2829     1.0  0.02480  0.79382  0.92016  1.0000
  C   C1646     1.0  0.96541  0.87593  0.51478  1.0000
  H   H2830     1.0  0.06550  0.76525  0.77936  1.0000
  H   H2831     1.0  0.85989  0.75533  0.48621  1.0000
  H   H2832     1.0  0.71654  0.91877  0.93230  1.0000
  Fe  Fe237     1.0  0.63774  0.88431  0.70237  1.0000
  H   H2833     1.0  0.69870  0.87434  0.63207  1.0000
  H   H2834     1.0  0.74161  0.86900  0.67135  1.0000
  Fe  Fe238     1.0  0.73299  0.87347  0.51691  1.0000
  H   H2835     1.0  0.00016  0.90526  0.52014  1.0000
  C   C1647     1.0  0.02543  0.80018  0.77480  1.0000
  C   C1648     1.0  0.66375  0.85027  0.56452  1.0000
  S   S475      1.0  0.78745  0.85538  0.56806  1.0000
  H   H2836     1.0  0.68962  0.78292  0.81768  1.0000
  N   N117      1.0  0.01239  0.87890  0.51280  1.0000
  C   C1649     1.0  0.87312  0.84768  0.88186  1.0000
  S   S476      1.0  0.80765  0.82181  0.90016  1.0000
  H   H2837     1.0  0.83612  0.76684  0.53187  1.0000
  C   C1650     1.0  0.79775  0.86276  0.75094  1.0000
  C   C1651     1.0  0.93593  0.84831  0.68884  1.0000
  C   C1652     1.0  0.01064  0.86848  0.47876  1.0000
  H   H2838     1.0  0.98852  0.84149  0.64429  1.0000
  C   C1653     1.0  0.80159  0.85297  0.71691  1.0000
  H   H2839     1.0  0.78340  0.77145  0.58311  1.0000
  H   H2840     1.0  0.01839  0.87372  0.60903  1.0000
  S   S477      1.0  0.64968  0.87031  0.83102  1.0000
  H   H2841     1.0  0.86924  0.80655  0.53296  1.0000
  H   H2842     1.0  0.88395  0.86724  0.71475  1.0000
  C   C1654     1.0  0.72005  0.76820  0.44194  1.0000
  C   C1655     1.0  0.74740  0.77997  0.85667  1.0000
  H   H2843     1.0  0.82305  0.86576  0.62640  1.0000
  C   C1656     1.0  0.79352  0.70919  0.47330  1.0000
  H   H2844     1.0  0.67704  0.83163  0.50410  1.0000
  H   H2845     1.0  0.64567  0.90266  0.87209  1.0000
  C   C1657     1.0  0.86673  0.84720  0.72639  1.0000
  S   S478      1.0  0.73087  0.85351  0.59902  1.0000
  C   C1658     1.0  0.05294  0.81889  0.75489  1.0000
  H   H2846     1.0  0.85982  0.84825  0.90539  1.0000
  H   H2847     1.0  0.85029  0.85966  0.63904  1.0000
  H   H2848     1.0  0.79235  0.86065  0.68603  1.0000
  C   C1659     1.0  0.93145  0.73473  0.76067  1.0000
  H   H2849     1.0  0.67455  0.75913  0.69756  1.0000
  C   C1660     1.0  0.08704  0.85756  0.91177  1.0000
  H   H2850     1.0  0.01562  0.88514  0.43895  1.0000
  H   H2851     1.0  0.10105  0.82251  0.92293  1.0000
  H   H2852     1.0  0.80503  0.85456  0.78439  1.0000
  S   S479      1.0  0.97788  0.78361  0.61534  1.0000
  S   S480      1.0  0.01033  0.78664  0.83665  1.0000
  H   H2853     1.0  0.70645  0.84819  0.84159  1.0000
  C   C1661     1.0  0.82987  0.85369  0.65757  1.0000
  H   H2854     1.0  0.64943  0.78471  0.67570  1.0000
  C   C1662     1.0  0.00141  0.85477  0.56638  1.0000
  C   C1663     1.0  0.10601  0.83757  0.88197  1.0000
  C   C1664     1.0  0.67156  0.79297  0.90551  1.0000
  H   H2855     1.0  0.98596  0.87086  0.60127  1.0000
  H   H2856     1.0  0.95628  0.86042  0.55565  1.0000
  N   N118      1.0  0.05223  0.72445  0.84533  1.0000
  C   C1665     1.0  0.90070  0.82875  0.87417  1.0000
  C   C1666     1.0  0.63675  0.83706  0.59137  1.0000
  H   H2857     1.0  0.72051  0.81971  0.91377  1.0000
  S   S481      1.0  0.74170  0.84430  0.50833  1.0000
  C   C1667     1.0  0.79667  0.79193  0.54848  1.0000
  H   H2858     1.0  0.67601  0.84052  0.57839  1.0000
  C   C1668     1.0  0.83967  0.84566  0.73937  1.0000
  C   C1669     1.0  0.63161  0.87499  0.52835  1.0000
  S   S482      1.0  0.87796  0.83507  0.61850  1.0000
  H   H2859     1.0  0.92381  0.84757  0.79903  1.0000
  C   C1670     1.0  0.09592  0.72915  0.80628  1.0000
  H   H2860     1.0  0.08513  0.85121  0.68759  1.0000
  H   H2861     1.0  0.77587  0.85499  0.76457  1.0000
  H   H2862     1.0  0.79023  0.81655  0.68713  1.0000
  H   H2863     1.0  0.68668  0.93056  0.54375  1.0000
  H   H2864     1.0  0.84176  0.85313  0.76496  1.0000
  C   C1671     1.0  0.88208  0.82849  0.90379  1.0000
  Fe  Fe239     1.0  0.77100  0.82627  0.89079  1.0000
  C   C1672     1.0  0.10185  0.87842  0.82142  1.0000
  S   S483      1.0  0.11595  0.91278  0.63263  1.0000
  C   C1673     1.0  0.11603  0.82338  0.51199  1.0000
  H   H2865     1.0  0.78862  0.83033  0.73944  1.0000
  C   C1674     1.0  0.00932  0.79712  0.74320  1.0000
  H   H2866     1.0  0.86848  0.83083  0.75979  1.0000
  N   N119      1.0  0.66590  0.75466  0.76900  1.0000
  C   C1675     1.0  0.64785  0.76395  0.92689  1.0000
  H   H2867     1.0  0.02287  0.83667  0.51930  1.0000
  S   S484      1.0  0.96204  0.81838  0.79673  1.0000
  C   C1676     1.0  0.71068  0.85173  0.87222  1.0000
  H   H2868     1.0  0.98152  0.83855  0.57177  1.0000
  H   H2869     1.0  0.66512  0.75207  0.56102  1.0000
  Fe  Fe240     1.0  0.80551  0.74494  0.77179  1.0000
  H   H2870     1.0  0.64833  0.80531  0.69890  1.0000
  C   C1677     1.0  0.72607  0.75637  0.86309  1.0000
  Fe  Fe241     1.0  0.95452  0.82638  0.85511  1.0000
  C   C1678     1.0  0.81201  0.82315  0.67689  1.0000
  H   H2871     1.0  0.02458  0.75523  0.75032  1.0000
  Fe  Fe242     1.0  0.62746  0.89153  0.78729  1.0000
  H   H2872     1.0  0.89860  0.81464  0.70220  1.0000
  C   C1679     1.0  0.02073  0.81361  0.69119  1.0000
  Fe  Fe243     1.0  0.99814  0.81785  0.82330  1.0000
  H   H2873     1.0  0.08579  0.82589  0.54823  1.0000
  Fe  Fe244     1.0  0.01542  0.71738  0.67476  1.0000
  C   C1680     1.0  0.64811  0.76779  0.75558  1.0000
  H   H2874     1.0  0.79039  0.80485  0.83459  1.0000
  S   S485      1.0  0.74002  0.80125  0.86763  1.0000
  H   H2875     1.0  0.06519  0.82160  0.77923  1.0000
  C   C1681     1.0  0.69875  0.79445  0.77676  1.0000
  H   H2876     1.0  0.89643  0.76790  0.55708  1.0000
  H   H2877     1.0  0.84484  0.79978  0.58154  1.0000
  H   H2878     1.0  0.01597  0.74711  0.81255  1.0000
  H   H2879     1.0  0.67875  0.80569  0.68523  1.0000
  C   C1682     1.0  0.73129  0.73989  0.85155  1.0000
  H   H2880     1.0  0.98787  0.78304  0.75863  1.0000
  H   H2881     1.0  0.79965  0.77591  0.81335  1.0000
  S   S486      1.0  0.70657  0.89098  0.48005  1.0000
  H   H2882     1.0  0.73603  0.74026  0.64361  1.0000
  C   C1683     1.0  0.95804  0.71433  0.87888  1.0000
  H   H2883     1.0  0.04258  0.75587  0.90404  1.0000
  C   C1684     1.0  0.82798  0.77459  0.54961  1.0000
  C   C1685     1.0  0.69473  0.77530  0.75807  1.0000
  H   H2884     1.0  0.00799  0.72015  0.80117  1.0000
  Fe  Fe245     1.0  0.85399  0.79076  0.68209  1.0000
  C   C1686     1.0  0.90811  0.76694  0.58497  1.0000
  S   S487      1.0  0.01821  0.77021  0.54200  1.0000
  C   C1687     1.0  0.85096  0.79040  0.56507  1.0000
  S   S488      1.0  0.84636  0.77607  0.76415  1.0000
  C   C1688     1.0  0.81535  0.76023  0.91473  1.0000
  H   H2885     1.0  0.94051  0.76290  0.90742  1.0000
  H   H2886     1.0  0.91846  0.75906  0.86939  1.0000
  C   C1689     1.0  0.77916  0.77049  0.82715  1.0000
  S   S489      1.0  0.09500  0.79069  0.52447  1.0000
  C   C1690     1.0  0.95692  0.77053  0.67339  1.0000
  Fe  Fe246     1.0  0.05265  0.76731  0.57297  1.0000
  H   H2887     1.0  0.64516  0.77422  0.78128  1.0000
  H   H2888     1.0  0.07500  0.76180  0.88090  1.0000
  C   C1691     1.0  0.65673  0.79207  0.70065  1.0000
  H   H2889     1.0  0.11688  0.87273  0.52709  1.0000
  C   C1692     1.0  0.10492  0.82248  0.85543  1.0000
  C   C1693     1.0  0.67915  0.72491  0.75176  1.0000
  C   C1694     1.0  0.92637  0.77518  0.71828  1.0000
  H   H2890     1.0  0.92993  0.77691  0.56735  1.0000
  H   H2891     1.0  0.02518  0.84825  0.45505  1.0000
  C   C1695     1.0  0.93947  0.74672  0.54158  1.0000
  H   H2892     1.0  0.02452  0.75050  0.43608  1.0000
  H   H2893     1.0  0.94395  0.73720  0.52340  1.0000
  C   C1696     1.0  0.84894  0.72911  0.89907  1.0000
  H   H2894     1.0  0.92754  0.75632  0.52165  1.0000
  C   C1697     1.0  0.04489  0.80534  0.92339  1.0000
  C   C1698     1.0  0.65571  0.73285  0.82440  1.0000
  H   H2895     1.0  0.78961  0.82465  0.48968  1.0000
  H   H2896     1.0  0.12207  0.94801  0.89638  1.0000
  H   H2897     1.0  0.04659  0.74166  0.49713  1.0000
  C   C1699     1.0  0.68086  0.74970  0.57837  1.0000
  C   C1700     1.0  0.04259  0.94536  0.67298  1.0000
  S   S490      1.0  0.89067  0.73512  0.80953  1.0000
  C   C1701     1.0  0.05446  0.75598  0.87570  1.0000
  Fe  Fe247     1.0  0.82848  0.73250  0.70480  1.0000
  H   H2898     1.0  0.92559  0.71469  0.79342  1.0000
  C   C1702     1.0  0.05107  0.74343  0.79392  1.0000
  S   S491      1.0  0.81928  0.71456  0.78757  1.0000
  C   C1703     1.0  0.11349  0.87877  0.91137  1.0000
  C   C1704     1.0  0.84168  0.74215  0.48249  1.0000
  H   H2899     1.0  0.94048  0.73412  0.61771  1.0000
  H   H2900     1.0  0.71472  0.72159  0.85674  1.0000
  C   C1705     1.0  0.93166  0.75127  0.88969  1.0000
  H   H2901     1.0  0.65460  0.74159  0.84677  1.0000
  H   H2902     1.0  0.95596  0.88929  0.50415  1.0000
  H   H2903     1.0  0.07528  0.72402  0.54364  1.0000
  H   H2904     1.0  0.66995  0.72468  0.83707  1.0000
  H   H2905     1.0  0.94793  0.75635  0.86110  1.0000
  H   H2906     1.0  0.76689  0.80471  0.54979  1.0000
  C   C1706     1.0  0.08116  0.73529  0.50204  1.0000
  H   H2907     1.0  0.70071  0.73652  0.74870  1.0000
  H   H2908     1.0  0.09591  0.75679  0.48833  1.0000
  C   C1707     1.0  0.92692  0.72554  0.59885  1.0000
  S   S492      1.0  0.97786  0.71562  0.65137  1.0000
  H   H2909     1.0  0.76037  0.71488  0.64732  1.0000
  H   H2910     1.0  0.01891  0.72016  0.88956  1.0000
  H   H2911     1.0  0.10665  0.74909  0.76959  1.0000
  C   C1708     1.0  0.68718  0.72966  0.58397  1.0000
  C   C1709     1.0  0.91447  0.72026  0.92890  1.0000
  H   H2912     1.0  0.97725  0.72755  0.88167  1.0000
  C   C1710     1.0  0.79665  0.70269  0.52094  1.0000
  H   H2913     1.0  0.66665  0.90771  0.46593  1.0000
  C   C1711     1.0  0.12435  0.86259  0.51611  1.0000
  H   H2914     1.0  0.65712  0.86896  0.44205  1.0000
  H   H2915     1.0  0.07071  0.78670  0.44959  1.0000
  H   H2916     1.0  0.85551  0.70262  0.74348  1.0000
  H   H2917     1.0  0.76748  0.70238  0.92066  1.0000
  C   C1712     1.0  0.70599  0.94393  0.51410  1.0000
  H   H2918     1.0  0.77894  0.94072  0.52608  1.0000
  Fe  Fe248     1.0  0.78817  0.86761  0.92186  1.0000
  N   N120      1.0  0.72974  0.94440  0.53516  1.0000
  H   H2919     1.0  0.08162  0.94178  0.72655  1.0000
  H   H2920     1.0  0.86065  0.80405  0.45617  1.0000
  H   H2921     1.0  0.12363  0.79907  0.75064  1.0000
  H   H2922     1.0  0.70350  0.93462  0.49147  1.0000
  H   H2923     1.0  0.80780  0.94530  0.63554  1.0000
  H   H2924     1.0  0.72343  0.78672  0.44146  1.0000
  S   S493      1.0  0.77932  0.89768  0.92646  1.0000
  C   C1713     1.0  0.05643  0.92352  0.45107  1.0000
  H   H2925     1.0  0.96812  0.74123  0.92819  1.0000
  H   H2926     1.0  0.82552  0.83001  0.45154  1.0000
  H   H2927     1.0  0.79577  0.94406  0.81048  1.0000
  H   H2928     1.0  0.01053  0.94838  0.63548  1.0000
  H   H2929     1.0  0.92383  0.94519  0.87250  1.0000
  H   H2930     1.0  0.77966  0.94763  0.69181  1.0000
  S   S494      1.0  0.82654  0.86612  0.93368  1.0000
  H   H2931     1.0  0.79118  0.78793  0.46418  1.0000
  H   H2932     1.0  0.04925  0.94956  0.70154  1.0000
  H   H2933     1.0  0.04706  0.93693  0.43764  1.0000
  H   H2934     1.0  0.65077  0.70754  0.44008  1.0000
  C   C1714     1.0  0.71243  0.95078  0.60264  1.0000
  C   C1715     1.0  0.04374  0.93313  0.31057  1.0000
  H   H2935     1.0  0.00194  0.85027  0.35413  1.0000
  S   S495      1.0  0.65314  0.79785  0.13424  1.0000
  H   H2936     1.0  0.05786  0.90716  0.27434  1.0000
  H   H2937     1.0  0.81175  0.73693  0.39375  1.0000
  Fe  Fe249     1.0  0.83457  0.79248  0.32779  1.0000
  H   H2938     1.0  0.06408  0.75447  0.33523  1.0000
  C   C1716     1.0  0.81206  0.70513  0.27001  1.0000
  H   H2939     1.0  0.00851  0.90684  0.19941  1.0000
  C   C1717     1.0  0.02315  0.74151  0.18562  1.0000
  C   C1718     1.0  0.71095  0.73107  0.25901  1.0000
  H   H2940     1.0  0.64528  0.82646  0.98626  1.0000
  S   S496      1.0  0.02657  0.79419  0.29882  1.0000
  C   C1719     1.0  0.05332  0.80457  0.10778  1.0000
  H   H2941     1.0  0.98797  0.87384  0.29002  1.0000
  H   H2942     1.0  0.92313  0.89196  0.10321  1.0000
  C   C1720     1.0  0.00614  0.80932  0.27723  1.0000
  S   S497      1.0  0.10058  0.92377  0.15218  1.0000
  H   H2943     1.0  0.09052  0.89091  0.00429  1.0000
  H   H2944     1.0  0.99033  0.73017  0.26556  1.0000
  C   C1721     1.0  0.82898  0.71558  0.94965  1.0000
  H   H2945     1.0  0.69538  0.72301  0.40145  1.0000
  H   H2946     1.0  0.02691  0.91750  0.34531  1.0000
  C   C1722     1.0  0.98059  0.82356  0.08161  1.0000
  H   H2947     1.0  0.06052  0.92842  0.31245  1.0000
  H   H2948     1.0  0.02370  0.76077  0.10402  1.0000
  H   H2949     1.0  0.75668  0.70248  0.97377  1.0000
  C   C1723     1.0  0.77971  0.86717  0.38801  1.0000
  H   H2950     1.0  0.08497  0.78482  0.35810  1.0000
  H   H2951     1.0  0.03263  0.75760  0.03444  1.0000
  C   C1724     1.0  0.98704  0.92361  0.21573  1.0000
  Fe  Fe250     1.0  0.98013  0.88754  0.13545  1.0000
  S   S498      1.0  0.93996  0.92603  0.99462  1.0000
  C   C1725     1.0  0.00853  0.75074  0.24487  1.0000
  H   H2952     1.0  0.67760  0.90143  0.35062  1.0000
  H   H2953     1.0  0.68333  0.74364  0.02130  1.0000
  C   C1726     1.0  0.78394  0.75600  0.05186  1.0000
  S   S499      1.0  0.66150  0.78556  0.24477  1.0000
  C   C1727     1.0  0.77362  0.88474  0.15604  1.0000
  C   C1728     1.0  0.74467  0.89854  0.03662  1.0000
  H   H2954     1.0  0.76661  0.76958  0.99033  1.0000
  C   C1729     1.0  0.74911  0.70293  0.07531  1.0000
  H   H2955     1.0  0.03877  0.80803  0.08601  1.0000
  H   H2956     1.0  0.90508  0.70426  0.37199  1.0000
  C   C1730     1.0  0.07513  0.79415  0.40932  1.0000
  C   C1731     1.0  0.01314  0.92167  0.21083  1.0000
  H   H2957     1.0  0.02232  0.86566  0.27158  1.0000
  S   S500      1.0  0.02394  0.90535  0.10021  1.0000
  H   H2958     1.0  0.08840  0.73310  0.41892  1.0000
  S   S501      1.0  0.63361  0.82346  0.18649  1.0000
  H   H2959     1.0  0.76492  0.74587  0.22481  1.0000
  C   C1732     1.0  0.88023  0.86643  0.12285  1.0000
  C   C1733     1.0  0.09506  0.91385  0.04035  1.0000
  H   H2960     1.0  0.06182  0.92809  0.21037  1.0000
  Fe  Fe251     1.0  0.79099  0.80935  0.30486  1.0000
  H   H2961     1.0  0.97810  0.83019  0.10601  1.0000
  H   H2962     1.0  0.89031  0.86706  0.98205  1.0000
  H   H2963     1.0  0.09223  0.90938  0.39132  1.0000
  H   H2964     1.0  0.63763  0.88047  0.10850  1.0000
  H   H2965     1.0  0.69067  0.72820  0.27028  1.0000
  S   S502      1.0  0.96151  0.85816  0.21860  1.0000
  H   H2966     1.0  0.84110  0.91736  0.03706  1.0000
  C   C1734     1.0  0.03394  0.93726  0.26353  1.0000
  C   C1735     1.0  0.04657  0.90942  0.24581  1.0000
  H   H2967     1.0  0.68208  0.78566  0.01800  1.0000
  C   C1736     1.0  0.95420  0.72217  0.96420  1.0000
  C   C1737     1.0  0.04577  0.71744  0.00798  1.0000
  H   H2968     1.0  0.65647  0.72032  0.37346  1.0000
  C   C1738     1.0  0.90389  0.81407  0.15649  1.0000
  H   H2969     1.0  0.78175  0.88779  0.22097  1.0000
  H   H2970     1.0  0.77203  0.74137  0.17481  1.0000
  C   C1739     1.0  0.64052  0.82011  0.41408  1.0000
  C   C1740     1.0  0.82157  0.86783  0.36895  1.0000
  H   H2971     1.0  0.96940  0.90328  0.24279  1.0000
  C   C1741     1.0  0.89665  0.83831  0.04811  1.0000
  C   C1742     1.0  0.64752  0.72064  0.40436  1.0000
  H   H2972     1.0  0.87883  0.74822  0.95028  1.0000
  H   H2973     1.0  0.79547  0.74843  0.94236  1.0000
  H   H2974     1.0  0.02901  0.94166  0.17802  1.0000
  H   H2975     1.0  0.85882  0.76006  0.18424  1.0000
  C   C1743     1.0  0.82963  0.89230  0.19201  1.0000
  H   H2976     1.0  0.88717  0.91015  0.98059  1.0000
  H   H2977     1.0  0.96882  0.72028  0.19615  1.0000
  H   H2978     1.0  0.87276  0.76907  0.99677  1.0000
  C   C1744     1.0  0.85789  0.85985  0.10434  1.0000
  N   N121      1.0  0.88772  0.80842  0.08501  1.0000
  C   C1745     1.0  0.01147  0.71549  0.43022  1.0000
  C   C1746     1.0  0.86023  0.87606  0.05332  1.0000
  H   H2979     1.0  0.80766  0.92575  0.06506  1.0000
  H   H2980     1.0  0.99594  0.86631  0.38233  1.0000
  H   H2981     1.0  0.08870  0.90818  0.07944  1.0000
  H   H2982     1.0  0.82776  0.91044  0.18287  1.0000
  H   H2983     1.0  0.82348  0.93039  0.10901  1.0000
  N   N122      1.0  0.02338  0.91342  0.25697  1.0000
  S   S503      1.0  0.81864  0.88570  0.43005  1.0000
  H   H2984     1.0  0.84287  0.87095  0.03905  1.0000
  H   H2985     1.0  0.75619  0.89554  0.19827  1.0000
  H   H2986     1.0  0.64527  0.87275  0.25334  1.0000
  S   S504      1.0  0.98058  0.92781  0.09029  1.0000
  C   C1747     1.0  0.90814  0.90319  0.03785  1.0000
  C   C1748     1.0  0.81794  0.91737  0.09351  1.0000
  H   H2987     1.0  0.74617  0.91398  0.04350  1.0000
  Fe  Fe252     1.0  0.64023  0.76103  0.21274  1.0000
  H   H2988     1.0  0.76399  0.78192  0.11696  1.0000
  H   H2989     1.0  0.85485  0.91331  0.08991  1.0000
  C   C1749     1.0  0.88528  0.89811  0.02020  1.0000
  C   C1750     1.0  0.65933  0.88138  0.36522  1.0000
  C   C1751     1.0  0.77625  0.89819  0.18606  1.0000
  H   H2990     1.0  0.79031  0.92052  0.16358  1.0000
  H   H2991     1.0  0.65306  0.76043  0.35500  1.0000
  H   H2992     1.0  0.08857  0.90014  0.33220  1.0000
  C   C1752     1.0  0.74131  0.85874  0.01881  1.0000
  H   H2993     1.0  0.84204  0.87311  0.37136  1.0000
  C   C1753     1.0  0.00047  0.88793  0.30150  1.0000
  C   C1754     1.0  0.84452  0.92346  0.06464  1.0000
  C   C1755     1.0  0.77014  0.84221  0.13755  1.0000
  C   C1756     1.0  0.76009  0.90637  0.99153  1.0000
  C   C1757     1.0  0.10968  0.91002  0.31078  1.0000
  C   C1758     1.0  0.76889  0.85472  0.36176  1.0000
  H   H2994     1.0  0.72193  0.71039  0.23122  1.0000
  Fe  Fe253     1.0  0.96956  0.91640  0.03455  1.0000
  H   H2995     1.0  0.98245  0.93088  0.17893  1.0000
  H   H2996     1.0  0.66214  0.82595  0.40389  1.0000
  H   H2997     1.0  0.85114  0.89877  0.17857  1.0000
  S   S505      1.0  0.01195  0.93504  0.99186  1.0000
  H   H2998     1.0  0.88447  0.79941  0.18620  1.0000
  N   N123      1.0  0.79908  0.88758  0.13296  1.0000
  H   H2999     1.0  0.88546  0.77359  0.08543  1.0000
  Fe  Fe254     1.0  0.78404  0.75549  0.31920  1.0000
  H   H3000     1.0  0.05668  0.88127  0.24084  1.0000
  H   H3001     1.0  0.07548  0.86307  0.41746  1.0000
  H   H3002     1.0  0.76405  0.89324  0.12637  1.0000
  H   H3003     1.0  0.76790  0.87228  0.40446  1.0000
  C   C1759     1.0  0.90553  0.88791  0.08937  1.0000
  C   C1760     1.0  0.80588  0.87330  0.39235  1.0000
  H   H3004     1.0  0.74006  0.84340  0.01196  1.0000
  C   C1761     1.0  0.00786  0.87060  0.34829  1.0000
  H   H3005     1.0  0.82435  0.87943  0.23361  1.0000
  Fe  Fe255     1.0  0.00886  0.89418  0.04548  1.0000
  Fe  Fe256     1.0  0.10658  0.88715  0.18997  1.0000
  H   H3006     1.0  0.67819  0.86152  0.41719  1.0000
  C   C1762     1.0  0.00292  0.71824  0.05073  1.0000
  S   S506      1.0  0.96520  0.87451  0.08290  1.0000
  H   H3007     1.0  0.02928  0.88005  0.34754  1.0000
  S   S507      1.0  0.71001  0.86170  0.13032  1.0000
  H   H3008     1.0  0.98658  0.89329  0.31398  1.0000
  C   C1763     1.0  0.03921  0.88490  0.24045  1.0000
  C   C1764     1.0  0.08283  0.85451  0.40099  1.0000
  S   S508      1.0  0.02540  0.87493  0.01951  1.0000
  H   H3009     1.0  0.63670  0.79138  0.96755  1.0000
  H   H3010     1.0  0.75859  0.86283  0.18304  1.0000
  H   H3011     1.0  0.82456  0.86911  0.15877  1.0000
  H   H3012     1.0  0.78433  0.88307  0.07349  1.0000
  H   H3013     1.0  0.03482  0.88904  0.20411  1.0000
  C   C1765     1.0  0.81164  0.87479  0.17279  1.0000
  C   C1766     1.0  0.79161  0.87276  0.10590  1.0000
  C   C1767     1.0  0.65818  0.86074  0.41886  1.0000
  C   C1768     1.0  0.88063  0.84458  0.00899  1.0000
  C   C1769     1.0  0.04137  0.78929  0.16476  1.0000
  H   H3014     1.0  0.10850  0.90322  0.28422  1.0000
  H   H3015     1.0  0.02201  0.82520  0.19970  1.0000
  C   C1770     1.0  0.99338  0.83768  0.20825  1.0000
  C   C1771     1.0  0.88893  0.79470  0.05822  1.0000
  C   C1772     1.0  0.72736  0.87081  0.07276  1.0000
  C   C1773     1.0  0.02206  0.74195  0.13661  1.0000
  C   C1774     1.0  0.83755  0.74982  0.43490  1.0000
  H   H3016     1.0  0.98615  0.79587  0.35095  1.0000
  C   C1775     1.0  0.81428  0.73222  0.43043  1.0000
  C   C1776     1.0  0.10881  0.90893  0.40884  1.0000
  C   C1777     1.0  0.81040  0.85436  0.34451  1.0000
  H   H3017     1.0  0.01976  0.73710  0.31455  1.0000
  H   H3018     1.0  0.87834  0.85398  0.16242  1.0000
  H   H3019     1.0  0.80953  0.87335  0.08963  1.0000
  H   H3020     1.0  0.82221  0.84919  0.32827  1.0000
  H   H3021     1.0  0.66766  0.80421  0.31988  1.0000
  C   C1778     1.0  0.08910  0.88750  0.04224  1.0000
  N   N124      1.0  0.05978  0.74591  0.42747  1.0000
  H   H3022     1.0  0.79576  0.85511  0.20597  1.0000
  H   H3023     1.0  0.06214  0.79417  0.09879  1.0000
  H   H3024     1.0  0.91385  0.82191  0.97991  1.0000
  S   S509      1.0  0.76951  0.83068  0.31117  1.0000
  S   S510      1.0  0.09181  0.85694  0.27305  1.0000
  H   H3025     1.0  0.71241  0.82957  0.09188  1.0000
  H   H3026     1.0  0.94335  0.71376  0.03972  1.0000
  H   H3027     1.0  0.76921  0.83323  0.11482  1.0000
  H   H3028     1.0  0.05830  0.79679  0.39448  1.0000
  H   H3029     1.0  0.07703  0.83326  0.43203  1.0000
  C   C1779     1.0  0.97672  0.83740  0.24163  1.0000
  H   H3030     1.0  0.92767  0.81935  0.09574  1.0000
  H   H3031     1.0  0.86242  0.71533  0.00596  1.0000
  Fe  Fe257     1.0  0.90970  0.72213  0.14289  1.0000
  H   H3032     1.0  0.91837  0.84997  0.02756  1.0000
  H   H3033     1.0  0.85707  0.80538  0.13270  1.0000
  H   H3034     1.0  0.10653  0.94497  0.25285  1.0000
  C   C1780     1.0  0.72545  0.85093  0.06362  1.0000
  H   H3035     1.0  0.10536  0.79550  0.19607  1.0000
  S   S511      1.0  0.08212  0.85594  0.17280  1.0000
  C   C1781     1.0  0.78404  0.84776  0.34099  1.0000
  H   H3036     1.0  0.74867  0.85007  0.35837  1.0000
  H   H3037     1.0  0.69773  0.83307  0.30825  1.0000
  H   H3038     1.0  0.99058  0.77924  0.17198  1.0000
  S   S512      1.0  0.77843  0.78981  0.26116  1.0000
  H   H3039     1.0  0.89495  0.84797  0.06806  1.0000
  H   H3040     1.0  0.99498  0.84872  0.16865  1.0000
  S   S513      1.0  0.12017  0.73431  0.95855  1.0000
  H   H3041     1.0  0.77527  0.83054  0.17173  1.0000
  C   C1782     1.0  0.98759  0.80597  0.01955  1.0000
  H   H3042     1.0  0.07033  0.82518  0.09456  1.0000
  Fe  Fe258     1.0  0.06966  0.82546  0.25520  1.0000
  N   N125      1.0  0.67771  0.80153  0.94249  1.0000
  H   H3043     1.0  0.81287  0.71815  0.32148  1.0000
  S   S514      1.0  0.10362  0.81658  0.25179  1.0000
  H   H3044     1.0  0.84909  0.82258  0.40575  1.0000
  C   C1783     1.0  0.96553  0.78847  0.06219  1.0000
  C   C1784     1.0  0.00599  0.83219  0.00770  1.0000
  C   C1785     1.0  0.77132  0.75588  0.18359  1.0000
  S   S515      1.0  0.83518  0.83136  0.26774  1.0000
  C   C1786     1.0  0.00228  0.84128  0.03805  1.0000
  S   S516      1.0  0.82739  0.83013  0.14268  1.0000
  H   H3045     1.0  0.90658  0.83500  0.13823  1.0000
  C   C1787     1.0  0.69943  0.71677  0.13192  1.0000
  C   C1788     1.0  0.86229  0.73521  0.98566  1.0000
  C   C1789     1.0  0.90575  0.76431  0.33878  1.0000
  H   H3046     1.0  0.85965  0.83786  0.02647  1.0000
  C   C1790     1.0  0.62643  0.82897  0.28940  1.0000
  H   H3047     1.0  0.64298  0.82974  0.27024  1.0000
  H   H3048     1.0  0.70182  0.79139  0.08826  1.0000
  H   H3049     1.0  0.96054  0.82137  0.31920  1.0000
  C   C1791     1.0  0.96225  0.79706  0.09381  1.0000
  Fe  Fe259     1.0  0.67109  0.82224  0.16830  1.0000
  H   H3050     1.0  0.02271  0.84574  0.97404  1.0000
  H   H3051     1.0  0.74972  0.83924  0.14770  1.0000
  H   H3052     1.0  0.08055  0.91998  0.02206  1.0000
  C   C1792     1.0  0.97359  0.82178  0.29324  1.0000
  H   H3053     1.0  0.71464  0.80698  0.36713  1.0000
  C   C1793     1.0  0.07235  0.74065  0.35561  1.0000
  S   S517      1.0  0.76249  0.82196  0.96488  1.0000
  C   C1794     1.0  0.00847  0.82410  0.22591  1.0000
  H   H3054     1.0  0.03691  0.80299  0.17144  1.0000
  H   H3055     1.0  0.65885  0.80528  0.02379  1.0000
  H   H3056     1.0  0.73600  0.77408  0.41159  1.0000
  Fe  Fe260     1.0  0.82247  0.81086  0.22516  1.0000
  H   H3057     1.0  0.09331  0.81463  0.38955  1.0000
  H   H3058     1.0  0.71347  0.77579  0.99599  1.0000
  C   C1795     1.0  0.12123  0.81712  0.11626  1.0000
  H   H3059     1.0  0.03666  0.75846  0.37616  1.0000
  C   C1796     1.0  0.90630  0.80611  0.11851  1.0000
  C   C1797     1.0  0.11366  0.87064  0.37821  1.0000
  H   H3060     1.0  0.93363  0.82267  0.02398  1.0000
  C   C1798     1.0  0.90218  0.77855  0.28571  1.0000
  C   C1799     1.0  0.98807  0.80743  0.31115  1.0000
  C   C1800     1.0  0.65773  0.75011  0.39099  1.0000
  C   C1801     1.0  0.67602  0.77857  0.99222  1.0000
  C   C1802     1.0  0.91570  0.80970  0.01789  1.0000
  S   S518      1.0  0.80499  0.78875  0.03953  1.0000
  H   H3061     1.0  0.91986  0.79434  0.01718  1.0000
  H   H3062     1.0  0.70022  0.81218  0.28847  1.0000
  C   C1803     1.0  0.70780  0.76066  0.15101  1.0000
  C   C1804     1.0  0.69326  0.79459  0.37010  1.0000
  H   H3063     1.0  0.92023  0.81391  0.17529  1.0000
  S   S519      1.0  0.64124  0.72215  0.23881  1.0000
  H   H3064     1.0  0.99036  0.79934  0.99523  1.0000
  H   H3065     1.0  0.82650  0.75660  0.17724  1.0000
  H   H3066     1.0  0.84534  0.79562  0.09074  1.0000
  H   H3067     1.0  0.66075  0.87497  0.33898  1.0000
  C   C1805     1.0  0.69362  0.76570  0.99081  1.0000
  H   H3068     1.0  0.84492  0.75173  0.14009  1.0000
  H   H3069     1.0  0.08940  0.74954  0.21061  1.0000
  H   H3070     1.0  0.89968  0.71845  0.95556  1.0000
  C   C1806     1.0  0.85912  0.79459  0.11522  1.0000
  H   H3071     1.0  0.75305  0.78134  0.16976  1.0000
  H   H3072     1.0  0.70353  0.70983  0.10805  1.0000
  H   H3073     1.0  0.65488  0.76190  0.01227  1.0000
  C   C1807     1.0  0.10825  0.79364  0.16481  1.0000
  H   H3074     1.0  0.90350  0.78494  0.14023  1.0000
  H   H3075     1.0  0.93431  0.73780  0.99321  1.0000
  H   H3076     1.0  0.94557  0.78338  0.12736  1.0000
  C   C1808     1.0  0.68928  0.81155  0.31867  1.0000
  S   S520      1.0  0.85940  0.78265  0.38179  1.0000
  H   H3077     1.0  0.05823  0.78813  0.18110  1.0000
  H   H3078     1.0  0.01841  0.94328  0.26536  1.0000
  H   H3079     1.0  0.99860  0.77251  0.12795  1.0000
  S   S521      1.0  0.79105  0.77240  0.36789  1.0000
  H   H3080     1.0  0.87234  0.79217  0.03972  1.0000
  H   H3081     1.0  0.68098  0.79427  0.39841  1.0000
  C   C1809     1.0  0.71688  0.78411  0.09551  1.0000
  H   H3082     1.0  0.68655  0.74562  0.15925  1.0000
  H   H3083     1.0  0.73667  0.80164  0.08643  1.0000
  C   C1810     1.0  0.94958  0.73083  0.99986  1.0000
  C   C1811     1.0  0.77374  0.70374  0.30882  1.0000
  S   S522      1.0  0.08286  0.76692  0.99455  1.0000
  H   H3084     1.0  0.70704  0.76926  0.17391  1.0000
  H   H3085     1.0  0.92756  0.77416  0.33519  1.0000
  S   S523      1.0  0.94296  0.75656  0.07229  1.0000
  H   H3086     1.0  0.72476  0.78546  0.33306  1.0000
  H   H3087     1.0  0.79686  0.73613  0.11657  1.0000
  C   C1812     1.0  0.08123  0.77550  0.39914  1.0000
  H   H3088     1.0  0.69631  0.76902  0.31688  1.0000
  C   C1813     1.0  0.75314  0.76768  0.15776  1.0000
  H   H3089     1.0  0.64469  0.74935  0.41891  1.0000
  H   H3090     1.0  0.79223  0.77293  0.16997  1.0000
  H   H3091     1.0  0.88153  0.77602  0.28772  1.0000
  C   C1814     1.0  0.70483  0.76692  0.34923  1.0000
  H   H3092     1.0  0.91627  0.80091  0.26538  1.0000
  C   C1815     1.0  0.84708  0.76403  0.15649  1.0000
  S   S524      1.0  0.82718  0.77490  0.28006  1.0000
  H   H3093     1.0  0.71783  0.77738  0.06972  1.0000
  C   C1816     1.0  0.11661  0.78858  0.08413  1.0000
  N   N126      1.0  0.72490  0.74686  0.16599  1.0000
  H   H3094     1.0  0.06808  0.87156  0.06534  1.0000
  H   H3095     1.0  0.93262  0.75531  0.41127  1.0000
  H   H3096     1.0  0.88040  0.83552  0.98696  1.0000
  C   C1817     1.0  0.09924  0.76762  0.17301  1.0000
  H   H3097     1.0  0.10089  0.77750  0.40632  1.0000
  H   H3098     1.0  0.89722  0.77006  0.36060  1.0000
  H   H3099     1.0  0.11993  0.78664  0.05282  1.0000
  Fe  Fe261     1.0  0.11810  0.85004  0.17014  1.0000
  C   C1818     1.0  0.93839  0.74386  0.31695  1.0000
  H   H3100     1.0  0.77344  0.92786  0.96370  1.0000
  H   H3101     1.0  0.94258  0.76296  0.28126  1.0000
  N   N127      1.0  0.68705  0.76583  0.38698  1.0000
  C   C1819     1.0  0.05065  0.73941  0.01276  1.0000
  H   H3102     1.0  0.69085  0.70918  0.22563  1.0000
  Fe  Fe262     1.0  0.80113  0.82066  0.97080  1.0000
  C   C1820     1.0  0.10380  0.76514  0.13273  1.0000
  C   C1821     1.0  0.78368  0.73330  0.09333  1.0000
  H   H3103     1.0  0.04344  0.74472  0.19078  1.0000
  C   C1822     1.0  0.75874  0.88647  0.98289  1.0000
  H   H3104     1.0  0.62956  0.76019  0.94877  1.0000
  H   H3105     1.0  0.00284  0.76434  0.24969  1.0000
  H   H3106     1.0  0.85398  0.73040  0.37754  1.0000
  H   H3107     1.0  0.85680  0.73578  0.05423  1.0000
  N   N128      1.0  0.83575  0.73163  0.97412  1.0000
  C   C1823     1.0  0.99400  0.76406  0.16870  1.0000
  H   H3108     1.0  0.06234  0.71714  0.99160  1.0000
  H   H3109     1.0  0.65303  0.74774  0.95083  1.0000
  S   S525      1.0  0.09500  0.73331  0.14194  1.0000
  H   H3110     1.0  0.11783  0.86192  0.35789  1.0000
  C   C1824     1.0  0.76671  0.75215  0.02214  1.0000
  H   H3111     1.0  0.03617  0.73372  0.27173  1.0000
  N   N129      1.0  0.01689  0.76128  0.18990  1.0000
  H   H3112     1.0  0.73078  0.74804  0.37672  1.0000
  C   C1825     1.0  0.71087  0.74275  0.36870  1.0000
  H   H3113     1.0  0.04696  0.76711  0.26249  1.0000
  H   H3114     1.0  0.86312  0.72876  0.32589  1.0000
  H   H3115     1.0  0.72595  0.75229  0.24602  1.0000
  H   H3116     1.0  0.90628  0.77076  0.26359  1.0000
  H   H3117     1.0  0.10203  0.87872  0.06016  1.0000
  H   H3118     1.0  0.00875  0.72008  0.21657  1.0000
  N   N130      1.0  0.89350  0.73363  0.36630  1.0000
  H   H3119     1.0  0.89105  0.75083  0.02102  1.0000
  H   H3120     1.0  0.79383  0.71250  0.01250  1.0000
  C   C1826     1.0  0.87088  0.74842  0.01631  1.0000
  H   H3121     1.0  0.99234  0.71608  0.42561  1.0000
  H   H3122     1.0  0.85855  0.94588  0.04283  1.0000
  C   C1827     1.0  0.06873  0.73111  0.41157  1.0000
  H   H3123     1.0  0.68072  0.83967  0.96969  1.0000
  H   H3124     1.0  0.09402  0.75168  0.33558  1.0000
  C   C1828     1.0  0.66113  0.82076  0.98461  1.0000
  S   S526      1.0  0.62600  0.70342  0.06384  1.0000
  H   H3125     1.0  0.95016  0.74935  0.34073  1.0000
  C   C1829     1.0  0.86445  0.72220  0.36495  1.0000
  C   C1830     1.0  0.02905  0.74017  0.03249  1.0000
  H   H3126     1.0  0.96879  0.74803  0.99425  1.0000
  H   H3127     1.0  0.73622  0.72282  0.01055  1.0000
  Fe  Fe263     1.0  0.02296  0.94443  0.05023  1.0000
  S   S527      1.0  0.75928  0.71171  0.34413  1.0000
  C   C1831     1.0  0.71211  0.72340  0.22009  1.0000
  C   C1832     1.0  0.03347  0.74398  0.41637  1.0000
  C   C1833     1.0  0.02941  0.74715  0.27423  1.0000
  H   H3128     1.0  0.00345  0.72406  0.14288  1.0000
  H   H3129     1.0  0.81655  0.72854  0.03790  1.0000
  H   H3130     1.0  0.95694  0.73128  0.23087  1.0000
  C   C1834     1.0  0.62776  0.85324  0.28001  1.0000
  H   H3131     1.0  0.73877  0.75231  0.09551  1.0000
  H   H3132     1.0  0.12255  0.86460  0.41028  1.0000
  H   H3133     1.0  0.04113  0.80642  0.95644  1.0000
  H   H3134     1.0  0.07223  0.85309  0.37260  1.0000
  H   H3135     1.0  0.87498  0.81380  0.94385  1.0000
  C   C1835     1.0  0.96680  0.73739  0.19332  1.0000
  C   C1836     1.0  0.72650  0.73552  0.13470  1.0000
  H   H3136     1.0  0.09634  0.94019  0.94174  1.0000
  C   C1837     1.0  0.74925  0.72563  0.03396  1.0000
  C   C1838     1.0  0.90781  0.72480  0.34312  1.0000
  H   H3137     1.0  0.69702  0.76626  0.95590  1.0000
  H   H3138     1.0  0.95285  0.74085  0.17001  1.0000
  H   H3139     1.0  0.71194  0.83084  0.94942  1.0000
  H   H3140     1.0  0.89869  0.72204  0.31414  1.0000
  H   H3141     1.0  0.03906  0.73958  0.12548  1.0000
  H   H3142     1.0  0.11530  0.92564  0.41579  1.0000
  H   H3143     1.0  0.71272  0.73904  0.33852  1.0000
  Fe  Fe264     1.0  0.11926  0.76417  0.97528  1.0000
  H   H3144     1.0  0.63590  0.82909  0.37747  1.0000
  H   H3145     1.0  0.73715  0.72331  0.14913  1.0000
  C   C1839     1.0  0.63149  0.71310  0.19591  1.0000
  H   H3146     1.0  0.05850  0.91772  0.42413  1.0000
  C   C1840     1.0  0.11895  0.94095  0.27945  1.0000
  C   C1841     1.0  0.65719  0.80933  0.95067  1.0000
  H   H3147     1.0  0.62768  0.78289  0.41426  1.0000
  H   H3148     1.0  0.83304  0.71023  0.26411  1.0000
  C   C1842     1.0  0.81351  0.71615  0.02124  1.0000
  H   H3149     1.0  0.71505  0.71751  0.29313  1.0000
  H   H3150     1.0  0.06201  0.72263  0.35242  1.0000
  H   H3151     1.0  0.87580  0.84011  0.42576  1.0000
  N   N131      1.0  0.92907  0.70485  0.95664  1.0000
  S   S528      1.0  0.88930  0.72127  0.20538  1.0000
  H   H3152     1.0  0.68793  0.72761  0.11418  1.0000
  H   H3153     1.0  0.98649  0.71859  0.06768  1.0000
  H   H3154     1.0  0.94636  0.73311  0.30717  1.0000
  C   C1843     1.0  0.80074  0.70979  0.30210  1.0000
  C   C1844     1.0  0.76629  0.70681  0.10504  1.0000
  H   H3155     1.0  0.96601  0.71122  0.97900  1.0000
  C   C1845     1.0  0.92114  0.73272  0.43080  1.0000
  H   H3156     1.0  0.07944  0.83861  0.94999  1.0000
  C   C1846     1.0  0.89348  0.72238  0.42062  1.0000
  H   H3157     1.0  0.64182  0.88501  0.36471  1.0000
  N   N132      1.0  0.12384  0.93682  0.01512  1.0000
  H   H3158     1.0  0.83862  0.76926  0.96162  1.0000
  H   H3159     1.0  0.98874  0.93841  0.22570  1.0000
  H   H3160     1.0  0.93320  0.72480  0.42190  1.0000
  C   C1847     1.0  0.83811  0.75954  0.94032  1.0000
  H   H3161     1.0  0.95697  0.87255  0.94172  1.0000
  H   H3162     1.0  0.80832  0.70980  0.94490  1.0000
  H   H3163     1.0  0.11600  0.94804  0.30374  1.0000
  H   H3164     1.0  0.10973  0.87944  0.94504  1.0000
  H   H3165     1.0  0.01661  0.70978  0.40497  1.0000
  H   H3166     1.0  0.62632  0.90502  0.09088  1.0000
  H   H3167     1.0  0.62545  0.71111  0.40947  1.0000
  C   C1848     1.0  0.62522  0.70482  0.11738  1.0000
  H   H3168     1.0  0.05438  0.70885  0.43442  1.0000
