data_image0
_chemical_formula_structural       HC4H2CHSH3CH3CHC2H3C3H5FeSHFeS2FeSFeS3CHCHCH2C2HCHC3SNH3CH3C3HC2H5CH3CH3CH3C2H2CHCH5CH2CH6FeSHFeSHSFeHFeS2CFeHS3CHC6H6CSH7CHCHCH2C2FeCH2NH7CNH7CH2SH2C3H2C4SCH3CH3CHC3NH2NHCH2CH3C2HC3HC2H7CH2C3H4CH2FeSCS2H5SHC2HCHCHC2HNHCHCHCHC2HFeH3FeS2FeSCFeSFeHS2CH3C2HSCHCH2C3H4CHC4H5CNCH4SHNHCHCHC2H2CH3CH7FeSCFeS2FeHFeS3HC2HCHC2H3CSH2C2H2CH3CSHCH3CNHC3H2C4H7CNCH9CH2C2H5CSCH3CHC2H2CHCH4NCH2C2H2CH3CHCHCHC3H2C2H5CH2CH3CFeS4FeSFeS2FeS2HSFeHSHC6H7C3H2CFeHC2H2C3H2NHCH7CH3FeS2FeSCFeCFeS3HC2H2C3H3CHNCH3CH2CH2CHCHNCH3CH2CH4CH2SH3C2H2CHSH3C2H2CH3CHCHCSHCHC3H3NHCH4SH3CSH3C2H2CH3CFeC3H3CHCH2CH3NH5CHSH2C3HFeH2
_chemical_formula_sum              "H384 C224 S64 Fe32 N16"
_cell_length_a       29.5747
_cell_length_b       32.2505
_cell_length_c       31.9728
_cell_angle_alpha    89.969
_cell_angle_beta     90.4908
_cell_angle_gamma    90.2268

_space_group_name_H-M_alt    "P 1"
_space_group_IT_number       1

loop_
  _space_group_symop_operation_xyz
  'x, y, z'

loop_
  _atom_site_type_symbol
  _atom_site_label
  _atom_site_symmetry_multiplicity
  _atom_site_fract_x
  _atom_site_fract_y
  _atom_site_fract_z
  _atom_site_occupancy
  H   H1        1.0  0.48137  0.34647  0.28230  1.0000
  C   C1        1.0  0.26127  0.28965  0.46121  1.0000
  C   C2        1.0  0.24725  0.32666  0.47973  1.0000
  C   C3        1.0  0.45818  0.24439  0.26621  1.0000
  C   C4        1.0  0.36943  0.02255  0.06818  1.0000
  H   H2        1.0  0.32404  0.31867  0.27041  1.0000
  H   H3        1.0  0.25497  0.22295  0.46065  1.0000
  C   C5        1.0  0.45511  0.28423  0.28392  1.0000
  H   H4        1.0  0.33899  0.03805  0.08050  1.0000
  S   S1        1.0  0.41572  0.29299  0.32456  1.0000
  H   H5        1.0  0.30461  0.32475  0.21796  1.0000
  H   H6        1.0  0.43707  0.21965  0.27812  1.0000
  H   H7        1.0  0.28566  0.29054  0.43618  1.0000
  C   C6        1.0  0.48274  0.31589  0.26844  1.0000
  H   H8        1.0  0.42103  0.30529  0.20006  1.0000
  H   H9        1.0  0.48901  0.20588  0.21887  1.0000
  H   H10       1.0  0.47518  0.33658  0.15302  1.0000
  C   C7        1.0  0.33536  0.32058  0.23748  1.0000
  H   H11       1.0  0.39816  0.03175  0.08888  1.0000
  C   C8        1.0  0.44254  0.32495  0.14011  1.0000
  C   C9        1.0  0.40573  0.32353  0.17402  1.0000
  H   H12       1.0  0.35128  0.29026  0.23073  1.0000
  H   H13       1.0  0.44918  0.29282  0.12921  1.0000
  H   H14       1.0  0.37762  0.30388  0.16161  1.0000
  C   C10       1.0  0.24371  0.25138  0.47511  1.0000
  C   C11       1.0  0.99656  0.06124  0.46969  1.0000
  C   C12       1.0  0.48764  0.23646  0.23268  1.0000
  H   H15       1.0  0.37798  0.03446  0.03663  1.0000
  H   H16       1.0  0.30614  0.03321  0.00943  1.0000
  H   H17       1.0  0.00898  0.07438  0.44082  1.0000
  H   H18       1.0  0.43273  0.34339  0.11242  1.0000
  H   H19       1.0  0.39660  0.35174  0.25632  1.0000
  Fe  Fe1       1.0  0.07018  0.12826  0.60602  1.0000
  S   S2        1.0  0.14601  0.12168  0.60567  1.0000
  H   H20       1.0  0.46249  0.08726  0.94179  1.0000
  Fe  Fe2       1.0  0.07490  0.21627  0.64247  1.0000
  S   S3        1.0  0.15107  0.21674  0.64436  1.0000
  S   S4        1.0  0.03147  0.27221  0.65888  1.0000
  Fe  Fe3       1.0  0.14667  0.18739  0.58068  1.0000
  S   S5        1.0  0.19470  0.20022  0.52676  1.0000
  Fe  Fe4       1.0  0.14505  0.15138  0.66904  1.0000
  S   S6        1.0  0.18396  0.13190  0.72753  1.0000
  S   S7        1.0  0.07079  0.19145  0.57643  1.0000
  S   S8        1.0  0.06915  0.15346  0.67173  1.0000
  C   C13       1.0  0.00843  0.25368  0.74095  1.0000
  H   H21       1.0  0.21451  0.09134  0.80242  1.0000
  C   C14       1.0  0.35064  0.22912  0.63281  1.0000
  H   H22       1.0  0.17381  0.28571  0.55139  1.0000
  C   C15       1.0  0.24514  0.02000  0.70976  1.0000
  H   H23       1.0  0.11021  0.05910  0.75697  1.0000
  H   H24       1.0  0.10356  0.29935  0.81572  1.0000
  C   C16       1.0  0.22376  0.05830  0.70205  1.0000
  C   C17       1.0  0.21200  0.08396  0.73544  1.0000
  H   H25       1.0  0.40520  0.24494  0.58856  1.0000
  C   C18       1.0  0.00342  0.28063  0.70696  1.0000
  H   H26       1.0  0.21671  0.06812  0.67034  1.0000
  C   C19       1.0  0.46871  0.06442  0.96595  1.0000
  C   C20       1.0  0.24452  0.03326  0.78413  1.0000
  C   C21       1.0  0.22301  0.07149  0.77641  1.0000
  S   S9        1.0  0.01887  0.07620  0.59522  1.0000
  N   N1        1.0  0.30976  0.21910  0.60593  1.0000
  H   H27       1.0  0.02969  0.22661  0.73816  1.0000
  H   H28       1.0  0.24094  0.23974  0.59626  1.0000
  H   H29       1.0  0.02604  0.33039  0.84935  1.0000
  C   C22       1.0  0.28108  0.29515  0.60235  1.0000
  H   H30       1.0  0.31848  0.15252  0.61271  1.0000
  H   H31       1.0  0.41109  0.26749  0.63912  1.0000
  H   H32       1.0  0.10111  0.04551  0.63873  1.0000
  C   C23       1.0  0.27201  0.24947  0.61362  1.0000
  C   C24       1.0  0.45104  0.02410  0.96129  1.0000
  C   C25       1.0  0.11434  0.32556  0.79553  1.0000
  H   H33       1.0  0.26244  0.24988  0.64716  1.0000
  C   C26       1.0  0.09564  0.04934  0.72633  1.0000
  C   C27       1.0  0.32030  0.21852  0.55986  1.0000
  H   H34       1.0  0.10738  0.07238  0.70312  1.0000
  H   H35       1.0  0.99084  0.24129  0.80518  1.0000
  H   H36       1.0  0.24891  0.31259  0.60515  1.0000
  H   H37       1.0  0.37135  0.28871  0.60293  1.0000
  H   H38       1.0  0.05837  0.05076  0.72940  1.0000
  C   C28       1.0  0.29214  0.17656  0.61744  1.0000
  H   H39       1.0  0.29235  0.29959  0.56969  1.0000
  H   H40       1.0  0.33438  0.24853  0.54897  1.0000
  H   H41       1.0  0.08113  0.33903  0.86997  1.0000
  C   C29       1.0  0.21533  0.32488  0.51211  1.0000
  H   H42       1.0  0.30221  0.18163  0.68617  1.0000
  H   H43       1.0  0.36649  0.19227  0.51430  1.0000
  H   H44       1.0  0.12568  0.31156  0.76564  1.0000
  C   C30       1.0  0.35290  0.18415  0.54558  1.0000
  H   H45       1.0  0.24393  0.18672  0.66886  1.0000
  H   H46       1.0  0.28877  0.21425  0.54131  1.0000
  H   H47       1.0  0.36969  0.20043  0.64097  1.0000
  C   C31       1.0  0.38601  0.25933  0.61436  1.0000
  C   C32       1.0  0.27654  0.17099  0.66308  1.0000
  H   H48       1.0  0.33999  0.24218  0.66343  1.0000
  H   H49       1.0  0.38181  0.17987  0.56738  1.0000
  C   C33       1.0  0.99840  0.05883  0.54578  1.0000
  H   H50       1.0  0.30504  0.30973  0.62480  1.0000
  C   C34       1.0  0.19796  0.28657  0.52619  1.0000
  H   H51       1.0  0.26316  0.16758  0.59664  1.0000
  H   H52       1.0  0.25224  0.02382  0.81585  1.0000
  H   H53       1.0  0.27044  0.13750  0.66913  1.0000
  H   H54       1.0  0.04577  0.33572  0.77540  1.0000
  H   H55       1.0  0.14373  0.34181  0.80980  1.0000
  C   C35       1.0  0.21229  0.24956  0.50788  1.0000
  H   H56       1.0  0.33460  0.15419  0.54197  1.0000
  H   H57       1.0  0.15486  0.02506  0.64990  1.0000
  C   C36       1.0  0.01415  0.07555  0.50825  1.0000
  H   H58       1.0  0.03988  0.09950  0.50882  1.0000
  H   H59       1.0  0.33091  0.02365  0.96019  1.0000
  H   H60       1.0  0.03554  0.02069  0.67017  1.0000
  H   H61       1.0  0.10337  0.01927  0.57386  1.0000
  H   H62       1.0  0.01937  0.35178  0.91997  1.0000
  H   H63       1.0  0.00585  0.46447  0.19329  1.0000
  Fe  Fe5       1.0  0.06421  0.64047  0.10569  1.0000
  S   S10       1.0  0.13739  0.62208  0.10891  1.0000
  H   H64       1.0  0.44416  0.40037  0.16470  1.0000
  Fe  Fe6       1.0  0.13510  0.63960  0.17705  1.0000
  S   S11       1.0  0.15644  0.60076  0.23408  1.0000
  H   H65       1.0  0.06070  0.52886  0.10412  1.0000
  S   S12       1.0  0.06042  0.65400  0.17486  1.0000
  Fe  Fe7       1.0  0.32118  0.38737  0.41306  1.0000
  H   H66       1.0  0.38408  0.52704  0.44113  1.0000
  Fe  Fe8       1.0  0.33447  0.43292  0.32915  1.0000
  S   S13       1.0  0.40909  0.41885  0.33010  1.0000
  S   S14       1.0  0.31120  0.46640  0.26927  1.0000
  C   C37       1.0  0.36623  0.55715  0.44472  1.0000
  Fe  Fe9       1.0  0.40810  0.43674  0.39833  1.0000
  H   H67       1.0  0.00203  0.48237  0.07261  1.0000
  S   S15       1.0  0.31534  0.36726  0.34585  1.0000
  S   S16       1.0  0.33464  0.45443  0.39599  1.0000
  S   S17       1.0  0.39499  0.37106  0.41950  1.0000
  C   C38       1.0  0.42592  0.39555  0.19441  1.0000
  H   H68       1.0  0.44666  0.60212  0.46922  1.0000
  C   C39       1.0  0.20102  0.56482  0.24349  1.0000
  C   C40       1.0  0.23189  0.55369  0.21259  1.0000
  C   C41       1.0  0.26545  0.52374  0.22118  1.0000
  C   C42       1.0  0.26897  0.50487  0.26083  1.0000
  C   C43       1.0  0.23854  0.51646  0.29192  1.0000
  C   C44       1.0  0.20469  0.54609  0.28318  1.0000
  H   H69       1.0  0.22969  0.56791  0.18199  1.0000
  H   H70       1.0  0.28888  0.51517  0.19691  1.0000
  H   H71       1.0  0.24062  0.50218  0.32250  1.0000
  H   H72       1.0  0.18102  0.55444  0.30735  1.0000
  H   H73       1.0  0.29705  0.53194  0.43177  1.0000
  H   H74       1.0  0.06631  0.57384  0.01174  1.0000
  C   C45       1.0  0.02511  0.54189  0.18085  1.0000
  S   S18       1.0  0.26907  0.37565  0.46413  1.0000
  H   H75       1.0  0.11124  0.55016  0.16075  1.0000
  H   H76       1.0  0.29868  0.57554  0.46728  1.0000
  H   H77       1.0  0.44279  0.56479  0.40285  1.0000
  H   H78       1.0  0.47724  0.63069  0.43147  1.0000
  H   H79       1.0  0.31719  0.52558  0.48384  1.0000
  H   H80       1.0  0.42254  0.64849  0.44644  1.0000
  H   H81       1.0  0.06225  0.56612  0.23639  1.0000
  C   C46       1.0  0.04327  0.46716  0.19044  1.0000
  H   H82       1.0  0.38720  0.45393  0.18837  1.0000
  C   C47       1.0  0.04953  0.50069  0.12159  1.0000
  H   H83       1.0  0.03158  0.56958  0.16096  1.0000
  C   C48       1.0  0.99755  0.57109  0.03261  1.0000
  H   H84       1.0  0.33735  0.41745  0.10721  1.0000
  H   H85       1.0  0.35088  0.38512  0.24479  1.0000
  C   C49       1.0  0.34375  0.62205  0.41014  1.0000
  C   C50       1.0  0.00109  0.49010  0.10647  1.0000
  Fe  Fe10      1.0  0.39030  0.35477  0.35081  1.0000
  C   C51       1.0  0.42278  0.59390  0.40395  1.0000
  H   H86       1.0  0.05397  0.44001  0.17143  1.0000
  H   H87       1.0  0.39921  0.43850  0.24175  1.0000
  N   N2        1.0  0.05576  0.50686  0.16819  1.0000
  H   H88       1.0  0.11214  0.52459  0.20901  1.0000
  H   H89       1.0  0.38078  0.65406  0.35762  1.0000
  H   H90       1.0  0.13224  0.45633  0.16752  1.0000
  H   H91       1.0  0.14427  0.49187  0.12499  1.0000
  H   H92       1.0  0.33119  0.40592  0.17795  1.0000
  H   H93       1.0  0.36061  0.36704  0.09607  1.0000
  H   H94       1.0  0.34440  0.63337  0.44311  1.0000
  C   C52       1.0  0.06411  0.46020  0.23452  1.0000
  N   N3        1.0  0.37292  0.58400  0.40641  1.0000
  H   H95       1.0  0.39486  0.59127  0.31785  1.0000
  H   H96       1.0  0.38124  0.57168  0.47310  1.0000
  H   H97       1.0  0.13993  0.61989  0.01521  1.0000
  H   H98       1.0  0.07099  0.47492  0.11012  1.0000
  H   H99       1.0  0.32346  0.35578  0.15880  1.0000
  H   H100      1.0  0.35231  0.55560  0.30153  1.0000
  H   H101      1.0  0.32443  0.54624  0.37167  1.0000
  C   C53       1.0  0.35955  0.55807  0.36892  1.0000
  H   H102      1.0  0.38157  0.53011  0.36699  1.0000
  H   H103      1.0  0.33490  0.60368  0.32286  1.0000
  S   S19       1.0  0.00523  0.60285  0.07780  1.0000
  H   H104      1.0  0.44273  0.45939  0.21011  1.0000
  H   H105      1.0  0.30774  0.61389  0.40341  1.0000
  C   C54       1.0  0.10436  0.51951  0.17552  1.0000
  C   C55       1.0  0.14016  0.48891  0.15934  1.0000
  C   C56       1.0  0.45105  0.50037  0.50150  1.0000
  H   H106      1.0  0.43167  0.60977  0.37449  1.0000
  H   H107      1.0  0.42255  0.47927  0.50028  1.0000
  C   C57       1.0  0.44263  0.62038  0.44001  1.0000
  C   C58       1.0  0.35606  0.65992  0.38254  1.0000
  C   C59       1.0  0.31679  0.54736  0.45687  1.0000
  C   C60       1.0  0.41229  0.43910  0.20948  1.0000
  S   S20       1.0  0.46527  0.48119  0.41744  1.0000
  C   C61       1.0  0.36092  0.57916  0.32576  1.0000
  H   H108      1.0  0.17346  0.49656  0.17373  1.0000
  H   H109      1.0  0.09429  0.43989  0.23271  1.0000
  H   H110      1.0  0.45217  0.38367  0.21650  1.0000
  C   C62       1.0  0.47763  0.50619  0.46597  1.0000
  H   H111      1.0  0.07291  0.48856  0.25218  1.0000
  H   H112      1.0  0.39528  0.40926  0.11563  1.0000
  H   H113      1.0  0.32495  0.67167  0.36685  1.0000
  C   C63       1.0  0.02783  0.55619  0.22673  1.0000
  H   H114      1.0  0.00593  0.58386  0.23043  1.0000
  C   C64       1.0  0.36205  0.39376  0.11795  1.0000
  C   C65       1.0  0.34989  0.38011  0.16269  1.0000
  C   C66       1.0  0.36893  0.35721  0.23323  1.0000
  N   N4        1.0  0.38791  0.36444  0.19005  1.0000
  H   H115      1.0  0.03942  0.44290  0.25396  1.0000
  H   H116      1.0  0.01437  0.53226  0.24822  1.0000
  N   N5        1.0  0.06048  0.38293  0.82193  1.0000
  H   H117      1.0  0.20419  0.35336  0.52655  1.0000
  C   C67       1.0  0.13737  0.63317  0.98325  1.0000
  H   H118      1.0  0.12121  0.60921  0.96320  1.0000
  H   H119      1.0  0.11846  0.42028  0.80352  1.0000
  C   C68       1.0  0.09869  0.41266  0.83205  1.0000
  H   H120      1.0  0.05673  0.39469  0.91478  1.0000
  H   H121      1.0  0.08497  0.37381  0.75861  1.0000
  H   H122      1.0  0.06417  0.45226  0.87914  1.0000
  C   C69       1.0  0.05022  0.35532  0.85883  1.0000
  C   C70       1.0  0.01984  0.42742  0.76605  1.0000
  H   H123      1.0  0.11581  0.64536  0.90135  1.0000
  C   C71       1.0  0.04394  0.64424  0.91646  1.0000
  C   C72       1.0  0.03291  0.56157  0.00550  1.0000
  C   C73       1.0  0.46158  0.52172  0.53891  1.0000
  H   H124      1.0  0.11717  0.47144  0.86127  1.0000
  C   C74       1.0  0.07467  0.35520  0.78630  1.0000
  C   C75       1.0  0.02498  0.53585  0.97037  1.0000
  H   H125      1.0  0.01487  0.66214  0.90376  1.0000
  H   H126      1.0  0.05250  0.52888  0.94950  1.0000
  H   H127      1.0  0.03694  0.63696  0.94956  1.0000
  H   H128      1.0  0.01665  0.40506  0.73975  1.0000
  H   H129      1.0  0.06866  0.47523  0.82811  1.0000
  H   H130      1.0  0.00690  0.42791  0.83198  1.0000
  H   H131      1.0  0.12351  0.39793  0.85377  1.0000
  C   C76       1.0  0.08890  0.66793  0.90958  1.0000
  H   H132      1.0  0.44097  0.51677  0.56627  1.0000
  H   H133      1.0  0.04528  0.61370  0.90042  1.0000
  C   C77       1.0  0.01776  0.40476  0.80852  1.0000
  C   C78       1.0  0.03065  0.37630  0.89792  1.0000
  C   C79       1.0  0.08584  0.45496  0.85128  1.0000
  H   H134      1.0  0.05139  0.44570  0.76255  1.0000
  H   H135      1.0  0.17249  0.63917  0.97299  1.0000
  H   H136      1.0  0.00045  0.39538  0.89116  1.0000
  H   H137      1.0  0.07603  0.66538  0.99933  1.0000
  C   C80       1.0  0.10919  0.67326  0.98513  1.0000
  H   H138      1.0  0.99076  0.44902  0.76333  1.0000
  H   H139      1.0  0.20924  0.96498  0.05660  1.0000
  Fe  Fe11      1.0  0.08030  0.71928  0.15937  1.0000
  S   S21       1.0  0.20729  0.70552  0.04948  1.0000
  C   C81       1.0  0.48450  0.00633  0.02879  1.0000
  S   S22       1.0  0.07872  0.70722  0.08975  1.0000
  S   S23       1.0  0.15509  0.70631  0.16580  1.0000
  H   H140      1.0  0.30384  0.89383  0.02816  1.0000
  H   H141      1.0  0.12578  0.69331  0.00889  1.0000
  H   H142      1.0  0.37059  0.85597  0.03160  1.0000
  H   H143      1.0  0.39840  0.96410  0.05612  1.0000
  H   H144      1.0  0.16558  0.78797  0.05401  1.0000
  S   S24       1.0  0.05007  0.78006  0.18359  1.0000
  H   H145      1.0  0.40080  0.89381  0.06167  1.0000
  C   C82       1.0  0.32978  0.90953  0.04806  1.0000
  C   C83       1.0  0.21895  0.75379  0.02464  1.0000
  H   H146      1.0  0.02191  0.85560  0.22268  1.0000
  C   C84       1.0  0.01362  0.78928  0.22666  1.0000
  H   H147      1.0  0.32239  0.89953  0.08072  1.0000
  C   C85       1.0  0.19293  0.78920  0.03177  1.0000
  H   H148      1.0  0.36427  0.96465  0.10158  1.0000
  C   C86       1.0  0.37541  0.88988  0.03618  1.0000
  C   C87       1.0  0.23957  0.94941  0.04383  1.0000
  H   H149      1.0  0.28255  0.96067  0.09738  1.0000
  N   N6        1.0  0.32658  0.95617  0.04384  1.0000
  H   H150      1.0  0.18203  0.85353  0.01593  1.0000
  C   C88       1.0  0.28255  0.96890  0.06349  1.0000
  H   H151      1.0  0.27772  0.00288  0.06310  1.0000
  C   C89       1.0  0.00505  0.83048  0.23879  1.0000
  H   H152      1.0  0.23643  0.91602  0.05182  1.0000
  C   C90       1.0  0.99191  0.75710  0.24805  1.0000
  H   H153      1.0  0.99811  0.72529  0.23911  1.0000
  C   C91       1.0  0.36545  0.97494  0.06830  1.0000
  C   C92       1.0  0.20236  0.82636  0.01008  1.0000
  H   H154      1.0  0.36886  0.68585  0.40229  1.0000
  Fe  Fe12      1.0  0.15212  0.69026  0.09719  1.0000
  H   H155      1.0  0.08979  0.75392  0.01160  1.0000
  H   H156      1.0  0.38906  0.90265  0.00675  1.0000
  H   H157      1.0  0.23837  0.95296  0.00937  1.0000
  Fe  Fe13      1.0  0.30144  0.89263  0.90561  1.0000
  S   S25       1.0  0.37649  0.89126  0.91754  1.0000
  S   S26       1.0  0.24818  0.87652  0.95485  1.0000
  Fe  Fe14      1.0  0.31264  0.93474  0.81975  1.0000
  S   S27       1.0  0.38857  0.93561  0.82552  1.0000
  C   C93       1.0  0.32918  0.96741  0.99804  1.0000
  Fe  Fe15      1.0  0.38209  0.87074  0.85009  1.0000
  S   S28       1.0  0.43221  0.81840  0.83802  1.0000
  Fe  Fe16      1.0  0.37804  0.95615  0.89216  1.0000
  H   H158      1.0  0.25403  0.00024  0.68379  1.0000
  S   S29       1.0  0.30653  0.86767  0.84000  1.0000
  S   S30       1.0  0.30235  0.95964  0.88445  1.0000
  C   C94       1.0  0.16851  0.93924  0.67540  1.0000
  H   H159      1.0  0.10609  0.92778  0.64335  1.0000
  H   H160      1.0  0.43551  0.85772  0.75513  1.0000
  H   H161      1.0  0.10905  0.78441  0.96787  1.0000
  C   C95       1.0  0.45876  0.80486  0.79016  1.0000
  C   C96       1.0  0.08086  0.76513  0.97989  1.0000
  H   H162      1.0  0.05849  0.74330  0.91926  1.0000
  S   S31       1.0  0.27946  0.95739  0.75899  1.0000
  C   C97       1.0  0.45967  0.99485  0.99265  1.0000
  H   H163      1.0  0.18665  0.95866  0.65234  1.0000
  C   C98       1.0  0.25424  0.75605  0.99542  1.0000
  H   H164      1.0  0.14306  0.72620  0.86528  1.0000
  H   H165      1.0  0.18382  0.75766  0.89183  1.0000
  C   C99       1.0  0.14949  0.74375  0.89455  1.0000
  C   C100      1.0  0.11668  0.94420  0.67214  1.0000
  C   C101      1.0  0.06819  0.72931  0.94988  1.0000
  H   H166      1.0  0.16288  0.73344  0.96004  1.0000
  H   H167      1.0  0.29095  0.79439  0.95142  1.0000
  H   H168      1.0  0.18142  0.94601  0.70739  1.0000
  H   H169      1.0  0.47199  0.89514  0.86674  1.0000
  C   C102      1.0  0.02674  0.96726  0.63215  1.0000
  H   H170      1.0  0.48123  0.85236  0.92145  1.0000
  C   C103      1.0  0.23776  0.82865  0.98096  1.0000
  C   C104      1.0  0.14886  0.71530  0.93337  1.0000
  C   C105      1.0  0.45548  0.82971  0.75438  1.0000
  C   C106      1.0  0.30901  0.00971  0.98458  1.0000
  H   H171      1.0  0.10976  0.96702  0.59064  1.0000
  H   H172      1.0  0.03635  0.71529  0.96195  1.0000
  H   H173      1.0  0.10151  0.92554  0.69786  1.0000
  H   H174      1.0  0.27445  0.72883  0.98946  1.0000
  H   H175      1.0  0.44717  0.96353  0.98919  1.0000
  C   C107      1.0  0.26366  0.79321  0.97373  1.0000
  N   N7        1.0  0.09950  0.98818  0.67364  1.0000
  C   C108      1.0  0.11995  0.01579  0.64066  1.0000
  H   H176      1.0  0.36479  0.96667  0.98723  1.0000
  H   H177      1.0  0.12555  0.76995  0.89688  1.0000
  H   H178      1.0  0.05127  0.78592  0.98328  1.0000
  H   H179      1.0  0.47366  0.89583  0.95480  1.0000
  S   S32       1.0  0.41852  0.01233  0.91573  1.0000
  H   H180      1.0  0.03368  0.97328  0.69877  1.0000
  N   N8        1.0  0.10374  0.69644  0.94442  1.0000
  H   H181      1.0  0.03429  0.93373  0.63014  1.0000
  C   C109      1.0  0.25533  0.00711  0.75084  1.0000
  H   H182      1.0  0.17749  0.90646  0.66891  1.0000
  C   C110      1.0  0.12273  0.99875  0.59546  1.0000
  H   H183      1.0  0.17437  0.69078  0.92757  1.0000
  C   C111      1.0  0.11238  0.00522  0.71621  1.0000
  C   C112      1.0  0.47791  0.81811  0.71738  1.0000
  H   H184      1.0  0.31106  0.94368  0.97889  1.0000
  H   H185      1.0  0.03542  0.98331  0.60268  1.0000
  C   C113      1.0  0.48493  0.76853  0.78848  1.0000
  H   H186      1.0  0.46985  0.93893  0.89943  1.0000
  H   H187      1.0  0.15838  0.99936  0.58475  1.0000
  H   H188      1.0  0.10008  0.98441  0.74160  1.0000
  C   C114      1.0  0.04854  0.98835  0.67063  1.0000
  H   H189      1.0  0.47491  0.83744  0.68986  1.0000
  H   H190      1.0  0.14969  0.00654  0.72024  1.0000
  H   H191      1.0  0.46838  0.98371  0.84452  1.0000
  H   H192      1.0  0.27554  0.00524  0.96917  1.0000
  H   H193      1.0  0.48626  0.98717  0.79144  1.0000
  H   H194      1.0  0.48781  0.74910  0.81595  1.0000
  H   H195      1.0  0.08386  0.68573  0.88011  1.0000
  Fe  Fe17      1.0  0.63963  0.18517  0.06713  1.0000
  S   S33       1.0  0.56365  0.18467  0.07357  1.0000
  C   C115      1.0  0.81696  0.24380  0.05898  1.0000
  Fe  Fe18      1.0  0.65448  0.14002  0.15168  1.0000
  S   S34       1.0  0.57975  0.13711  0.16460  1.0000
  S   S35       1.0  0.71430  0.12571  0.19538  1.0000
  Fe  Fe19      1.0  0.57209  0.11873  0.09627  1.0000
  H   H196      1.0  0.67109  0.14133  0.33300  1.0000
  Fe  Fe20      1.0  0.57664  0.20286  0.14107  1.0000
  S   S36       1.0  0.54963  0.26140  0.17249  1.0000
  S   S37       1.0  0.64730  0.11791  0.08539  1.0000
  S   S38       1.0  0.65191  0.20712  0.13250  1.0000
  H   H197      1.0  0.73556  0.13969  0.04774  1.0000
  C   C116      1.0  0.72439  0.07956  0.22463  1.0000
  C   C117      1.0  0.76236  0.07767  0.25145  1.0000
  H   H198      1.0  0.80516  0.21149  0.16088  1.0000
  C   C118      1.0  0.61040  0.10579  0.27356  1.0000
  H   H199      1.0  0.78489  0.10409  0.25372  1.0000
  C   C119      1.0  0.69561  0.04511  0.22211  1.0000
  C   C120      1.0  0.51428  0.26846  0.21645  1.0000
  H   H200      1.0  0.68053  0.28688  0.05396  1.0000
  H   H201      1.0  0.85735  0.11566  0.09260  1.0000
  H   H202      1.0  0.55910  0.25540  0.34339  1.0000
  C   C121      1.0  0.76870  0.19974  0.10128  1.0000
  S   S39       1.0  0.67923  0.20682  0.00978  1.0000
  H   H203      1.0  0.77944  0.25733  0.13755  1.0000
  H   H204      1.0  0.71686  0.22158  0.30201  1.0000
  C   C122      1.0  0.50156  0.04692  0.03375  1.0000
  C   C123      1.0  0.77593  0.22348  0.14272  1.0000
  H   H205      1.0  0.73873  0.21343  0.08513  1.0000
  H   H206      1.0  0.81568  0.13397  0.12923  1.0000
  C   C124      1.0  0.59528  0.14608  0.29559  1.0000
  H   H207      1.0  0.58668  0.13711  0.32827  1.0000
  H   H208      1.0  0.62350  0.11140  0.24179  1.0000
  H   H209      1.0  0.66630  0.04598  0.20164  1.0000
  C   C125      1.0  0.77162  0.04178  0.27536  1.0000
  S   S40       1.0  0.53074  0.06019  0.08083  1.0000
  H   H210      1.0  0.56840  0.25195  0.28858  1.0000
  C   C126      1.0  0.51194  0.30807  0.23475  1.0000
  H   H211      1.0  0.63657  0.08909  0.29204  1.0000
  H   H212      1.0  0.74578  0.21898  0.16270  1.0000
  H   H213      1.0  0.87875  0.18104  0.06973  1.0000
  C   C127      1.0  0.84861  0.14091  0.11467  1.0000
  N   N9        1.0  0.62879  0.18169  0.29524  1.0000
  H   H214      1.0  0.74316  0.17901  0.32755  1.0000
  C   C128      1.0  0.61325  0.21292  0.32711  1.0000
  C   C129      1.0  0.67462  0.16470  0.30749  1.0000
  C   C130      1.0  0.62920  0.19927  0.25149  1.0000
  H   H215      1.0  0.61120  0.19821  0.35861  1.0000
  H   H216      1.0  0.87322  0.14027  0.14113  1.0000
  C   C131      1.0  0.71054  0.19567  0.32374  1.0000
  C   C132      1.0  0.65696  0.23913  0.24406  1.0000
  C   C133      1.0  0.96321  0.02997  0.46809  1.0000
  C   C134      1.0  0.85110  0.18361  0.09294  1.0000
  H   H217      1.0  0.63769  0.23872  0.33123  1.0000
  H   H218      1.0  0.58098  0.08446  0.27038  1.0000
  H   H219      1.0  0.56267  0.15519  0.28057  1.0000
  H   H220      1.0  0.68998  0.14785  0.28078  1.0000
  H   H221      1.0  0.64268  0.17616  0.22922  1.0000
  H   H222      1.0  0.59428  0.20487  0.23939  1.0000
  H   H223      1.0  0.86488  0.20634  0.11602  1.0000
  C   C135      1.0  0.56727  0.23346  0.31777  1.0000
  N   N10       1.0  0.80857  0.19939  0.07213  1.0000
  C   C136      1.0  0.70131  0.28947  0.02638  1.0000
  H   H224      1.0  0.75743  0.16812  0.11007  1.0000
  H   H225      1.0  0.82951  0.26283  0.08570  1.0000
  H   H226      1.0  0.70171  0.20781  0.35509  1.0000
  H   H227      1.0  0.69187  0.23143  0.23419  1.0000
  H   H228      1.0  0.65813  0.26047  0.27100  1.0000
  H   H229      1.0  0.64066  0.25734  0.21858  1.0000
  H   H230      1.0  0.53912  0.21072  0.31613  1.0000
  H   H231      1.0  0.78489  0.25869  0.04870  1.0000
  H   H232      1.0  0.80098  0.04079  0.29576  1.0000
  C   C137      1.0  0.85099  0.25047  0.02317  1.0000
  H   H233      1.0  0.78665  0.11247  0.06217  1.0000
  H   H234      1.0  0.76967  0.11692  0.00866  1.0000
  C   C138      1.0  0.77113  0.13358  0.03905  1.0000
  C   C139      1.0  0.79748  0.17451  0.03327  1.0000
  H   H235      1.0  0.53272  0.33295  0.22265  1.0000
  H   H236      1.0  0.85462  0.28435  0.01746  1.0000
  H   H237      1.0  0.88505  0.23845  0.03102  1.0000
  H   H238      1.0  0.77645  0.19316  0.01121  1.0000
  H   H239      1.0  0.82880  0.16693  0.01581  1.0000
  C   C140      1.0  0.72429  0.32692  0.01760  1.0000
  S   S41       1.0  0.93448  0.30778  0.83272  1.0000
  C   C141      1.0  0.95350  0.32405  0.74914  1.0000
  H   H240      1.0  0.97123  0.16989  0.69425  1.0000
  H   H241      1.0  0.94490  0.22665  0.64948  1.0000
  H   H242      1.0  0.97148  0.33667  0.68504  1.0000
  C   C142      1.0  0.73260  0.25960  0.96374  1.0000
  H   H243      1.0  0.97783  0.21815  0.53171  1.0000
  C   C143      1.0  0.75573  0.29695  0.95509  1.0000
  C   C144      1.0  0.95905  0.29743  0.78335  1.0000
  H   H244      1.0  0.91241  0.16304  0.68462  1.0000
  H   H245      1.0  0.87619  0.13941  0.53224  1.0000
  C   C145      1.0  0.49390  0.07578  0.00186  1.0000
  H   H246      1.0  0.87227  0.23004  0.65958  1.0000
  C   C146      1.0  0.84835  0.21360  0.63856  1.0000
  H   H247      1.0  0.83042  0.23708  0.61919  1.0000
  H   H248      1.0  0.93202  0.12425  0.59008  1.0000
  H   H249      1.0  0.90754  0.25594  0.59162  1.0000
  H   H250      1.0  0.77659  0.29948  0.92756  1.0000
  N   N11       1.0  0.91870  0.18988  0.59738  1.0000
  C   C147      1.0  0.94962  0.19576  0.63471  1.0000
  H   H251      1.0  0.83879  0.23687  0.99324  1.0000
  H   H252      1.0  0.86808  0.14970  0.62588  1.0000
  C   C148      1.0  0.94593  0.16270  0.66938  1.0000
  C   C149      1.0  0.87094  0.18063  0.61057  1.0000
  H   H253      1.0  0.89301  0.22754  0.54619  1.0000
  H   H254      1.0  0.98558  0.19598  0.62487  1.0000
  C   C150      1.0  0.91842  0.22927  0.57203  1.0000
  H   H255      1.0  0.82365  0.19821  0.65953  1.0000
  H   H256      1.0  0.73596  0.23358  0.94265  1.0000
  H   H257      1.0  0.95350  0.13119  0.65752  1.0000
  C   C151      1.0  0.93585  0.15368  0.57224  1.0000
  H   H258      1.0  0.97284  0.15645  0.56659  1.0000
  C   C152      1.0  0.91273  0.14637  0.52938  1.0000
  H   H259      1.0  0.84841  0.17766  0.58271  1.0000
  C   C153      1.0  0.75171  0.33088  0.98200  1.0000
  H   H260      1.0  0.95946  0.27071  0.53427  1.0000
  C   C154      1.0  0.96493  0.02769  0.54428  1.0000
  C   C155      1.0  0.96415  0.24202  0.55302  1.0000
  C   C156      1.0  0.97569  0.31570  0.71121  1.0000
  H   H261      1.0  0.92814  0.11875  0.51450  1.0000
  H   H262      1.0  0.91797  0.17260  0.50753  1.0000
  C   C157      1.0  0.70542  0.25551  0.99947  1.0000
  C   C158      1.0  0.98635  0.26209  0.77891  1.0000
  H   H263      1.0  0.50678  0.10708  0.00515  1.0000
  H   H264      1.0  0.98948  0.24947  0.57766  1.0000
  H   H265      1.0  0.93237  0.35121  0.75197  1.0000
  H   H266      1.0  0.84521  0.66253  0.49965  1.0000
  H   H267      1.0  0.53548  0.53851  0.44115  1.0000
  C   C159      1.0  0.51466  0.53372  0.46839  1.0000
  H   H268      1.0  0.92684  0.56104  0.04522  1.0000
  H   H269      1.0  0.97805  0.51699  0.10928  1.0000
  C   C160      1.0  0.95446  0.55406  0.02443  1.0000
  H   H270      1.0  0.72086  0.35300  0.03860  1.0000
  H   H271      1.0  0.98900  0.53364  0.17548  1.0000
  H   H272      1.0  0.98669  0.46289  0.12288  1.0000
  C   C161      1.0  0.52517  0.55509  0.50582  1.0000
  Fe  Fe21      1.0  0.91057  0.44926  0.89749  1.0000
  S   S42       1.0  0.83550  0.46191  0.90054  1.0000
  S   S43       1.0  0.51034  0.57482  0.58973  1.0000
  S   S44       1.0  0.78025  0.37867  0.97272  1.0000
  S   S45       1.0  0.82046  0.37146  0.85314  1.0000
  Fe  Fe22      1.0  0.83169  0.43831  0.83423  1.0000
  S   S46       1.0  0.78560  0.45846  0.78006  1.0000
  Fe  Fe23      1.0  0.82819  0.39436  0.91901  1.0000
  S   S47       1.0  0.90714  0.43065  0.82923  1.0000
  S   S48       1.0  0.90334  0.38367  0.92057  1.0000
  Fe  Fe24      1.0  0.64408  0.64389  0.66603  1.0000
  S   S49       1.0  0.56839  0.64431  0.67516  1.0000
  S   S50       1.0  0.69370  0.62808  0.71942  1.0000
  H   H273      1.0  0.69503  0.45298  0.80361  1.0000
  S   S51       1.0  0.97360  0.48679  0.91725  1.0000
  Fe  Fe25      1.0  0.56431  0.62331  0.60748  1.0000
  H   H274      1.0  0.61430  0.44689  0.96003  1.0000
  S   S52       1.0  0.64007  0.61899  0.59997  1.0000
  H   H275      1.0  0.61167  0.50460  0.82935  1.0000
  C   C162      1.0  0.76113  0.50626  0.76356  1.0000
  C   C163      1.0  0.73105  0.50608  0.72916  1.0000
  C   C164      1.0  0.71003  0.54289  0.71522  1.0000
  C   C165      1.0  0.71886  0.58048  0.73557  1.0000
  C   C166      1.0  0.74874  0.58060  0.77016  1.0000
  C   C167      1.0  0.76981  0.54380  0.78406  1.0000
  H   H276      1.0  0.72402  0.47726  0.71302  1.0000
  H   H277      1.0  0.68718  0.54223  0.68862  1.0000
  H   H278      1.0  0.75588  0.60951  0.78608  1.0000
  H   H279      1.0  0.79298  0.54460  0.81040  1.0000
  H   H280      1.0  0.62655  0.49153  0.90109  1.0000
  H   H281      1.0  0.68807  0.52678  0.86650  1.0000
  H   H282      1.0  0.74357  0.42687  0.85958  1.0000
  C   C168      1.0  0.94662  0.52801  0.98961  1.0000
  C   C169      1.0  0.63896  0.49501  0.80793  1.0000
  C   C170      1.0  0.66572  0.45739  0.82468  1.0000
  H   H283      1.0  0.73781  0.49892  0.85400  1.0000
  H   H284      1.0  0.61162  0.44158  0.88295  1.0000
  C   C171      1.0  0.70820  0.49905  0.87531  1.0000
  Fe  Fe26      1.0  0.89619  0.36584  0.85262  1.0000
  H   H285      1.0  0.66171  0.52171  0.80143  1.0000
  C   C172      1.0  0.72604  0.50847  0.91967  1.0000
  C   C173      1.0  0.71189  0.42325  0.87780  1.0000
  H   H286      1.0  0.67390  0.45512  0.96005  1.0000
  H   H287      1.0  0.62304  0.48673  0.77743  1.0000
  C   C174      1.0  0.49873  0.54912  0.54144  1.0000
  C   C175      1.0  0.63991  0.45948  0.89758  1.0000
  C   C176      1.0  0.64565  0.44117  0.94206  1.0000
  H   H288      1.0  0.65654  0.37661  0.87642  1.0000
  H   H289      1.0  0.65043  0.40708  0.94138  1.0000
  N   N12       1.0  0.68109  0.45963  0.86986  1.0000
  H   H290      1.0  0.64363  0.42985  0.81931  1.0000
  C   C177      1.0  0.69212  0.38030  0.86651  1.0000
  H   H291      1.0  0.71249  0.35584  0.88226  1.0000
  H   H292      1.0  0.75011  0.53496  0.91795  1.0000
  H   H293      1.0  0.74480  0.48235  0.93394  1.0000
  H   H294      1.0  0.91324  0.51529  0.98381  1.0000
  H   H295      1.0  0.69822  0.51840  0.94039  1.0000
  H   H296      1.0  0.72333  0.42177  0.91086  1.0000
  H   H297      1.0  0.55388  0.57596  0.50723  1.0000
  C   C178      1.0  0.98179  0.51885  0.96218  1.0000
  H   H298      1.0  0.98920  0.38226  0.80653  1.0000
  H   H299      1.0  0.78600  0.66977  0.50690  1.0000
  H   H300      1.0  0.69435  0.37470  0.83230  1.0000
  Fe  Fe27      1.0  0.80875  0.94328  0.34849  1.0000
  S   S53       1.0  0.88335  0.94299  0.33504  1.0000
  S   S54       1.0  0.75274  0.96093  0.30176  1.0000
  Fe  Fe28      1.0  0.82179  0.89789  0.43288  1.0000
  S   S55       1.0  0.89750  0.89559  0.42535  1.0000
  C   C179      1.0  0.87682  0.79293  0.20618  1.0000
  Fe  Fe29      1.0  0.89174  0.96154  0.40321  1.0000
  C   C180      1.0  0.82483  0.86800  0.17017  1.0000
  Fe  Fe30      1.0  0.88347  0.87718  0.35855  1.0000
  S   S56       1.0  0.91182  0.81675  0.33188  1.0000
  S   S57       1.0  0.81680  0.96559  0.41503  1.0000
  S   S58       1.0  0.80802  0.87580  0.36768  1.0000
  H   H301      1.0  0.95292  0.71073  0.40262  1.0000
  C   C181      1.0  0.73247  0.80991  0.46654  1.0000
  C   C182      1.0  0.74287  0.00728  0.27277  1.0000
  H   H302      1.0  0.73482  0.82349  0.43567  1.0000
  H   H303      1.0  0.80544  0.69768  0.43932  1.0000
  C   C183      1.0  0.70484  0.00927  0.24602  1.0000
  C   C184      1.0  0.87991  0.88631  0.22788  1.0000
  C   C185      1.0  0.75701  0.82726  0.49985  1.0000
  H   H304      1.0  0.86978  0.94131  0.18727  1.0000
  H   H305      1.0  0.88095  0.82889  0.48338  1.0000
  H   H306      1.0  0.80791  0.89834  0.16439  1.0000
  C   C186      1.0  0.82761  0.75688  0.38302  1.0000
  H   H307      1.0  0.68233  0.98282  0.24374  1.0000
  N   N13       1.0  0.85763  0.74209  0.45767  1.0000
  C   C187      1.0  0.84474  0.77411  0.42530  1.0000
  H   H308      1.0  0.89555  0.85110  0.15008  1.0000
  H   H309      1.0  0.90990  0.87357  0.21206  1.0000
  H   H310      1.0  0.93303  0.76133  0.40815  1.0000
  C   C188      1.0  0.97514  0.83950  0.27171  1.0000
  H   H311      1.0  0.87245  0.89726  0.12648  1.0000
  H   H312      1.0  0.81809  0.79483  0.43772  1.0000
  C   C189      1.0  0.88012  0.93349  0.21967  1.0000
  H   H313      1.0  0.88738  0.88177  0.26181  1.0000
  H   H314      1.0  0.72724  0.88193  0.25347  1.0000
  C   C190      1.0  0.93774  0.73217  0.42574  1.0000
  H   H315      1.0  0.86755  0.78752  0.17295  1.0000
  C   C191      1.0  0.86421  0.86584  0.13856  1.0000
  H   H316      1.0  0.94460  0.74098  0.29655  1.0000
  N   N14       1.0  0.83686  0.86382  0.21597  1.0000
  C   C192      1.0  0.79946  0.88283  0.24148  1.0000
  H   H317      1.0  0.87862  0.76191  0.22126  1.0000
  H   H318      1.0  0.82183  0.78316  0.36122  1.0000
  H   H319      1.0  0.84737  0.81640  0.26289  1.0000
  C   C193      1.0  0.75276  0.86139  0.23884  1.0000
  H   H320      1.0  0.58315  0.80188  0.49887  1.0000
  H   H321      1.0  0.96940  0.87131  0.28086  1.0000
  C   C194      1.0  0.84078  0.81888  0.22860  1.0000
  H   H322      1.0  0.80915  0.88415  0.27522  1.0000
  H   H323      1.0  0.79346  0.91558  0.23195  1.0000
  H   H324      1.0  0.91497  0.94564  0.22468  1.0000
  H   H325      1.0  0.68617  0.76143  0.44718  1.0000
  C   C195      1.0  0.89353  0.71286  0.44230  1.0000
  H   H326      1.0  0.80858  0.80195  0.22267  1.0000
  H   H327      1.0  0.79953  0.84393  0.16099  1.0000
  S   S59       1.0  0.94202  0.01360  0.41848  1.0000
  H   H328      1.0  0.87295  0.79558  0.41810  1.0000
  H   H329      1.0  0.75228  0.83206  0.25699  1.0000
  H   H330      1.0  0.74157  0.85581  0.20617  1.0000
  C   C196      1.0  0.94748  0.01325  0.50569  1.0000
  C   C197      1.0  0.70480  0.77482  0.47318  1.0000
  H   H331      1.0  0.85304  0.84762  0.11082  1.0000
  H   H332      1.0  0.79468  0.74065  0.38596  1.0000
  C   C198      1.0  0.95271  0.80735  0.29247  1.0000
  H   H333      1.0  0.85289  0.73649  0.36811  1.0000
  S   S60       1.0  0.79261  0.87120  0.49343  1.0000
  H   H334      1.0  0.85819  0.95022  0.24201  1.0000
  H   H335      1.0  0.93097  0.79869  0.47329  1.0000
  H   H336      1.0  0.91120  0.80633  0.20862  1.0000
  C   C199      1.0  0.81574  0.71676  0.46680  1.0000
  C   C200      1.0  0.87227  0.76304  0.49788  1.0000
  H   H337      1.0  0.78671  0.73746  0.47322  1.0000
  H   H338      1.0  0.96254  0.73722  0.45153  1.0000
  C   C201      1.0  0.96159  0.76614  0.28067  1.0000
  H   H339      1.0  0.92175  0.98931  0.50497  1.0000
  H   H340      1.0  0.90418  0.69147  0.46779  1.0000
  H   H341      1.0  0.88003  0.69147  0.41783  1.0000
  C   C202      1.0  0.90173  0.80237  0.49416  1.0000
  H   H342      1.0  0.49055  0.98370  0.05317  1.0000
  C   C203      1.0  0.81887  0.68641  0.50411  1.0000
  H   H343      1.0  0.58431  0.83282  0.84511  1.0000
  C   C204      1.0  0.55663  0.85599  0.84387  1.0000
  S   S61       1.0  0.53127  0.76867  0.66798  1.0000
  H   H344      1.0  0.66202  0.83821  0.52481  1.0000
  C   C205      1.0  0.57100  0.89487  0.86892  1.0000
  H   H345      1.0  0.67663  0.83120  0.60148  1.0000
  C   C206      1.0  0.59903  0.80093  0.56715  1.0000
  C   C207      1.0  0.72538  0.77440  0.54650  1.0000
  C   C208      1.0  0.52589  0.94326  0.82832  1.0000
  H   H346      1.0  0.77165  0.82281  0.56588  1.0000
  H   H347      1.0  0.72310  0.76070  0.57733  1.0000
  H   H348      1.0  0.56864  0.75583  0.52518  1.0000
  N   N15       1.0  0.61181  0.84595  0.57286  1.0000
  H   H349      1.0  0.91502  0.81090  0.52560  1.0000
  C   C209      1.0  0.57074  0.87158  0.58336  1.0000
  H   H350      1.0  0.52633  0.84086  0.85721  1.0000
  H   H351      1.0  0.62991  0.78145  0.56558  1.0000
  H   H352      1.0  0.89088  0.74098  0.51850  1.0000
  H   H353      1.0  0.53952  0.94777  0.96268  1.0000
  S   S62       1.0  0.66717  0.71185  0.51942  1.0000
  H   H354      1.0  0.54644  0.85305  0.60234  1.0000
  H   H355      1.0  0.55793  0.94858  0.81095  1.0000
  H   H356      1.0  0.51959  0.01129  0.83153  1.0000
  C   C210      1.0  0.70121  0.75679  0.51312  1.0000
  S   S63       1.0  0.64608  0.71100  0.64498  1.0000
  H   H357      1.0  0.82434  0.70270  0.53430  1.0000
  H   H358      1.0  0.52921  0.87927  0.94287  1.0000
  H   H359      1.0  0.95226  0.01469  0.57309  1.0000
  C   C211      1.0  0.50701  0.75673  0.75137  1.0000
  C   C212      1.0  0.56954  0.79005  0.52871  1.0000
  H   H360      1.0  0.60206  0.90763  0.85406  1.0000
  H   H361      1.0  0.65535  0.88080  0.61533  1.0000
  C   C213      1.0  0.75296  0.80952  0.53987  1.0000
  H   H362      1.0  0.58017  0.89839  0.60366  1.0000
  H   H363      1.0  0.58012  0.78905  0.59453  1.0000
  H   H364      1.0  0.62474  0.79729  0.65096  1.0000
  C   C214      1.0  0.50356  0.78144  0.71551  1.0000
  Fe  Fe31      1.0  0.57014  0.70961  0.65032  1.0000
  C   C215      1.0  0.56873  0.95586  0.94277  1.0000
  C   C216      1.0  0.64497  0.84820  0.60903  1.0000
  C   C217      1.0  0.62786  0.83147  0.65128  1.0000
  H   H365      1.0  0.53404  0.79976  0.53334  1.0000
  H   H366      1.0  0.53363  0.86704  0.52274  1.0000
  H   H367      1.0  0.58297  0.88371  0.89973  1.0000
  C   C218      1.0  0.63590  0.86094  0.53423  1.0000
  H   H368      1.0  0.59510  0.84522  0.66046  1.0000
  C   C219      1.0  0.55398  0.96436  0.89727  1.0000
  H   H369      1.0  0.51220  0.90425  0.55854  1.0000
  H   H370      1.0  0.59567  0.93226  0.94546  1.0000
  C   C220      1.0  0.54377  0.89028  0.54639  1.0000
  H   H371      1.0  0.55040  0.86284  0.81031  1.0000
  H   H372      1.0  0.69258  0.90035  0.55496  1.0000
  H   H373      1.0  0.65289  0.83912  0.67622  1.0000
  N   N16       1.0  0.53551  0.92819  0.87238  1.0000
  H   H374      1.0  0.52823  0.98936  0.89983  1.0000
  H   H375      1.0  0.63849  0.92673  0.55385  1.0000
  H   H376      1.0  0.52665  0.72851  0.75050  1.0000
  H   H377      1.0  0.58293  0.98499  0.95618  1.0000
  H   H378      1.0  0.61285  0.86288  0.50680  1.0000
  C   C221      1.0  0.65978  0.90340  0.53802  1.0000
  H   H379      1.0  0.56289  0.91556  0.53091  1.0000
  S   S64       1.0  0.56057  0.68860  0.58362  1.0000
  H   H380      1.0  0.58349  0.97835  0.88093  1.0000
  H   H381      1.0  0.84213  0.77307  0.51603  1.0000
  C   C222      1.0  0.49514  0.88351  0.92937  1.0000
  C   C223      1.0  0.49185  0.91250  0.89076  1.0000
  C   C224      1.0  0.49842  0.98367  0.82423  1.0000
  H   H382      1.0  0.50689  0.91938  0.81000  1.0000
  Fe  Fe32      1.0  0.63649  0.68631  0.57996  1.0000
  H   H383      1.0  0.66790  0.91514  0.50625  1.0000
  H   H384      1.0  0.98941  0.96972  0.63480  1.0000
