data_image0
_chemical_formula_structural       FeSHFeS2FeSFeCS4C6H5CH5CH2CH6CH2CH4CHCH3NH3SHCHCNH3CH3SH3C4FeHCN2H2CH3C2H6SHCFeCH2C3HCHCHC2H2CSCH2FeSHFeH2FeSFeHS2HSC6H4C2HSH3CH2C2H2FeCH8SH2NCHCH3C3H2C2H3NH4CH2CHSH2CSH4C2H2CFeH3CH2CFeSHFeHSFeSFeHS2H2C7H3NCHCH3CH4CSCNC4HC2HCH7CH2CH7CSH6CH4SCH3CH8C3HCH3FeH2Fe2CFeSHFeS2NS2CHC6H4SCSC3H3CSHFeH3C2H3FeCNSH2CH5C2HNC7H7C2H6CNSCSH3CH2CH3SHCH4CH4CH2CHFeSHFeS2FeSFeCS2CHFeS2FeH2SC2H8C7H4CH2NHNCHCH3C2H4CH3CSH2C2HC2H8CHCH2CH4C2H2C2H3CHC3HCHCH9CS2HFeS2FeS2FeHFeHS2H2FeS2FeHNSHCH6CH2C6H2CHC3HCH2CH3CH3CHC2HCSHCH6CH5C3H2CH7NHSCHSH2C2H2CH2CHCH2NCHSCH2FeS2FeS2FeHFeCS2HSFeS2FeSHSCH2C2H6C6HNH2C4H3SH5CHSCHNHNHFeCH4CHC2H7CH4C2HCSC3H2CH2C2H3CH3CH2NH5CH2C2HCH3CH5CH2CH2FeS2FeS2FeSFeHS2HCFeS2FeCHSCH5CH4C7SCHC2H3CHSHCH2NCH3NHC2H4CHCH2C2H4CH4C5H3CH5CH3CH5C3H4CNH4C2H3CH2CH3CH3C2FeSCFeS2FeSFeHS2H3CH3C4H3C2HC3HCH2CHCH3C2NHCHCH4CSHC2H2SH3C2HNC4HC2H9CH3CH2C2H3C2HSH5SHC2HC3HCHSC3FeSCFeS2FeSFeS3HC2H3NHC2HCH4C5H7C2H4CHCH2CH2CNCH3C2H4C2H3C2H3CHCH6CHCH2C2H2C3HCH5CHC2H3CHC5H7CHFeSHFeS2FeSFeS3HCH3C2HC2H4C7H6CH2CH2CHCHCH7CH11CHCNC3H3C3HC2H2C2H3CHCHNH2C2SH3C2NH2C7H2C2H2CH5FeSCFeS2FeSFeHS2CHSNC6HCH4C5H5CH2CHCH2CSCH3CH6CHCH2C2H3C2HC4HCHCH2CH9CH2SH2CH4S
_chemical_formula_sum              "Fe64 S128 H768 C448 N32"
_cell_length_a       34.7254
_cell_length_b       32.0041
_cell_length_c       31.5479
_cell_angle_alpha    90.0761
_cell_angle_beta     89.7465
_cell_angle_gamma    89.9622

_space_group_name_H-M_alt    "P 1"
_space_group_IT_number       1

loop_
  _space_group_symop_operation_xyz
  'x, y, z'

loop_
  _atom_site_type_symbol
  _atom_site_label
  _atom_site_symmetry_multiplicity
  _atom_site_fract_x
  _atom_site_fract_y
  _atom_site_fract_z
  _atom_site_occupancy
  Fe  Fe1       1.0  0.02714  0.13551  0.18812  1.0000
  S   S1        1.0  0.02856  0.16404  0.12326  1.0000
  H   H1        1.0  0.19172  0.34632  0.10453  1.0000
  Fe  Fe2       1.0  0.09090  0.07198  0.16319  1.0000
  S   S2        1.0  0.09653  0.09688  0.09688  1.0000
  S   S3        1.0  0.12466  0.01619  0.18731  1.0000
  Fe  Fe3       1.0  0.09349  0.16033  0.12838  1.0000
  S   S4        1.0  0.13164  0.21856  0.12520  1.0000
  Fe  Fe4       1.0  0.03131  0.09750  0.09834  1.0000
  C   C1        1.0  0.16362  0.42080  0.13438  1.0000
  S   S5        1.0  0.09157  0.13472  0.19485  1.0000
  S   S6        1.0  0.02620  0.06936  0.16313  1.0000
  S   S7        1.0  0.29816  0.45853  0.12412  1.0000
  S   S8        1.0  0.28592  0.26663  0.02728  1.0000
  C   C2        1.0  0.17697  0.22594  0.10013  1.0000
  C   C3        1.0  0.20315  0.25409  0.11842  1.0000
  C   C4        1.0  0.23664  0.26654  0.09661  1.0000
  C   C5        1.0  0.24461  0.25060  0.05625  1.0000
  C   C6        1.0  0.21944  0.22087  0.03870  1.0000
  C   C7        1.0  0.18570  0.20861  0.06049  1.0000
  H   H2        1.0  0.19737  0.26661  0.14962  1.0000
  H   H3        1.0  0.25604  0.28881  0.11089  1.0000
  H   H4        1.0  0.05648  0.02022  0.25012  1.0000
  H   H5        1.0  0.16571  0.18709  0.04588  1.0000
  H   H6        1.0  0.17500  0.44880  0.11768  1.0000
  C   C8        1.0  0.19010  0.04305  0.14569  1.0000
  H   H7        1.0  0.20449  0.12432  0.45656  1.0000
  H   H8        1.0  0.23716  0.16673  0.46366  1.0000
  H   H9        1.0  0.03938  0.09010  0.27355  1.0000
  H   H10       1.0  0.22377  0.39919  0.13892  1.0000
  H   H11       1.0  0.17298  0.06908  0.13469  1.0000
  C   C9        1.0  0.06886  0.02931  0.35783  1.0000
  H   H12       1.0  0.25774  0.44759  0.04406  1.0000
  H   H13       1.0  0.28433  0.12582  0.07192  1.0000
  C   C10       1.0  0.15846  0.33145  0.05020  1.0000
  H   H14       1.0  0.06487  0.27392  0.36793  1.0000
  H   H15       1.0  0.10805  0.08172  0.37900  1.0000
  H   H16       1.0  0.03042  0.14633  0.32465  1.0000
  H   H17       1.0  0.31032  0.22226  0.16544  1.0000
  H   H18       1.0  0.30725  0.17195  0.01442  1.0000
  H   H19       1.0  0.12834  0.35006  0.19048  1.0000
  C   C11       1.0  0.23349  0.13266  0.46871  1.0000
  H   H20       1.0  0.25805  0.18750  0.15338  1.0000
  H   H21       1.0  0.07126  0.43808  0.10030  1.0000
  C   C12       1.0  0.04222  0.08197  0.30775  1.0000
  H   H22       1.0  0.24160  0.06370  0.11380  1.0000
  H   H23       1.0  0.03899  0.02873  0.37061  1.0000
  H   H24       1.0  0.24209  0.14528  0.18597  1.0000
  H   H25       1.0  0.06465  0.31841  0.40175  1.0000
  C   C13       1.0  0.25724  0.15310  0.15592  1.0000
  H   H26       1.0  0.11092  0.47448  0.10664  1.0000
  C   C14       1.0  0.29760  0.13250  0.15596  1.0000
  H   H27       1.0  0.13929  0.30852  0.06612  1.0000
  H   H28       1.0  0.22552  0.20804  0.00764  1.0000
  H   H29       1.0  0.23918  0.14062  0.12983  1.0000
  N   N1        1.0  0.14446  0.39142  0.10331  1.0000
  H   H30       1.0  0.09263  0.38720  0.14136  1.0000
  H   H31       1.0  0.16777  0.03537  0.29059  1.0000
  H   H32       1.0  0.10720  0.06647  0.26299  1.0000
  S   S9        1.0  0.32170  0.38491  0.02424  1.0000
  H   H33       1.0  0.18307  0.31335  0.03698  1.0000
  C   C15       1.0  0.22910  0.04007  0.13405  1.0000
  H   H34       1.0  0.28291  0.17960  0.08473  1.0000
  C   C16       1.0  0.05547  0.28511  0.39986  1.0000
  N   N2        1.0  0.06895  0.04514  0.31276  1.0000
  H   H35       1.0  0.19545  0.38401  0.06425  1.0000
  H   H36       1.0  0.25477  0.11501  0.44948  1.0000
  H   H37       1.0  0.14234  0.43308  0.15781  1.0000
  C   C17       1.0  0.12632  0.33487  0.15889  1.0000
  H   H38       1.0  0.14779  0.43381  0.04977  1.0000
  H   H39       1.0  0.15383  0.31954  0.15126  1.0000
  H   H40       1.0  0.33344  0.08047  0.09764  1.0000
  S   S10       1.0  0.01056  0.12728  0.44634  1.0000
  H   H41       1.0  0.31701  0.23348  0.10936  1.0000
  H   H42       1.0  0.19170  0.37479  0.17705  1.0000
  H   H43       1.0  0.14371  0.34579  0.02279  1.0000
  C   C18       1.0  0.25709  0.48273  0.10221  1.0000
  C   C19       1.0  0.24317  0.47150  0.06231  1.0000
  C   C20       1.0  0.11339  0.36623  0.12487  1.0000
  C   C21       1.0  0.17417  0.36421  0.08161  1.0000
  Fe  Fe5       1.0  0.32427  0.31949  0.05064  1.0000
  H   H44       1.0  0.01529  0.22584  0.44456  1.0000
  C   C22       1.0  0.12559  0.41761  0.06938  1.0000
  N   N3        1.0  0.01225  0.28147  0.40463  1.0000
  N   N4        1.0  0.32504  0.14383  0.12028  1.0000
  H   H45       1.0  0.12043  0.08442  0.31310  1.0000
  H   H46       1.0  0.31086  0.13888  0.18740  1.0000
  C   C23       1.0  0.21012  0.49107  0.04606  1.0000
  H   H47       1.0  0.09512  0.34932  0.10152  1.0000
  H   H48       1.0  0.20683  0.42769  0.18361  1.0000
  H   H49       1.0  0.10519  0.30882  0.16072  1.0000
  C   C24       1.0  0.25197  0.00681  0.14834  1.0000
  C   C25       1.0  0.30294  0.15299  0.08026  1.0000
  H   H50       1.0  0.29154  0.09832  0.15597  1.0000
  H   H51       1.0  0.07590  0.06246  0.41813  1.0000
  H   H52       1.0  0.08699  0.46974  0.05723  1.0000
  H   H53       1.0  0.01169  0.21531  0.39008  1.0000
  H   H54       1.0  0.10894  0.39784  0.04701  1.0000
  H   H55       1.0  0.07900  0.22647  0.42589  1.0000
  S   S11       1.0  0.32842  0.33942  0.11873  1.0000
  H   H56       1.0  0.01273  0.07419  0.31906  1.0000
  C   C26       1.0  0.05287  0.12250  0.33131  1.0000
  Fe  Fe6       1.0  0.33003  0.40477  0.09199  1.0000
  C   C27       1.0  0.09394  0.05305  0.39055  1.0000
  H   H57       1.0  0.03615  0.33896  0.33881  1.0000
  H   H58       1.0  0.19930  0.48183  0.01532  1.0000
  C   C28       1.0  0.19822  0.40394  0.15974  1.0000
  C   C29       1.0  0.10858  0.05671  0.29685  1.0000
  C   C30       1.0  0.13946  0.02216  0.30020  1.0000
  H   H59       1.0  0.08045  0.13609  0.32029  1.0000
  C   C31       1.0  0.17355  0.01275  0.17186  1.0000
  H   H60       1.0  0.11118  0.26975  0.42701  1.0000
  C   C32       1.0  0.09720  0.45159  0.08504  1.0000
  H   H61       1.0  0.05261  0.11826  0.36607  1.0000
  C   C33       1.0  0.08055  0.26069  0.43158  1.0000
  C   C34       1.0  0.05430  0.01074  0.28409  1.0000
  H   H62       1.0  0.14244  0.01014  0.33292  1.0000
  H   H63       1.0  0.00796  0.34454  0.42929  1.0000
  C   C35       1.0  0.33105  0.22247  0.13874  1.0000
  S   S12       1.0  0.30177  0.00744  0.13656  1.0000
  C   C36       1.0  0.32716  0.16368  0.04061  1.0000
  H   H64       1.0  0.07321  0.26750  0.46495  1.0000
  H   H65       1.0  0.11655  0.03207  0.40340  1.0000
  Fe  Fe7       1.0  0.06029  0.16715  0.59499  1.0000
  S   S13       1.0  0.05272  0.20414  0.53545  1.0000
  H   H66       1.0  0.01456  0.49306  0.70743  1.0000
  Fe  Fe8       1.0  0.11867  0.10659  0.55224  1.0000
  H   H67       1.0  0.21142  0.13860  0.53187  1.0000
  H   H68       1.0  0.04384  0.45676  0.80671  1.0000
  Fe  Fe9       1.0  0.11734  0.20034  0.53121  1.0000
  S   S14       1.0  0.15131  0.25859  0.51335  1.0000
  Fe  Fe10      1.0  0.05104  0.14179  0.50168  1.0000
  H   H69       1.0  0.33308  0.11156  0.53406  1.0000
  S   S15       1.0  0.12552  0.16510  0.59188  1.0000
  S   S16       1.0  0.05413  0.10451  0.56166  1.0000
  H   H70       1.0  0.09099  0.24811  0.64460  1.0000
  S   S17       1.0  0.30123  0.31236  0.61529  1.0000
  C   C37       1.0  0.19241  0.27424  0.54237  1.0000
  C   C38       1.0  0.21238  0.31073  0.53078  1.0000
  C   C39       1.0  0.24534  0.32362  0.55328  1.0000
  C   C40       1.0  0.25874  0.29978  0.58730  1.0000
  C   C41       1.0  0.23837  0.26373  0.59922  1.0000
  C   C42       1.0  0.20523  0.25121  0.57710  1.0000
  H   H71       1.0  0.14060  0.26018  0.63979  1.0000
  H   H72       1.0  0.26082  0.35144  0.54377  1.0000
  H   H73       1.0  0.24834  0.24539  0.62579  1.0000
  H   H74       1.0  0.18981  0.22353  0.58672  1.0000
  C   C43       1.0  0.11525  0.38954  0.66568  1.0000
  C   C44       1.0  0.30104  0.05983  0.50956  1.0000
  H   H75       1.0  0.08671  0.35161  0.54080  1.0000
  S   S18       1.0  0.15501  0.04856  0.53777  1.0000
  H   H76       1.0  0.20252  0.32895  0.50406  1.0000
  H   H77       1.0  0.29917  0.04277  0.54007  1.0000
  H   H78       1.0  0.18633  0.04693  0.62438  1.0000
  C   C45       1.0  0.19325  0.02078  0.56196  1.0000
  H   H79       1.0  0.25127  0.46064  0.63979  1.0000
  H   H80       1.0  0.18019  0.46569  0.63232  1.0000
  C   C46       1.0  0.20282  0.02572  0.60467  1.0000
  C   C47       1.0  0.16822  0.34049  0.65297  1.0000
  H   H81       1.0  0.12683  0.41803  0.64984  1.0000
  H   H82       1.0  0.06257  0.34328  0.58894  1.0000
  Fe  Fe11      1.0  0.33915  0.46226  0.64728  1.0000
  C   C48       1.0  0.23888  0.13488  0.61052  1.0000
  H   H83       1.0  0.05476  0.39544  0.64331  1.0000
  H   H84       1.0  0.07171  0.31972  0.65138  1.0000
  H   H85       1.0  0.01131  0.47498  0.96058  1.0000
  H   H86       1.0  0.02087  0.04610  0.48778  1.0000
  H   H87       1.0  0.07604  0.39595  0.57410  1.0000
  H   H88       1.0  0.19912  0.38816  0.61486  1.0000
  H   H89       1.0  0.17937  0.31435  0.63329  1.0000
  H   H90       1.0  0.14138  0.38664  0.58572  1.0000
  S   S19       1.0  0.11493  0.14252  0.49104  1.0000
  H   H91       1.0  0.17024  0.32965  0.68647  1.0000
  H   H92       1.0  0.05960  0.37465  0.69625  1.0000
  N   N5        1.0  0.27310  0.12980  0.53767  1.0000
  C   C49       1.0  0.27031  0.11432  0.58266  1.0000
  H   H93       1.0  0.33733  0.29679  0.90733  1.0000
  C   C50       1.0  0.10283  0.31387  0.65549  1.0000
  H   H94       1.0  0.02025  0.26554  0.60776  1.0000
  H   H95       1.0  0.22694  0.36390  0.65509  1.0000
  H   H96       1.0  0.03515  0.31984  0.49164  1.0000
  C   C51       1.0  0.11139  0.27215  0.63278  1.0000
  C   C52       1.0  0.28097  0.17614  0.53589  1.0000
  C   C53       1.0  0.07173  0.39697  0.67277  1.0000
  H   H97       1.0  0.26360  0.08040  0.58316  1.0000
  H   H98       1.0  0.19221  0.40207  0.67036  1.0000
  C   C54       1.0  0.19774  0.37617  0.64776  1.0000
  C   C55       1.0  0.12533  0.35782  0.59440  1.0000
  H   H99       1.0  0.03546  0.46277  0.86207  1.0000
  H   H100      1.0  0.12804  0.38945  0.69805  1.0000
  H   H101      1.0  0.21076  0.11885  0.60650  1.0000
  N   N6        1.0  0.12699  0.35061  0.64161  1.0000
  H   H102      1.0  0.29844  0.11613  0.59939  1.0000
  H   H103      1.0  0.10716  0.27436  0.59803  1.0000
  H   H104      1.0  0.14093  0.33293  0.57665  1.0000
  H   H105      1.0  0.10607  0.30852  0.69021  1.0000
  C   C56       1.0  0.23652  0.48934  0.64801  1.0000
  H   H106      1.0  0.25442  0.19453  0.54215  1.0000
  H   H107      1.0  0.30376  0.19005  0.59968  1.0000
  C   C57       1.0  0.08521  0.36269  0.57417  1.0000
  H   H108      1.0  0.06747  0.42879  0.68616  1.0000
  S   S20       1.0  0.02780  0.18669  0.65532  1.0000
  H   H109      1.0  0.31203  0.12122  0.48420  1.0000
  H   H110      1.0  0.23488  0.16839  0.60371  1.0000
  C   C58       1.0  0.30595  0.10741  0.51590  1.0000
  S   S21       1.0  0.32905  0.43446  0.58292  1.0000
  H   H111      1.0  0.27588  0.05199  0.48957  1.0000
  H   H112      1.0  0.22723  0.08780  0.51923  1.0000
  H   H113      1.0  0.24752  0.13328  0.64434  1.0000
  H   H114      1.0  0.24057  0.00633  0.65525  1.0000
  C   C59       1.0  0.23532  0.12118  0.51608  1.0000
  C   C60       1.0  0.23350  0.00258  0.62208  1.0000
  H   H115      1.0  0.34040  0.17621  0.56098  1.0000
  H   H116      1.0  0.01493  0.50026  0.54951  1.0000
  C   C61       1.0  0.31255  0.19243  0.56592  1.0000
  Fe  Fe12      1.0  0.33673  0.37234  0.61551  1.0000
  H   H117      1.0  0.31739  0.22621  0.55958  1.0000
  H   H118      1.0  0.28971  0.18572  0.50332  1.0000
  H   H119      1.0  0.07200  0.49453  0.75193  1.0000
  C   C62       1.0  0.19624  0.49210  0.64405  1.0000
  H   H120      1.0  0.08201  0.47443  0.84131  1.0000
  H   H121      1.0  0.32688  0.04744  0.49283  1.0000
  C   C63       1.0  0.05083  0.47655  0.83447  1.0000
  Fe  Fe13      1.0  0.06033  0.66889  0.09701  1.0000
  S   S22       1.0  0.05723  0.70505  0.03652  1.0000
  H   H122      1.0  0.30396  0.65755  0.00685  1.0000
  Fe  Fe14      1.0  0.11713  0.60486  0.05745  1.0000
  H   H123      1.0  0.00864  0.76787  0.00221  1.0000
  S   S23       1.0  0.14697  0.54184  0.04931  1.0000
  Fe  Fe15      1.0  0.12165  0.69736  0.03498  1.0000
  S   S24       1.0  0.15833  0.75378  0.01707  1.0000
  Fe  Fe16      1.0  0.05320  0.64251  0.00351  1.0000
  H   H124      1.0  0.02403  0.72878  0.44954  1.0000
  S   S25       1.0  0.12544  0.66321  0.09707  1.0000
  S   S26       1.0  0.05244  0.60655  0.06421  1.0000
  H   H125      1.0  0.29931  0.80630  0.38484  1.0000
  H   H126      1.0  0.33224  0.81855  0.24812  1.0000
  C   C64       1.0  0.20177  0.76729  0.04299  1.0000
  C   C65       1.0  0.22425  0.80036  0.02716  1.0000
  C   C66       1.0  0.25968  0.81086  0.04610  1.0000
  C   C67       1.0  0.27312  0.78797  0.08078  1.0000
  C   C68       1.0  0.25017  0.75559  0.09718  1.0000
  C   C69       1.0  0.21443  0.74568  0.07876  1.0000
  C   C70       1.0  0.23529  0.97596  0.17388  1.0000
  H   H127      1.0  0.24269  0.66492  0.08582  1.0000
  H   H128      1.0  0.26013  0.73809  0.12429  1.0000
  H   H129      1.0  0.19683  0.72105  0.09196  1.0000
  N   N7        1.0  0.28681  0.62265  0.06267  1.0000
  C   C71       1.0  0.20469  0.53353  0.10925  1.0000
  H   H130      1.0  0.27720  0.83565  0.03294  1.0000
  C   C72       1.0  0.28761  0.58359  0.03582  1.0000
  H   H131      1.0  0.24813  0.52230  0.15672  1.0000
  H   H132      1.0  0.26752  0.55986  0.04915  1.0000
  H   H133      1.0  0.18941  0.55660  0.12797  1.0000
  C   C73       1.0  0.10524  0.96972  0.07784  1.0000
  H   H134      1.0  0.25278  0.95042  0.18539  1.0000
  H   H135      1.0  0.18368  0.95562  0.20628  1.0000
  H   H136      1.0  0.04184  0.87418  0.47812  1.0000
  H   H137      1.0  0.27721  0.59014  0.00320  1.0000
  C   C74       1.0  0.19072  0.52210  0.06940  1.0000
  S   S27       1.0  0.11734  0.63911  0.99520  1.0000
  C   C75       1.0  0.08049  0.89327  0.15307  1.0000
  N   N8        1.0  0.13371  0.89681  0.09459  1.0000
  C   C76       1.0  0.17465  0.91214  0.08925  1.0000
  C   C77       1.0  0.10875  0.92304  0.06592  1.0000
  C   C78       1.0  0.13271  0.85146  0.08101  1.0000
  C   C79       1.0  0.12286  0.90132  0.14070  1.0000
  H   H138      1.0  0.31781  0.85846  0.39246  1.0000
  C   C80       1.0  0.20600  0.88705  0.11281  1.0000
  C   C81       1.0  0.09337  0.83319  0.06809  1.0000
  H   H139      1.0  0.32495  0.83833  0.32062  1.0000
  C   C82       1.0  0.01465  0.77390  0.14554  1.0000
  H   H140      1.0  0.17773  0.94492  0.10046  1.0000
  H   H141      1.0  0.07881  0.91124  0.06427  1.0000
  H   H142      1.0  0.11952  0.92118  0.03261  1.0000
  H   H143      1.0  0.01110  0.99107  0.07227  1.0000
  H   H144      1.0  0.14424  0.83085  0.10642  1.0000
  H   H145      1.0  0.14008  0.87954  0.16049  1.0000
  H   H146      1.0  0.29762  0.68857  0.05297  1.0000
  C   C83       1.0  0.23776  0.51384  0.12557  1.0000
  H   H147      1.0  0.20271  0.88929  0.14769  1.0000
  H   H148      1.0  0.05949  0.90234  0.12857  1.0000
  C   C84       1.0  0.30885  0.65777  0.04172  1.0000
  H   H149      1.0  0.08579  0.98536  0.05489  1.0000
  H   H150      1.0  0.31592  0.64046  0.16745  1.0000
  H   H151      1.0  0.07049  0.83898  0.09171  1.0000
  H   H152      1.0  0.22836  0.61196  0.08508  1.0000
  H   H153      1.0  0.15189  0.84625  0.05301  1.0000
  H   H154      1.0  0.09218  0.97409  0.10968  1.0000
  H   H155      1.0  0.20693  0.85379  0.10307  1.0000
  C   C85       1.0  0.24515  0.63571  0.06708  1.0000
  S   S28       1.0  0.31977  0.79582  0.10189  1.0000
  H   H156      1.0  0.09614  0.79873  0.06482  1.0000
  H   H157      1.0  0.23875  0.66578  0.00411  1.0000
  H   H158      1.0  0.21641  0.61442  0.00860  1.0000
  H   H159      1.0  0.13093  0.93262  0.15308  1.0000
  H   H160      1.0  0.13312  0.98646  0.07613  1.0000
  H   H161      1.0  0.33977  0.55170  0.06033  1.0000
  C   C86       1.0  0.19622  0.97909  0.18581  1.0000
  H   H162      1.0  0.18302  0.91245  0.05506  1.0000
  H   H163      1.0  0.23467  0.90052  0.10495  1.0000
  H   H164      1.0  0.07607  0.86000  0.16184  1.0000
  H   H165      1.0  0.21460  0.81743  0.99959  1.0000
  S   S29       1.0  0.02160  0.68724  0.15305  1.0000
  C   C87       1.0  0.30109  0.61263  0.10662  1.0000
  H   H166      1.0  0.28456  0.58593  0.12019  1.0000
  H   H167      1.0  0.08437  0.84512  0.03662  1.0000
  H   H168      1.0  0.26882  0.65399  0.15000  1.0000
  C   C88       1.0  0.22327  0.64396  0.02544  1.0000
  H   H169      1.0  0.01028  0.79840  0.44149  1.0000
  H   H170      1.0  0.31070  0.67842  0.12626  1.0000
  H   H171      1.0  0.03536  0.77164  0.11997  1.0000
  H   H172      1.0  0.07295  0.91294  0.18097  1.0000
  H   H173      1.0  0.32994  0.78332  0.31823  1.0000
  H   H174      1.0  0.13382  0.99587  0.27819  1.0000
  H   H175      1.0  0.32231  0.53264  0.01136  1.0000
  H   H176      1.0  0.31583  0.82259  0.43564  1.0000
  C   C89       1.0  0.29885  0.64881  0.13897  1.0000
  C   C90       1.0  0.01240  0.99624  0.29168  1.0000
  C   C91       1.0  0.32159  0.82529  0.40107  1.0000
  H   H177      1.0  0.19527  0.65895  0.03318  1.0000
  C   C92       1.0  0.32681  0.56175  0.02996  1.0000
  H   H178      1.0  0.00770  0.84646  0.01800  1.0000
  H   H179      1.0  0.07836  0.99605  0.35873  1.0000
  H   H180      1.0  0.03268  0.54625  0.98077  1.0000
  Fe  Fe17      1.0  0.34006  0.95013  0.13135  1.0000
  H   H181      1.0  0.33127  0.60160  0.10656  1.0000
  H   H182      1.0  0.07226  0.98213  0.28707  1.0000
  Fe  Fe18      1.0  0.02864  0.64877  0.66988  1.0000
  Fe  Fe19      1.0  0.02136  0.60484  0.58249  1.0000
  C   C93       1.0  0.12139  0.58043  0.77336  1.0000
  Fe  Fe20      1.0  0.09034  0.58605  0.63872  1.0000
  S   S30       1.0  0.08535  0.60642  0.57067  1.0000
  H   H183      1.0  0.06901  0.73221  0.47888  1.0000
  Fe  Fe21      1.0  0.08429  0.67147  0.59818  1.0000
  S   S31       1.0  0.11311  0.72910  0.56949  1.0000
  S   S32       1.0  0.01938  0.67236  0.60388  1.0000
  N   N9        1.0  0.05630  0.54620  0.79335  1.0000
  S   S33       1.0  0.09361  0.65116  0.66570  1.0000
  S   S34       1.0  0.02622  0.58124  0.64914  1.0000
  C   C94       1.0  0.05353  0.52298  0.75184  1.0000
  H   H184      1.0  0.20195  0.86078  0.56289  1.0000
  C   C95       1.0  0.16374  0.73336  0.56346  1.0000
  C   C96       1.0  0.17899  0.76777  0.54140  1.0000
  C   C97       1.0  0.21907  0.77265  0.53640  1.0000
  C   C98       1.0  0.24433  0.74314  0.55350  1.0000
  C   C99       1.0  0.22910  0.70876  0.57561  1.0000
  C   C100      1.0  0.18899  0.70392  0.58072  1.0000
  H   H185      1.0  0.15969  0.79052  0.52768  1.0000
  H   H186      1.0  0.23044  0.79879  0.51861  1.0000
  H   H187      1.0  0.24838  0.68580  0.58898  1.0000
  H   H188      1.0  0.17762  0.67733  0.59785  1.0000
  S   S35       1.0  0.29188  0.94450  0.62087  1.0000
  C   C101      1.0  0.19756  0.56345  0.66910  1.0000
  S   S36       1.0  0.30782  0.51991  0.67148  1.0000
  C   C102      1.0  0.03613  0.58767  0.78886  1.0000
  C   C103      1.0  0.24522  0.96944  0.55437  1.0000
  C   C104      1.0  0.03800  0.72407  0.48069  1.0000
  H   H189      1.0  0.18267  0.59190  0.67786  1.0000
  H   H190      1.0  0.25385  0.58708  0.68547  1.0000
  H   H191      1.0  0.26122  0.94768  0.53481  1.0000
  C   C105      1.0  0.05529  0.86095  0.50697  1.0000
  S   S37       1.0  0.00960  0.62905  0.95083  1.0000
  H   H192      1.0  0.20634  0.93493  0.69418  1.0000
  Fe  Fe22      1.0  0.32756  0.80728  0.55264  1.0000
  H   H193      1.0  0.11361  0.52163  0.80389  1.0000
  H   H194      1.0  0.10172  0.56468  0.83660  1.0000
  H   H195      1.0  0.33945  0.61050  0.65519  1.0000
  C   C106      1.0  0.23788  0.56057  0.67357  1.0000
  C   C107      1.0  0.03727  0.52215  0.82878  1.0000
  H   H196      1.0  0.14989  0.86640  0.56691  1.0000
  H   H197      1.0  0.10980  0.61264  0.77164  1.0000
  H   H198      1.0  0.23939  0.58525  0.56125  1.0000
  Fe  Fe23      1.0  0.32926  0.89549  0.58774  1.0000
  C   C108      1.0  0.17807  0.88073  0.57461  1.0000
  N   N10       1.0  0.01272  0.79441  0.51049  1.0000
  S   S38       1.0  0.29465  0.74636  0.54454  1.0000
  H   H199      1.0  0.27074  0.57781  0.51701  1.0000
  H   H200      1.0  0.12320  0.56701  0.74102  1.0000
  C   C109      1.0  0.25481  0.97432  0.59705  1.0000
  H   H201      1.0  0.21860  0.80874  0.61328  1.0000
  H   H202      1.0  0.24570  0.85324  0.62708  1.0000
  H   H203      1.0  0.15144  0.58300  0.78502  1.0000
  H   H204      1.0  0.04580  0.60404  0.75959  1.0000
  H   H205      1.0  0.24517  0.89765  0.69102  1.0000
  C   C110      1.0  0.09827  0.55213  0.80388  1.0000
  C   C111      1.0  0.29976  0.58827  0.57857  1.0000
  H   H206      1.0  0.17940  0.91052  0.55663  1.0000
  N   N11       1.0  0.18682  0.85330  0.65133  1.0000
  C   C112      1.0  0.18182  0.89047  0.62236  1.0000
  C   C113      1.0  0.18686  0.86947  0.69626  1.0000
  C   C114      1.0  0.15230  0.82527  0.64524  1.0000
  C   C115      1.0  0.22376  0.83097  0.63965  1.0000
  C   C116      1.0  0.21667  0.90409  0.70564  1.0000
  C   C117      1.0  0.15081  0.78502  0.67181  1.0000
  C   C118      1.0  0.24418  0.80611  0.67501  1.0000
  H   H207      1.0  0.15617  0.90933  0.63191  1.0000
  H   H208      1.0  0.20687  0.91188  0.62483  1.0000
  H   H209      1.0  0.19185  0.84405  0.71946  1.0000
  H   H210      1.0  0.15800  0.88238  0.70479  1.0000
  H   H211      1.0  0.12517  0.84293  0.65157  1.0000
  H   H212      1.0  0.15034  0.81424  0.61195  1.0000
  H   H213      1.0  0.22077  0.90695  0.74043  1.0000
  C   C119      1.0  0.26690  0.59591  0.54669  1.0000
  C   C120      1.0  0.21457  0.99251  0.53700  1.0000
  H   H214      1.0  0.12227  0.76997  0.66715  1.0000
  H   H215      1.0  0.15380  0.79070  0.70626  1.0000
  H   H216      1.0  0.17237  0.76197  0.66037  1.0000
  H   H217      1.0  0.25855  0.82716  0.69796  1.0000
  H   H218      1.0  0.26713  0.78654  0.66042  1.0000
  H   H219      1.0  0.22500  0.78457  0.69240  1.0000
  C   C121      1.0  0.01261  0.50980  0.73826  1.0000
  N   N12       1.0  0.33961  0.60096  0.56434  1.0000
  S   S39       1.0  0.33314  0.83222  0.61872  1.0000
  C   C122      1.0  0.17650  0.52883  0.65511  1.0000
  S   S40       1.0  0.12549  0.52844  0.65540  1.0000
  H   H220      1.0  0.29149  0.60502  0.60817  1.0000
  H   H221      1.0  0.06503  0.54239  0.72545  1.0000
  H   H222      1.0  0.03326  0.74172  0.54639  1.0000
  C   C123      1.0  0.04059  0.61833  0.82638  1.0000
  H   H223      1.0  0.02396  0.64718  0.81944  1.0000
  H   H224      1.0  0.02875  0.60551  0.85626  1.0000
  C   C124      1.0  0.05279  0.81273  0.50814  1.0000
  H   H225      1.0  0.20726  0.98836  0.50396  1.0000
  H   H226      1.0  0.07082  0.62812  0.83130  1.0000
  H   H227      1.0  0.29888  0.55454  0.58702  1.0000
  S   S41       1.0  0.32005  0.87031  0.52184  1.0000
  H   H228      1.0  0.26314  0.62943  0.53911  1.0000
  C   C125      1.0  0.25743  0.52332  0.66358  1.0000
  H   H229      1.0  0.04208  0.53782  0.85983  1.0000
  H   H230      1.0  0.03677  0.69005  0.48770  1.0000
  H   H231      1.0  0.08612  0.87021  0.50607  1.0000
  H   H232      1.0  0.01321  0.81850  0.57490  1.0000
  C   C126      1.0  0.01718  0.74791  0.51661  1.0000
  H   H233      1.0  0.31623  0.52251  0.52429  1.0000
  H   H234      1.0  0.32904  0.66428  0.58758  1.0000
  H   H235      1.0  0.32053  0.65763  0.53359  1.0000
  H   H236      1.0  0.33240  0.59442  0.49631  1.0000
  C   C127      1.0  0.01061  0.54228  0.95698  1.0000
  H   H237      1.0  0.04258  0.87572  0.53561  1.0000
  H   H238      1.0  0.07037  0.80214  0.53564  1.0000
  C   C128      1.0  0.34055  0.64773  0.55909  1.0000
  H   H239      1.0  0.06837  0.80156  0.47938  1.0000
  Fe  Fe24      1.0  0.59987  0.06288  0.29803  1.0000
  S   S42       1.0  0.60011  0.08969  0.36397  1.0000
  H   H240      1.0  0.49731  0.42126  0.45764  1.0000
  Fe  Fe25      1.0  0.53483  0.12074  0.26776  1.0000
  S   S43       1.0  0.53000  0.15076  0.33182  1.0000
  S   S44       1.0  0.49670  0.13385  0.21010  1.0000
  Fe  Fe26      1.0  0.59504  0.15173  0.33092  1.0000
  S   S45       1.0  0.62225  0.21389  0.34938  1.0000
  Fe  Fe27      1.0  0.53547  0.08595  0.35956  1.0000
  C   C129      1.0  0.35064  0.17976  0.13288  1.0000
  S   S46       1.0  0.59955  0.12508  0.26482  1.0000
  S   S47       1.0  0.53546  0.05574  0.29564  1.0000
  C   C130      1.0  0.54278  0.04323  0.10580  1.0000
  H   H241      1.0  0.49955  0.26598  0.09989  1.0000
  Fe  Fe28      1.0  0.39262  0.33796  0.10802  1.0000
  S   S48       1.0  0.38850  0.31433  0.04122  1.0000
  S   S49       1.0  0.43634  0.31505  0.15694  1.0000
  Fe  Fe29      1.0  0.38657  0.38220  0.02143  1.0000
  H   H242      1.0  0.52151  0.06712  0.11598  1.0000
  H   H243      1.0  0.46284  0.26274  0.04342  1.0000
  S   S50       1.0  0.39488  0.40565  0.08775  1.0000
  C   C131      1.0  0.53649  0.19234  0.08148  1.0000
  C   C132      1.0  0.55129  0.27263  0.13419  1.0000
  H   H244      1.0  0.50614  0.21671  0.24818  1.0000
  H   H245      1.0  0.53557  0.14865  0.42306  1.0000
  H   H246      1.0  0.49854  0.21751  0.41458  1.0000
  H   H247      1.0  0.48183  0.28654  0.22673  1.0000
  H   H248      1.0  0.38884  0.06055  0.13949  1.0000
  H   H249      1.0  0.42410  0.23196  0.12046  1.0000
  H   H250      1.0  0.54854  0.21905  0.40164  1.0000
  H   H251      1.0  0.44770  0.16155  0.14238  1.0000
  C   C133      1.0  0.50137  0.07539  0.98987  1.0000
  C   C134      1.0  0.47843  0.18413  0.19702  1.0000
  C   C135      1.0  0.45472  0.18873  0.16121  1.0000
  C   C136      1.0  0.44105  0.22844  0.14885  1.0000
  C   C137      1.0  0.45054  0.26394  0.17250  1.0000
  C   C138      1.0  0.47401  0.25925  0.20841  1.0000
  C   C139      1.0  0.48786  0.21964  0.22065  1.0000
  H   H252      1.0  0.66519  0.29003  0.35411  1.0000
  H   H253      1.0  0.67007  0.43256  0.43698  1.0000
  H   H254      1.0  0.57552  0.10312  0.46156  1.0000
  H   H255      1.0  0.53298  0.16841  0.05617  1.0000
  C   C140      1.0  0.60091  0.21134  0.01570  1.0000
  H   H256      1.0  0.48330  0.03712  0.16304  1.0000
  H   H257      1.0  0.35324  0.07856  0.17586  1.0000
  N   N13       1.0  0.57950  0.47592  0.42270  1.0000
  H   H258      1.0  0.46902  0.09798  0.04377  1.0000
  N   N14       1.0  0.54319  0.23479  0.06189  1.0000
  C   C141      1.0  0.58460  0.24197  0.04913  1.0000
  H   H259      1.0  0.51783  0.48202  0.41352  1.0000
  C   C142      1.0  0.47627  0.07088  0.02483  1.0000
  H   H260      1.0  0.52502  0.26842  0.00560  1.0000
  H   H261      1.0  0.57341  0.04047  0.16521  1.0000
  H   H262      1.0  0.53009  0.02247  0.08143  1.0000
  C   C143      1.0  0.53276  0.17180  0.44922  1.0000
  C   C144      1.0  0.50154  0.02188  0.18750  1.0000
  H   H263      1.0  0.53981  0.30026  0.15154  1.0000
  H   H264      1.0  0.52716  0.21335  0.99904  1.0000
  H   H265      1.0  0.59838  0.41221  0.41321  1.0000
  H   H266      1.0  0.44100  0.02869  0.06226  1.0000
  C   C145      1.0  0.58546  0.49795  0.38095  1.0000
  H   H267      1.0  0.55403  0.15774  0.13757  1.0000
  H   H268      1.0  0.60471  0.16362  0.42495  1.0000
  H   H269      1.0  0.58825  0.27412  0.03611  1.0000
  C   C146      1.0  0.37270  0.08877  0.14991  1.0000
  S   S51       1.0  0.50061  0.06548  0.41775  1.0000
  H   H270      1.0  0.58271  0.27750  0.13074  1.0000
  H   H271      1.0  0.45388  0.02829  0.23194  1.0000
  C   C147      1.0  0.53042  0.26933  0.09140  1.0000
  C   C148      1.0  0.53937  0.45765  0.42208  1.0000
  H   H272      1.0  0.46684  0.20616  0.04587  1.0000
  C   C149      1.0  0.51926  0.23825  0.02211  1.0000
  C   C150      1.0  0.60805  0.44101  0.42999  1.0000
  H   H273      1.0  0.60905  0.43272  0.46425  1.0000
  H   H274      1.0  0.54503  0.24527  0.15460  1.0000
  H   H275      1.0  0.60429  0.24094  0.07657  1.0000
  H   H276      1.0  0.40999  0.48447  0.00259  1.0000
  H   H277      1.0  0.59735  0.44082  0.34324  1.0000
  H   H278      1.0  0.50499  0.16386  0.46471  1.0000
  H   H279      1.0  0.50893  0.19213  0.09945  1.0000
  H   H280      1.0  0.37403  0.18392  0.10912  1.0000
  C   C151      1.0  0.47328  0.00309  0.22031  1.0000
  H   H281      1.0  0.53175  0.24117  0.45100  1.0000
  C   C152      1.0  0.56811  0.17506  0.11119  1.0000
  H   H282      1.0  0.54562  0.41262  0.47498  1.0000
  H   H283      1.0  0.37305  0.11408  0.08741  1.0000
  C   C153      1.0  0.46033  0.03156  0.03545  1.0000
  H   H284      1.0  0.51693  0.04774  0.20386  1.0000
  H   H285      1.0  0.58681  0.19865  0.12616  1.0000
  H   H286      1.0  0.58610  0.15158  0.09432  1.0000
  H   H287      1.0  0.66328  0.19388  0.46262  1.0000
  C   C154      1.0  0.58120  0.47058  0.34096  1.0000
  C   C155      1.0  0.47876  0.01603  0.42796  1.0000
  H   H288      1.0  0.53298  0.30030  0.07546  1.0000
  H   H289      1.0  0.59284  0.48793  0.31320  1.0000
  C   C156      1.0  0.52539  0.43686  0.46355  1.0000
  C   C157      1.0  0.64999  0.44840  0.41486  1.0000
  H   H290      1.0  0.53688  0.43309  0.39722  1.0000
  H   H291      1.0  0.39424  0.11110  0.16240  1.0000
  H   H292      1.0  0.56672  0.06040  0.09016  1.0000
  C   C158      1.0  0.60211  0.18098  0.45548  1.0000
  H   H293      1.0  0.35334  0.24606  0.14679  1.0000
  C   C159      1.0  0.47519  0.23457  0.02799  1.0000
  C   C160      1.0  0.35060  0.10655  0.11147  1.0000
  C   C161      1.0  0.55896  0.01800  0.14336  1.0000
  H   H294      1.0  0.46154  0.23213  0.99632  1.0000
  C   C162      1.0  0.45896  0.00996  0.46651  1.0000
  H   H295      1.0  0.60070  0.21463  0.44663  1.0000
  C   C163      1.0  0.52787  0.21508  0.42831  1.0000
  H   H296      1.0  0.55047  0.46405  0.33408  1.0000
  H   H297      1.0  0.59073  0.21949  0.98346  1.0000
  H   H298      1.0  0.59351  0.17834  0.02255  1.0000
  H   H299      1.0  0.34581  0.19133  0.04567  1.0000
  H   H300      1.0  0.63282  0.21388  0.01483  1.0000
  H   H301      1.0  0.44726  0.49815  0.43860  1.0000
  H   H302      1.0  0.36541  0.17313  0.16336  1.0000
  H   H303      1.0  0.65911  0.48130  0.41350  1.0000
  H   H304      1.0  0.65521  0.43345  0.38354  1.0000
  C   C164      1.0  0.67048  0.22379  0.36491  1.0000
  S   S52       1.0  0.63333  0.00416  0.28156  1.0000
  S   S53       1.0  0.52133  0.12557  0.97831  1.0000
  H   H305      1.0  0.34442  0.13671  0.02929  1.0000
  Fe  Fe30      1.0  0.61256  0.12225  0.84841  1.0000
  S   S54       1.0  0.62124  0.14498  0.91531  1.0000
  S   S55       1.0  0.64650  0.07053  0.81547  1.0000
  Fe  Fe31      1.0  0.54711  0.18507  0.83104  1.0000
  S   S56       1.0  0.55109  0.21120  0.89680  1.0000
  S   S57       1.0  0.50171  0.20519  0.78280  1.0000
  Fe  Fe32      1.0  0.61541  0.20917  0.88652  1.0000
  H   H306      1.0  0.59708  0.11740  0.51049  1.0000
  Fe  Fe33      1.0  0.55618  0.14435  0.91927  1.0000
  H   H307      1.0  0.42734  0.29050  0.81465  1.0000
  S   S58       1.0  0.61102  0.18663  0.81937  1.0000
  S   S59       1.0  0.54789  0.11817  0.85393  1.0000
  H   H308      1.0  0.42990  0.45730  0.78201  1.0000
  H   H309      1.0  0.40936  0.20968  0.84363  1.0000
  Fe  Fe34      1.0  0.40585  0.40153  0.66751  1.0000
  S   S60       1.0  0.40099  0.37047  0.60384  1.0000
  S   S61       1.0  0.44967  0.38641  0.71960  1.0000
  Fe  Fe35      1.0  0.39404  0.43570  0.57700  1.0000
  H   H310      1.0  0.59976  0.42051  0.86595  1.0000
  N   N15       1.0  0.63791  0.35461  0.78735  1.0000
  S   S62       1.0  0.40350  0.46671  0.63974  1.0000
  H   H311      1.0  0.64549  0.35952  0.85524  1.0000
  C   C165      1.0  0.46849  0.45782  0.92022  1.0000
  H   H312      1.0  0.52519  0.28949  0.80761  1.0000
  H   H313      1.0  0.41016  0.36278  0.82697  1.0000
  H   H314      1.0  0.57380  0.22659  0.51285  1.0000
  H   H315      1.0  0.50458  0.35977  0.78190  1.0000
  H   H316      1.0  0.61158  0.00618  0.87779  1.0000
  H   H317      1.0  0.42732  0.30177  0.69378  1.0000
  C   C166      1.0  0.52056  0.20172  0.53555  1.0000
  H   H318      1.0  0.44848  0.23189  0.71900  1.0000
  H   H319      1.0  0.58561  0.26409  0.76102  1.0000
  C   C167      1.0  0.48886  0.25588  0.76466  1.0000
  C   C168      1.0  0.46099  0.25976  0.73267  1.0000
  C   C169      1.0  0.44889  0.29938  0.71832  1.0000
  C   C170      1.0  0.46458  0.33571  0.73584  1.0000
  C   C171      1.0  0.49249  0.33187  0.76789  1.0000
  C   C172      1.0  0.50449  0.29218  0.78229  1.0000
  H   H320      1.0  0.50453  0.17243  0.54110  1.0000
  H   H321      1.0  0.59436  0.38162  0.74689  1.0000
  C   C173      1.0  0.64075  0.42560  0.74676  1.0000
  H   H322      1.0  0.46722  0.31725  0.95615  1.0000
  C   C174      1.0  0.61010  0.31860  0.79215  1.0000
  C   C175      1.0  0.44189  0.45267  0.95364  1.0000
  C   C176      1.0  0.40949  0.47770  0.76436  1.0000
  H   H323      1.0  0.46260  0.24307  0.91376  1.0000
  C   C177      1.0  0.39928  0.29210  0.92058  1.0000
  H   H324      1.0  0.53779  0.11304  0.54946  1.0000
  H   H325      1.0  0.44512  0.18197  0.87199  1.0000
  C   C178      1.0  0.40668  0.29555  0.84122  1.0000
  H   H326      1.0  0.45737  0.03525  0.48923  1.0000
  H   H327      1.0  0.63924  0.18736  0.51226  1.0000
  H   H328      1.0  0.58293  0.41458  0.81292  1.0000
  C   C179      1.0  0.36840  0.46513  0.77801  1.0000
  H   H329      1.0  0.50341  0.22199  0.51430  1.0000
  H   H330      1.0  0.34650  0.47786  0.75591  1.0000
  H   H331      1.0  0.35704  0.24658  0.89206  1.0000
  C   C180      1.0  0.63609  0.37930  0.82810  1.0000
  H   H332      1.0  0.39378  0.32542  0.92886  1.0000
  C   C181      1.0  0.60989  0.28618  0.75586  1.0000
  C   C182      1.0  0.57104  0.12229  0.49077  1.0000
  H   H333      1.0  0.50943  0.10640  0.50145  1.0000
  C   C183      1.0  0.62639  0.37987  0.74901  1.0000
  S   S63       1.0  0.64939  0.26784  0.90292  1.0000
  H   H334      1.0  0.65625  0.40592  0.82808  1.0000
  C   C184      1.0  0.59626  0.39761  0.83970  1.0000
  H   H335      1.0  0.36596  0.43054  0.77621  1.0000
  H   H336      1.0  0.41166  0.46775  0.73065  1.0000
  H   H337      1.0  0.44200  0.35507  0.88960  1.0000
  H   H338      1.0  0.49700  0.49160  0.77271  1.0000
  H   H339      1.0  0.58006  0.33028  0.79464  1.0000
  H   H340      1.0  0.66553  0.43321  0.76700  1.0000
  C   C185      1.0  0.38803  0.33878  0.83432  1.0000
  H   H341      1.0  0.52966  0.04280  0.93884  1.0000
  H   H342      1.0  0.60539  0.30079  0.72444  1.0000
  H   H343      1.0  0.36871  0.33729  0.80636  1.0000
  H   H344      1.0  0.36130  0.47414  0.81088  1.0000
  H   H345      1.0  0.51983  0.46013  0.48895  1.0000
  C   C186      1.0  0.48751  0.49919  0.74019  1.0000
  C   C187      1.0  0.45617  0.32396  0.88736  1.0000
  C   C188      1.0  0.42479  0.20876  0.87427  1.0000
  H   H346      1.0  0.54293  0.06767  0.51723  1.0000
  H   H347      1.0  0.63592  0.36396  0.71936  1.0000
  C   C189      1.0  0.53802  0.10198  0.51612  1.0000
  H   H348      1.0  0.49961  0.35090  0.92861  1.0000
  H   H349      1.0  0.41257  0.27802  0.94926  1.0000
  H   H350      1.0  0.63653  0.26701  0.75562  1.0000
  H   H351      1.0  0.47760  0.43088  0.90203  1.0000
  H   H352      1.0  0.50484  0.29585  0.92208  1.0000
  H   H353      1.0  0.61564  0.30113  0.82212  1.0000
  H   H354      1.0  0.57637  0.37303  0.85141  1.0000
  N   N16       1.0  0.42660  0.28955  0.88322  1.0000
  H   H355      1.0  0.47168  0.24952  0.85865  1.0000
  S   S64       1.0  0.42309  0.40194  0.96421  1.0000
  C   C190      1.0  0.44822  0.24862  0.88286  1.0000
  H   H356      1.0  0.38390  0.27204  0.83575  1.0000
  S   S65       1.0  0.42236  0.45833  0.51532  1.0000
  H   H357      1.0  0.47951  0.46996  0.72355  1.0000
  H   H358      1.0  0.47472  0.32553  0.85856  1.0000
  C   C191      1.0  0.35891  0.27237  0.91519  1.0000
  C   C192      1.0  0.48326  0.32117  0.92596  1.0000
  H   H359      1.0  0.52223  0.21821  0.56652  1.0000
  H   H360      1.0  0.57916  0.18171  0.54493  1.0000
  C   C193      1.0  0.56186  0.19472  0.51838  1.0000
  H   H361      1.0  0.34933  0.25948  0.94622  1.0000
  H   H362      1.0  0.61693  0.44767  0.75418  1.0000
  C   C194      1.0  0.48369  0.49755  0.91028  1.0000
  H   H363      1.0  0.40500  0.20155  0.90092  1.0000
  C   C195      1.0  0.51050  0.03994  0.96581  1.0000
  H   H364      1.0  0.57569  0.49262  0.48941  1.0000
  H   H365      1.0  0.64969  0.43289  0.71373  1.0000
  N   N17       1.0  0.56623  0.16777  0.47924  1.0000
  C   C196      1.0  0.64059  0.17562  0.47924  1.0000
  H   H366      1.0  0.37062  0.34896  0.86201  1.0000
  S   S66       1.0  0.34226  0.40055  0.68074  1.0000
  C   C197      1.0  0.43045  0.48789  0.97686  1.0000
  H   H367      1.0  0.65023  0.14255  0.47884  1.0000
  H   H368      1.0  0.40218  0.49970  0.86340  1.0000
  Fe  Fe36      1.0  0.61011  0.62266  0.34874  1.0000
  S   S67       1.0  0.61783  0.64541  0.41558  1.0000
  S   S68       1.0  0.64366  0.56976  0.31730  1.0000
  Fe  Fe37      1.0  0.54413  0.68453  0.33119  1.0000
  S   S69       1.0  0.54704  0.71077  0.39703  1.0000
  S   S70       1.0  0.49958  0.70457  0.28217  1.0000
  Fe  Fe38      1.0  0.61140  0.70960  0.38719  1.0000
  H   H369      1.0  0.57100  0.95130  0.37527  1.0000
  Fe  Fe39      1.0  0.55283  0.64398  0.41930  1.0000
  C   C198      1.0  0.57916  0.92842  0.35007  1.0000
  S   S71       1.0  0.60808  0.68711  0.31991  1.0000
  S   S72       1.0  0.54547  0.61752  0.35399  1.0000
  H   H370      1.0  0.38214  0.82177  0.41568  1.0000
  S   S73       1.0  0.42005  0.88931  0.45718  1.0000
  Fe  Fe40      1.0  0.40663  0.89780  0.16888  1.0000
  S   S74       1.0  0.41457  0.86297  0.10793  1.0000
  S   S75       1.0  0.44713  0.88720  0.22502  1.0000
  Fe  Fe41      1.0  0.40844  0.92568  0.07559  1.0000
  S   S76       1.0  0.45175  0.94520  0.02407  1.0000
  H   H371      1.0  0.55883  0.94445  0.10011  1.0000
  S   S77       1.0  0.40397  0.96072  0.13672  1.0000
  C   C199      1.0  0.45702  0.51746  0.46460  1.0000
  H   H372      1.0  0.62876  0.85650  0.40937  1.0000
  H   H373      1.0  0.52077  0.78808  0.31249  1.0000
  C   C200      1.0  0.37866  0.89553  0.34785  1.0000
  C   C201      1.0  0.54983  0.96849  0.20293  1.0000
  H   H374      1.0  0.49897  0.85889  0.28978  1.0000
  H   H375      1.0  0.59848  0.92974  0.22090  1.0000
  H   H376      1.0  0.43086  0.80394  0.19132  1.0000
  H   H377      1.0  0.62658  0.54992  0.43457  1.0000
  H   H378      1.0  0.45189  0.73340  0.21446  1.0000
  H   H379      1.0  0.51474  0.92371  0.08334  1.0000
  C   C202      1.0  0.48808  0.75587  0.26493  1.0000
  C   C203      1.0  0.46269  0.76079  0.23067  1.0000
  C   C204      1.0  0.45069  0.80079  0.21749  1.0000
  C   C205      1.0  0.46366  0.83642  0.23873  1.0000
  C   C206      1.0  0.48923  0.83158  0.27289  1.0000
  C   C207      1.0  0.50160  0.79155  0.28581  1.0000
  H   H380      1.0  0.48103  0.75273  0.03014  1.0000
  N   N18       1.0  0.37837  0.81450  0.34722  1.0000
  H   H381      1.0  0.48818  0.94286  0.15860  1.0000
  H   H382      1.0  0.61200  0.97348  0.18967  1.0000
  C   C208      1.0  0.46260  0.94438  0.40845  1.0000
  C   C209      1.0  0.61771  0.88828  0.40187  1.0000
  C   C210      1.0  0.50796  0.96259  0.13935  1.0000
  C   C211      1.0  0.62891  0.86174  0.30560  1.0000
  H   H383      1.0  0.47595  0.69677  0.03604  1.0000
  H   H384      1.0  0.52085  0.59193  0.02575  1.0000
  H   H385      1.0  0.42810  0.76685  0.40252  1.0000
  S   S78       1.0  0.34409  0.91795  0.06801  1.0000
  H   H386      1.0  0.60561  0.94153  0.33577  1.0000
  H   H387      1.0  0.48689  0.56124  0.42371  1.0000
  H   H388      1.0  0.36587  0.89947  0.37978  1.0000
  H   H389      1.0  0.62370  0.84511  0.27523  1.0000
  H   H390      1.0  0.39895  0.92203  0.34341  1.0000
  C   C212      1.0  0.35292  0.65922  0.04896  1.0000
  H   H391      1.0  0.41935  0.78253  0.30638  1.0000
  S   S79       1.0  0.34202  0.89122  0.17009  1.0000
  C   C213      1.0  0.47954  0.55322  0.45606  1.0000
  H   H392      1.0  0.36018  0.68369  0.07267  1.0000
  N   N19       1.0  0.53009  0.99197  0.16758  1.0000
  H   H393      1.0  0.34710  0.58114  0.01125  1.0000
  N   N20       1.0  0.58608  0.88590  0.36913  1.0000
  H   H394      1.0  0.49883  0.72717  0.07560  1.0000
  Fe  Fe42      1.0  0.34958  0.85919  0.10690  1.0000
  C   C214      1.0  0.53144  0.93159  0.11223  1.0000
  H   H395      1.0  0.61411  0.51260  0.37883  1.0000
  H   H396      1.0  0.60216  0.82285  0.35148  1.0000
  H   H397      1.0  0.36049  0.77442  0.39949  1.0000
  H   H398      1.0  0.41761  0.85560  0.31384  1.0000
  C   C215      1.0  0.54579  0.64624  0.99528  1.0000
  H   H399      1.0  0.51151  0.63923  0.05370  1.0000
  C   C216      1.0  0.44256  0.93843  0.44692  1.0000
  C   C217      1.0  0.43847  0.77193  0.36966  1.0000
  H   H400      1.0  0.52550  0.86855  0.36859  1.0000
  H   H401      1.0  0.60626  0.90100  0.43235  1.0000
  H   H402      1.0  0.54458  0.75180  0.01143  1.0000
  H   H403      1.0  0.45476  0.97862  0.20645  1.0000
  H   H404      1.0  0.56934  0.84542  0.31673  1.0000
  H   H405      1.0  0.37486  0.78922  0.25695  1.0000
  H   H406      1.0  0.53095  0.94296  0.21509  1.0000
  C   C218      1.0  0.53589  0.71940  0.02019  1.0000
  H   H407      1.0  0.45482  0.74347  0.36025  1.0000
  H   H408      1.0  0.48527  0.62607  0.00548  1.0000
  H   H409      1.0  0.46400  0.91920  0.38566  1.0000
  H   H410      1.0  0.57201  0.64321  0.01513  1.0000
  C   C219      1.0  0.55115  0.83273  0.41796  1.0000
  C   C220      1.0  0.59506  0.85311  0.33612  1.0000
  H   H411      1.0  0.55621  0.70943  0.04547  1.0000
  C   C221      1.0  0.40134  0.85440  0.34424  1.0000
  S   S80       1.0  0.64541  0.76721  0.40673  1.0000
  C   C222      1.0  0.51357  0.62549  0.02148  1.0000
  C   C223      1.0  0.54931  0.87331  0.39157  1.0000
  C   C224      1.0  0.58074  0.50765  0.45814  1.0000
  H   H412      1.0  0.56493  0.52457  0.37782  1.0000
  H   H413      1.0  0.42354  0.85569  0.36946  1.0000
  C   C225      1.0  0.40529  0.77856  0.33777  1.0000
  H   H414      1.0  0.54733  0.96289  0.30278  1.0000
  H   H415      1.0  0.55718  0.80504  0.39789  1.0000
  C   C226      1.0  0.36240  0.80832  0.39157  1.0000
  C   C227      1.0  0.49545  0.72357  0.04076  1.0000
  H   H416      1.0  0.55522  0.90979  0.28809  1.0000
  H   H417      1.0  0.63199  0.89489  0.29661  1.0000
  H   H418      1.0  0.38901  0.74860  0.33577  1.0000
  C   C228      1.0  0.48053  0.98292  0.39896  1.0000
  H   H419      1.0  0.45928  0.79817  0.36906  1.0000
  H   H420      1.0  0.52260  0.82753  0.43310  1.0000
  H   H421      1.0  0.48811  0.97978  0.11785  1.0000
  C   C229      1.0  0.54825  0.93052  0.31522  1.0000
  H   H422      1.0  0.48812  0.99028  0.24848  1.0000
  H   H423      1.0  0.64581  0.94938  0.39163  1.0000
  N   N21       1.0  0.53945  0.69102  0.98205  1.0000
  H   H424      1.0  0.51900  0.92372  0.32751  1.0000
  H   H425      1.0  0.43585  0.55471  0.98444  1.0000
  H   H426      1.0  0.53941  0.89865  0.41340  1.0000
  H   H427      1.0  0.57261  0.83453  0.44382  1.0000
  H   H428      1.0  0.58965  0.92829  0.16534  1.0000
  C   C230      1.0  0.35850  0.81693  0.26807  1.0000
  H   H429      1.0  0.36727  0.66924  0.01911  1.0000
  H   H430      1.0  0.55727  0.53102  0.45413  1.0000
  C   C231      1.0  0.58958  0.94898  0.19333  1.0000
  C   C232      1.0  0.46970  0.99604  0.01149  1.0000
  H   H431      1.0  0.36644  0.62940  0.05817  1.0000
  C   C233      1.0  0.65315  0.91559  0.39135  1.0000
  H   H432      1.0  0.61390  0.71301  0.01048  1.0000
  H   H433      1.0  0.53684  0.90222  0.12998  1.0000
  H   H434      1.0  0.58272  0.99885  0.13012  1.0000
  C   C234      1.0  0.34633  0.81311  0.31504  1.0000
  H   H435      1.0  0.37509  0.84583  0.26168  1.0000
  H   H436      1.0  0.46085  0.71267  0.46853  1.0000
  H   H437      1.0  0.66693  0.90742  0.36085  1.0000
  H   H438      1.0  0.49533  0.98726  0.36908  1.0000
  H   H439      1.0  0.65643  0.85003  0.31903  1.0000
  C   C235      1.0  0.44095  0.97149  0.47594  1.0000
  H   H440      1.0  0.55509  0.98976  0.23031  1.0000
  H   H441      1.0  0.35647  0.89869  0.32293  1.0000
  C   C236      1.0  0.61832  0.53251  0.46348  1.0000
  H   H442      1.0  0.62336  0.66679  0.97845  1.0000
  H   H443      1.0  0.64219  0.51226  0.47441  1.0000
  Fe  Fe43      1.0  0.60384  0.57338  0.81895  1.0000
  S   S81       1.0  0.59691  0.60569  0.88199  1.0000
  S   S82       1.0  0.48845  0.58399  0.92046  1.0000
  Fe  Fe44      1.0  0.54143  0.62814  0.77665  1.0000
  S   S83       1.0  0.53083  0.66302  0.83711  1.0000
  S   S84       1.0  0.50307  0.63807  0.71855  1.0000
  Fe  Fe45      1.0  0.59556  0.66453  0.84310  1.0000
  S   S85       1.0  0.62290  0.72747  0.85852  1.0000
  Fe  Fe46      1.0  0.53325  0.60039  0.86976  1.0000
  H   H444      1.0  0.60386  0.89545  0.83043  1.0000
  S   S86       1.0  0.60630  0.63267  0.78037  1.0000
  S   S87       1.0  0.54003  0.56523  0.80902  1.0000
  H   H445      1.0  0.57215  0.89856  0.89606  1.0000
  C   C237      1.0  0.39590  0.59834  0.75728  1.0000
  Fe  Fe47      1.0  0.39667  0.83444  0.60564  1.0000
  S   S88       1.0  0.39159  0.80613  0.54100  1.0000
  S   S89       1.0  0.44358  0.81574  0.65271  1.0000
  Fe  Fe48      1.0  0.38525  0.87216  0.51683  1.0000
  C   C238      1.0  0.54883  0.70726  0.61469  1.0000
  H   H446      1.0  0.59673  0.90040  0.94534  1.0000
  S   S90       1.0  0.39391  0.90077  0.58110  1.0000
  C   C239      1.0  0.44522  0.52771  0.96651  1.0000
  H   H447      1.0  0.58883  0.82297  0.88663  1.0000
  H   H448      1.0  0.51997  0.72394  0.74455  1.0000
  H   H449      1.0  0.57572  0.68631  0.92599  1.0000
  H   H450      1.0  0.57882  0.77223  0.57180  1.0000
  H   H451      1.0  0.49631  0.79225  0.71791  1.0000
  C   C240      1.0  0.48242  0.56745  0.53117  1.0000
  H   H452      1.0  0.42245  0.72938  0.62970  1.0000
  H   H453      1.0  0.39797  0.58614  0.58482  1.0000
  H   H454      1.0  0.44710  0.66084  0.65559  1.0000
  H   H455      1.0  0.49252  0.58645  0.55725  1.0000
  C   C241      1.0  0.48507  0.68755  0.70216  1.0000
  C   C242      1.0  0.45751  0.68951  0.66958  1.0000
  C   C243      1.0  0.44359  0.72833  0.65474  1.0000
  C   C244      1.0  0.45761  0.76570  0.67196  1.0000
  C   C245      1.0  0.48516  0.76361  0.70446  1.0000
  C   C246      1.0  0.49862  0.72487  0.71969  1.0000
  C   C247      1.0  0.46885  0.71895  0.50199  1.0000
  S   S91       1.0  0.64072  0.51465  0.81869  1.0000
  C   C248      1.0  0.37995  0.66680  0.54678  1.0000
  H   H456      1.0  0.36970  0.61545  0.74703  1.0000
  C   C249      1.0  0.50504  0.69325  0.95309  1.0000
  C   C250      1.0  0.38806  0.55095  0.75463  1.0000
  H   H457      1.0  0.44849  0.56370  0.81502  1.0000
  H   H458      1.0  0.66291  0.87764  0.94734  1.0000
  H   H459      1.0  0.57683  0.96660  0.88708  1.0000
  C   C251      1.0  0.60562  0.97239  0.87299  1.0000
  H   H460      1.0  0.37728  0.64409  0.63474  1.0000
  S   S92       1.0  0.52350  0.62199  0.48071  1.0000
  H   H461      1.0  0.38040  0.58865  0.51373  1.0000
  C   C252      1.0  0.47191  0.53282  0.93320  1.0000
  H   H462      1.0  0.63076  0.85121  0.84294  1.0000
  H   H463      1.0  0.50227  0.97348  0.95783  1.0000
  N   N22       1.0  0.52633  0.74462  0.54649  1.0000
  C   C253      1.0  0.50240  0.77790  0.56798  1.0000
  H   H464      1.0  0.38896  0.59662  0.66116  1.0000
  H   H465      1.0  0.41957  0.60822  0.73581  1.0000
  H   H466      1.0  0.61478  0.82368  0.93631  1.0000
  N   N23       1.0  0.63463  0.89988  0.89039  1.0000
  H   H467      1.0  0.44841  0.74249  0.51450  1.0000
  C   C254      1.0  0.66445  0.89888  0.81455  1.0000
  C   C255      1.0  0.59597  0.72985  0.52076  1.0000
  H   H468      1.0  0.46533  0.68906  0.51936  1.0000
  H   H469      1.0  0.47959  0.81309  0.51296  1.0000
  H   H470      1.0  0.56735  0.78867  0.52058  1.0000
  H   H471      1.0  0.54074  0.73412  0.63507  1.0000
  C   C256      1.0  0.45426  0.53129  0.73908  1.0000
  H   H472      1.0  0.40485  0.64975  0.55997  1.0000
  C   C257      1.0  0.36797  0.61126  0.63928  1.0000
  H   H473      1.0  0.50434  0.50090  0.88473  1.0000
  H   H474      1.0  0.65312  0.90032  0.78169  1.0000
  C   C258      1.0  0.51086  0.73440  0.50322  1.0000
  C   C259      1.0  0.59175  0.83898  0.91765  1.0000
  H   H475      1.0  0.49792  0.76205  0.95659  1.0000
  H   H476      1.0  0.58020  0.70792  0.60805  1.0000
  H   H477      1.0  0.47350  0.76566  0.57686  1.0000
  H   H478      1.0  0.36241  0.55327  0.60614  1.0000
  C   C260      1.0  0.40325  0.53125  0.84875  1.0000
  H   H479      1.0  0.50846  0.67066  0.92651  1.0000
  H   H480      1.0  0.53432  0.67758  0.55549  1.0000
  H   H481      1.0  0.46807  0.73620  0.91852  1.0000
  H   H482      1.0  0.52297  0.83532  0.53577  1.0000
  C   C261      1.0  0.66810  0.87897  0.91245  1.0000
  C   C262      1.0  0.63173  0.88585  0.84486  1.0000
  C   C263      1.0  0.49579  0.81853  0.54265  1.0000
  C   C264      1.0  0.52503  0.70574  0.57356  1.0000
  C   C265      1.0  0.56688  0.76058  0.54126  1.0000
  H   H483      1.0  0.51564  0.78742  0.59858  1.0000
  H   H484      1.0  0.42576  0.96750  0.50568  1.0000
  H   H485      1.0  0.49491  0.69854  0.58332  1.0000
  C   C266      1.0  0.49294  0.57807  0.48938  1.0000
  H   H486      1.0  0.66514  0.95880  0.88137  1.0000
  H   H487      1.0  0.63834  0.95596  0.92860  1.0000
  H   H488      1.0  0.46746  0.56223  0.74574  1.0000
  H   H489      1.0  0.47791  0.84005  0.56225  1.0000
  H   H490      1.0  0.44452  0.53279  0.70546  1.0000
  C   C267      1.0  0.45995  0.53161  0.53970  1.0000
  H   H491      1.0  0.62499  0.73490  0.53453  1.0000
  H   H492      1.0  0.38183  0.69903  0.55978  1.0000
  H   H493      1.0  0.57193  0.73764  0.94671  1.0000
  C   C268      1.0  0.43380  0.53280  0.81316  1.0000
  H   H494      1.0  0.41109  0.55412  0.87379  1.0000
  H   H495      1.0  0.60498  0.96717  0.83824  1.0000
  H   H496      1.0  0.58905  0.69657  0.52638  1.0000
  H   H497      1.0  0.45674  0.51067  0.82296  1.0000
  H   H498      1.0  0.54318  0.67842  0.63330  1.0000
  C   C269      1.0  0.34641  0.53322  0.52068  1.0000
  C   C270      1.0  0.63771  0.94677  0.89451  1.0000
  C   C271      1.0  0.36796  0.58642  0.59736  1.0000
  H   H499      1.0  0.36454  0.51787  0.54488  1.0000
  H   H500      1.0  0.36126  0.54534  0.77289  1.0000
  H   H501      1.0  0.67093  0.84592  0.90202  1.0000
  H   H502      1.0  0.40223  0.60848  0.79014  1.0000
  C   C272      1.0  0.59805  0.88665  0.91284  1.0000
  N   N24       1.0  0.42069  0.52312  0.76867  1.0000
  H   H503      1.0  0.59770  0.73481  0.48592  1.0000
  H   H504      1.0  0.38006  0.54349  0.72127  1.0000
  H   H505      1.0  0.52846  0.70944  0.48820  1.0000
  H   H506      1.0  0.51792  0.74302  0.90700  1.0000
  C   C273      1.0  0.67232  0.73373  0.87088  1.0000
  C   C274      1.0  0.49718  0.73637  0.93304  1.0000
  H   H507      1.0  0.56430  0.83366  0.93506  1.0000
  H   H508      1.0  0.37409  0.54059  0.83877  1.0000
  H   H509      1.0  0.38324  0.66812  0.51175  1.0000
  C   C275      1.0  0.57415  0.70426  0.95625  1.0000
  H   H510      1.0  0.63551  0.71734  0.95925  1.0000
  H   H511      1.0  0.61380  0.55640  0.48863  1.0000
  C   C276      1.0  0.35002  0.58121  0.52247  1.0000
  H   H512      1.0  0.51274  0.51228  0.72296  1.0000
  H   H513      1.0  0.45311  0.52319  0.57206  1.0000
  H   H514      1.0  0.51365  0.76148  0.48137  1.0000
  C   C277      1.0  0.44763  0.50598  0.50643  1.0000
  H   H515      1.0  0.47809  0.68329  0.96891  1.0000
  H   H516      1.0  0.35672  0.52199  0.48927  1.0000
  H   H517      1.0  0.55098  0.62622  0.96685  1.0000
  C   C278      1.0  0.61369  0.69987  0.97799  1.0000
  C   C279      1.0  0.49493  0.00060  0.97671  1.0000
  Fe  Fe49      1.0  0.81800  0.41116  0.38296  1.0000
  S   S93       1.0  0.82471  0.37545  0.44413  1.0000
  C   C280      1.0  0.94912  0.02206  0.99544  1.0000
  Fe  Fe50      1.0  0.87539  0.35143  0.33692  1.0000
  S   S94       1.0  0.88549  0.31505  0.39615  1.0000
  S   S95       1.0  0.91004  0.33280  0.27791  1.0000
  Fe  Fe51      1.0  0.82094  0.31757  0.40340  1.0000
  S   S96       1.0  0.79114  0.25518  0.41658  1.0000
  Fe  Fe52      1.0  0.88809  0.37749  0.42945  1.0000
  H   H518      1.0  0.96254  0.29103  0.36418  1.0000
  S   S97       1.0  0.81039  0.35276  0.34298  1.0000
  S   S98       1.0  0.88190  0.41401  0.36960  1.0000
  H   H519      1.0  0.92719  0.03430  0.13780  1.0000
  H   H520      1.0  0.96536  0.31641  0.43421  1.0000
  H   H521      1.0  0.93824  0.02445  0.36134  1.0000
  C   C281      1.0  0.96979  0.06945  0.39931  1.0000
  H   H522      1.0  0.89717  0.15840  0.42318  1.0000
  H   H523      1.0  0.96033  0.30263  0.21190  1.0000
  H   H524      1.0  0.96279  0.09565  0.37919  1.0000
  C   C282      1.0  0.98914  0.00143  0.45000  1.0000
  C   C283      1.0  0.93107  0.28271  0.26876  1.0000
  C   C284      1.0  0.92471  0.24892  0.29607  1.0000
  C   C285      1.0  0.95598  0.02911  0.38904  1.0000
  H   H525      1.0  0.74979  0.17752  0.40732  1.0000
  H   H526      1.0  0.74166  0.45889  0.31881  1.0000
  H   H527      1.0  0.90607  0.25286  0.32331  1.0000
  C   C286      1.0  0.94245  0.20996  0.28804  1.0000
  C   C287      1.0  0.86700  0.16969  0.42292  1.0000
  H   H528      1.0  0.99257  0.36061  0.36241  1.0000
  C   C288      1.0  0.72107  0.27508  0.37963  1.0000
  C   C289      1.0  0.74511  0.24359  0.39512  1.0000
  C   C290      1.0  0.73175  0.20205  0.39494  1.0000
  H   H529      1.0  0.96076  0.41936  0.99006  1.0000
  C   C291      1.0  0.96625  0.20395  0.25230  1.0000
  H   H530      1.0  0.73085  0.30717  0.37968  1.0000
  H   H531      1.0  0.68487  0.16005  0.37959  1.0000
  C   C292      1.0  0.99316  0.07604  0.43507  1.0000
  H   H532      1.0  0.81582  0.19937  0.27744  1.0000
  C   C293      1.0  0.70447  0.04239  0.27301  1.0000
  H   H533      1.0  0.76015  0.07050  0.26260  1.0000
  H   H534      1.0  0.99118  0.02031  0.28199  1.0000
  H   H535      1.0  0.94478  0.24986  0.44565  1.0000
  C   C294      1.0  0.97263  0.23771  0.22500  1.0000
  C   C295      1.0  0.97618  0.02561  0.02837  1.0000
  N   N25       1.0  0.90692  0.33961  0.98238  1.0000
  H   H536      1.0  0.87657  0.01353  0.09637  1.0000
  C   C296      1.0  0.69486  0.19205  0.37931  1.0000
  H   H537      1.0  0.88212  0.29371  0.05874  1.0000
  C   C297      1.0  0.95517  0.27680  0.23325  1.0000
  H   H538      1.0  0.87127  0.07411  0.29105  1.0000
  H   H539      1.0  0.95417  0.19654  0.43339  1.0000
  H   H540      1.0  0.91051  0.02522  0.19194  1.0000
  H   H541      1.0  0.88858  0.12677  0.28029  1.0000
  C   C298      1.0  0.99713  0.31262  0.43658  1.0000
  S   S99       1.0  0.78594  0.47230  0.39682  1.0000
  H   H542      1.0  0.93765  0.18426  0.30954  1.0000
  C   C299      1.0  0.68382  0.26526  0.36513  1.0000
  C   C300      1.0  0.91192  0.30598  0.05659  1.0000
  H   H543      1.0  0.68895  0.07160  0.27043  1.0000
  H   H544      1.0  0.81033  0.05513  0.40298  1.0000
  S   S100      1.0  0.93634  0.39439  0.47581  1.0000
  H   H545      1.0  0.94179  0.23100  0.39133  1.0000
  H   H546      1.0  0.85009  0.32878  0.00960  1.0000
  H   H547      1.0  0.95925  0.01640  0.17796  1.0000
  C   C301      1.0  0.89037  0.09965  0.30195  1.0000
  C   C302      1.0  0.74485  0.04170  0.26866  1.0000
  H   H548      1.0  0.85364  0.00823  0.16695  1.0000
  N   N26       1.0  0.84231  0.12826  0.35792  1.0000
  C   C303      1.0  0.83971  0.13592  0.40510  1.0000
  C   C304      1.0  0.81181  0.09659  0.34659  1.0000
  C   C305      1.0  0.83480  0.16941  0.33561  1.0000
  C   C306      1.0  0.88225  0.11236  0.34817  1.0000
  H   H549      1.0  0.95804  0.31298  0.01214  1.0000
  C   C307      1.0  0.81488  0.05346  0.36825  1.0000
  C   C308      1.0  0.81500  0.16772  0.29189  1.0000
  H   H550      1.0  0.82903  0.14597  0.26938  1.0000
  H   H551      1.0  0.80983  0.14495  0.41427  1.0000
  H   H552      1.0  0.84646  0.10713  0.42330  1.0000
  H   H553      1.0  0.81169  0.09001  0.31207  1.0000
  H   H554      1.0  0.78264  0.10932  0.35403  1.0000
  H   H555      1.0  0.81565  0.18993  0.35506  1.0000
  H   H556      1.0  0.86197  0.18749  0.33165  1.0000
  H   H557      1.0  0.90420  0.13636  0.35606  1.0000
  H   H558      1.0  0.88916  0.08503  0.36850  1.0000
  C   C309      1.0  0.76535  0.00397  0.27178  1.0000
  H   H559      1.0  0.92038  0.08774  0.29953  1.0000
  H   H560      1.0  0.99153  0.33712  0.31133  1.0000
  H   H561      1.0  0.84244  0.03749  0.36076  1.0000
  C   C310      1.0  0.00280  0.04170  0.46029  1.0000
  H   H562      1.0  0.79165  0.03302  0.35585  1.0000
  H   H563      1.0  0.78413  0.15913  0.29528  1.0000
  C   C311      1.0  0.95783  0.22893  0.42154  1.0000
  C   C312      1.0  0.72915  0.48478  0.33616  1.0000
  H   H564      1.0  0.86515  0.19985  0.40578  1.0000
  H   H565      1.0  0.90093  0.47567  0.45787  1.0000
  H   H566      1.0  0.91376  0.33670  0.07274  1.0000
  C   C313      1.0  0.92938  0.01372  0.16596  1.0000
  C   C314      1.0  0.99447  0.29156  0.36222  1.0000
  H   H567      1.0  0.85892  0.17622  0.45641  1.0000
  S   S101      1.0  0.99078  0.07653  0.04504  1.0000
  H   H568      1.0  0.92370  0.27601  0.99648  1.0000
  H   H569      1.0  0.88690  0.38669  0.02734  1.0000
  H   H570      1.0  0.99092  0.23367  0.19744  1.0000
  H   H571      1.0  0.00245  0.26745  0.33812  1.0000
  H   H572      1.0  0.93035  0.28394  0.07468  1.0000
  S   S102      1.0  0.98709  0.15378  0.24323  1.0000
  H   H573      1.0  0.93782  0.05011  0.98098  1.0000
  C   C315      1.0  0.68423  0.00511  0.27927  1.0000
  C   C316      1.0  0.74458  0.49650  0.37525  1.0000
  H   H574      1.0  0.68658  0.49845  0.28841  1.0000
  C   C317      1.0  0.92655  0.30794  0.01036  1.0000
  C   C318      1.0  0.90767  0.38330  0.00053  1.0000
  C   C319      1.0  0.00121  0.23709  0.41527  1.0000
  H   H575      1.0  0.96734  0.37699  0.02686  1.0000
  C   C320      1.0  0.94682  0.40072  0.01549  1.0000
  H   H576      1.0  0.94198  0.42181  0.04302  1.0000
  S   S103      1.0  0.81599  0.00406  0.26563  1.0000
  C   C321      1.0  0.86528  0.32636  0.97857  1.0000
  C   C322      1.0  0.00474  0.33463  0.34325  1.0000
  C   C323      1.0  0.92597  0.48080  0.47751  1.0000
  Fe  Fe53      1.0  0.85156  0.44478  0.78737  1.0000
  S   S104      1.0  0.85052  0.42148  0.85464  1.0000
  C   C324      1.0  0.90071  0.34985  0.58596  1.0000
  Fe  Fe54      1.0  0.91516  0.38265  0.75947  1.0000
  S   S105      1.0  0.91859  0.35615  0.82501  1.0000
  S   S106      1.0  0.95356  0.36462  0.70286  1.0000
  Fe  Fe55      1.0  0.85353  0.35746  0.82468  1.0000
  S   S107      1.0  0.82284  0.29668  0.84224  1.0000
  Fe  Fe56      1.0  0.91526  0.42283  0.84859  1.0000
  S   S108      1.0  0.95611  0.44382  0.90114  1.0000
  S   S109      1.0  0.85027  0.38082  0.75748  1.0000
  S   S110      1.0  0.91619  0.44938  0.78296  1.0000
  H   H577      1.0  0.96718  0.45340  0.62699  1.0000
  C   C325      1.0  0.94884  0.44682  0.48948  1.0000
  C   C326      1.0  0.87215  0.15704  0.85379  1.0000
  H   H578      1.0  0.99908  0.42833  0.52483  1.0000
  H   H579      1.0  0.84316  0.49549  0.56468  1.0000
  H   H580      1.0  0.93661  0.39091  0.62134  1.0000
  N   N27       1.0  0.88728  0.42805  0.60231  1.0000
  H   H581      1.0  0.88698  0.34754  0.55433  1.0000
  C   C327      1.0  0.97251  0.31436  0.68959  1.0000
  C   C328      1.0  0.97118  0.28070  0.71783  1.0000
  H   H582      1.0  0.92504  0.32728  0.58573  1.0000
  C   C329      1.0  0.96869  0.33698  0.93513  1.0000
  H   H583      1.0  0.91501  0.36645  0.91995  1.0000
  H   H584      1.0  0.95765  0.28462  0.74852  1.0000
  H   H585      1.0  0.71412  0.38447  0.81216  1.0000
  H   H586      1.0  0.84403  0.39921  0.56227  1.0000
  C   C330      1.0  0.71482  0.31506  0.89075  1.0000
  C   C331      1.0  0.75268  0.32260  0.87629  1.0000
  C   C332      1.0  0.77368  0.29063  0.85659  1.0000
  C   C333      1.0  0.75599  0.25159  0.85040  1.0000
  C   C334      1.0  0.71787  0.24432  0.86398  1.0000
  H   H587      1.0  0.69771  0.00763  0.78328  1.0000
  H   H588      1.0  0.76592  0.35278  0.88134  1.0000
  H   H589      1.0  0.77187  0.22685  0.83490  1.0000
  H   H590      1.0  0.70463  0.21414  0.85889  1.0000
  H   H591      1.0  0.81064  0.33914  0.94775  1.0000
  H   H592      1.0  0.86519  0.05230  0.88690  1.0000
  H   H593      1.0  0.69913  0.33969  0.90681  1.0000
  C   C335      1.0  0.71312  0.48092  0.82185  1.0000
  C   C336      1.0  0.82995  0.06614  0.83004  1.0000
  H   H594      1.0  0.75369  0.14781  0.89743  1.0000
  H   H595      1.0  0.70047  0.45809  0.84286  1.0000
  H   H596      1.0  0.67996  0.31915  0.75103  1.0000
  H   H597      1.0  0.71201  0.38757  0.75438  1.0000
  C   C337      1.0  0.86562  0.41782  0.64261  1.0000
  H   H598      1.0  0.87759  0.43109  0.53467  1.0000
  C   C338      1.0  0.00600  0.23603  0.66701  1.0000
  H   H599      1.0  0.79748  0.17834  0.89287  1.0000
  H   H600      1.0  0.89214  0.07324  0.84165  1.0000
  C   C339      1.0  0.98118  0.45429  0.51526  1.0000
  H   H601      1.0  0.98444  0.31963  0.50375  1.0000
  H   H602      1.0  0.99890  0.48802  0.76102  1.0000
  C   C340      1.0  0.75189  0.47673  0.80958  1.0000
  N   N28       1.0  0.81303  0.10809  0.84179  1.0000
  C   C341      1.0  0.68423  0.04260  0.83989  1.0000
  H   H603      1.0  0.68317  0.31241  0.80670  1.0000
  H   H604      1.0  0.77794  0.07063  0.76441  1.0000
  H   H605      1.0  0.93540  0.40225  0.56676  1.0000
  C   C342      1.0  0.96988  0.49582  0.91448  1.0000
  C   C343      1.0  0.86771  0.05337  0.85190  1.0000
  H   H606      1.0  0.86473  0.18594  0.87164  1.0000
  H   H607      1.0  0.84295  0.39402  0.63645  1.0000
  H   H608      1.0  0.88315  0.13320  0.87587  1.0000
  H   H609      1.0  0.84977  0.13571  0.79363  1.0000
  C   C344      1.0  0.00675  0.26953  0.63845  1.0000
  C   C345      1.0  0.69410  0.04955  0.88220  1.0000
  H   H610      1.0  0.82026  0.17205  0.82109  1.0000
  H   H611      1.0  0.97720  0.34149  0.90144  1.0000
  H   H612      1.0  0.98001  0.30598  0.94472  1.0000
  C   C346      1.0  0.69723  0.27589  0.88472  1.0000
  C   C347      1.0  0.98797  0.24195  0.70665  1.0000
  H   H613      1.0  0.99167  0.33418  0.62768  1.0000
  H   H614      1.0  0.91382  0.31101  0.92033  1.0000
  H   H615      1.0  0.88555  0.40325  0.66589  1.0000
  C   C348      1.0  0.80625  0.10987  0.88905  1.0000
  H   H616      1.0  0.83621  0.06442  0.79547  1.0000
  C   C349      1.0  0.86063  0.42883  0.56464  1.0000
  H   H617      1.0  0.92184  0.47655  0.57370  1.0000
  H   H618      1.0  0.74398  0.11204  0.76061  1.0000
  H   H619      1.0  0.80875  0.04084  0.83661  1.0000
  H   H620      1.0  0.88045  0.33968  0.61115  1.0000
  H   H621      1.0  0.75362  0.08838  0.83517  1.0000
  H   H622      1.0  0.73906  0.34800  0.77998  1.0000
  C   C350      1.0  0.91670  0.39410  0.59417  1.0000
  H   H623      1.0  0.85091  0.34745  0.91389  1.0000
  C   C351      1.0  0.92439  0.33868  0.93844  1.0000
  H   H624      1.0  0.83333  0.10787  0.90724  1.0000
  H   H625      1.0  0.78947  0.08204  0.89958  1.0000
  C   C352      1.0  0.77402  0.11117  0.82087  1.0000
  C   C353      1.0  0.83799  0.14336  0.82561  1.0000
  H   H626      1.0  0.89676  0.16588  0.83300  1.0000
  H   H627      1.0  0.76868  0.45051  0.82071  1.0000
  C   C354      1.0  0.70520  0.01309  0.81609  1.0000
  C   C355      1.0  0.71202  0.36653  0.78223  1.0000
  C   C356      1.0  0.78481  0.14904  0.90532  1.0000
  H   H628      1.0  0.76085  0.14249  0.82621  1.0000
  C   C357      1.0  0.77316  0.10401  0.77252  1.0000
  H   H629      1.0  0.73300  0.03387  0.93282  1.0000
  H   H630      1.0  0.79415  0.12401  0.75546  1.0000
  H   H631      1.0  0.82012  0.44332  0.68277  1.0000
  H   H632      1.0  0.78665  0.15023  0.94045  1.0000
  H   H633      1.0  0.87508  0.02100  0.84186  1.0000
  C   C358      1.0  0.72513  0.02775  0.90024  1.0000
  H   H634      1.0  0.98712  0.21635  0.72899  1.0000
  C   C359      1.0  0.99040  0.30847  0.64983  1.0000
  C   C360      1.0  0.99021  0.49508  0.52942  1.0000
  H   H635      1.0  0.67817  0.07211  0.90086  1.0000
  H   H636      1.0  0.93210  0.45842  0.66937  1.0000
  H   H637      1.0  0.83899  0.38505  0.95503  1.0000
  C   C361      1.0  0.84057  0.35138  0.94693  1.0000
  H   H638      1.0  0.88957  0.49570  0.61162  1.0000
  C   C362      1.0  0.67763  0.33615  0.78171  1.0000
  C   C363      1.0  0.84656  0.45473  0.66653  1.0000
  C   C364      1.0  0.90881  0.46892  0.60494  1.0000
  C   C365      1.0  0.83031  0.46386  0.56337  1.0000
  C   C366      1.0  0.94133  0.47075  0.63811  1.0000
  H   H639      1.0  0.81490  0.46193  0.53259  1.0000
  H   H640      1.0  0.86557  0.46594  0.69239  1.0000
  H   H641      1.0  0.98299  0.36200  0.95329  1.0000
  H   H642      1.0  0.83762  0.48141  0.64677  1.0000
  H   H643      1.0  0.80817  0.45965  0.58840  1.0000
  H   H644      1.0  0.86324  0.29287  0.96890  1.0000
  H   H645      1.0  0.89697  0.40621  0.97677  1.0000
  C   C367      1.0  0.00716  0.30523  0.48354  1.0000
  H   H646      1.0  0.00725  0.27204  0.49285  1.0000
  Fe  Fe57      1.0  0.84905  0.94619  0.28556  1.0000
  S   S111      1.0  0.84503  0.92118  0.35197  1.0000
  H   H647      1.0  0.90460  0.80144  0.04021  1.0000
  Fe  Fe58      1.0  0.91286  0.88357  0.25921  1.0000
  S   S112      1.0  0.91319  0.85516  0.32414  1.0000
  S   S113      1.0  0.95386  0.86690  0.20442  1.0000
  Fe  Fe59      1.0  0.84815  0.85792  0.32031  1.0000
  S   S114      1.0  0.81313  0.79810  0.32964  1.0000
  Fe  Fe60      1.0  0.91012  0.92146  0.34920  1.0000
  S   S115      1.0  0.94973  0.94294  0.40298  1.0000
  S   S116      1.0  0.84819  0.88337  0.25369  1.0000
  S   S117      1.0  0.91377  0.94970  0.28442  1.0000
  H   H648      1.0  0.85723  0.68778  0.27027  1.0000
  C   C368      1.0  0.97818  0.94941  0.03190  1.0000
  H   H649      1.0  0.68939  0.93838  0.28672  1.0000
  H   H650      1.0  0.85260  0.52351  0.36286  1.0000
  H   H651      1.0  0.69966  0.83472  0.41737  1.0000
  C   C369      1.0  0.74517  0.96684  0.27898  1.0000
  C   C370      1.0  0.88077  0.91081  0.13106  1.0000
  H   H652      1.0  0.94946  0.75327  0.47440  1.0000
  C   C371      1.0  0.97246  0.81661  0.19096  1.0000
  C   C372      1.0  0.96154  0.78038  0.21267  1.0000
  H   H653      1.0  0.84914  0.77804  0.00237  1.0000
  H   H654      1.0  0.88285  0.89638  0.16311  1.0000
  H   H655      1.0  0.85639  0.96083  0.19616  1.0000
  H   H656      1.0  0.94124  0.78251  0.23871  1.0000
  C   C373      1.0  0.92437  0.71491  0.08221  1.0000
  C   C374      1.0  0.72809  0.53036  0.39730  1.0000
  C   C375      1.0  0.71164  0.81337  0.39426  1.0000
  C   C376      1.0  0.74840  0.82142  0.37677  1.0000
  C   C377      1.0  0.76496  0.79309  0.34817  1.0000
  C   C378      1.0  0.74381  0.75757  0.33622  1.0000
  C   C379      1.0  0.70705  0.74965  0.35342  1.0000
  H   H657      1.0  0.91121  0.90230  0.07008  1.0000
  H   H658      1.0  0.76448  0.84871  0.38654  1.0000
  H   H659      1.0  0.75601  0.73607  0.31345  1.0000
  H   H660      1.0  0.78924  0.62449  0.43495  1.0000
  H   H661      1.0  0.89583  0.72977  0.08687  1.0000
  H   H662      1.0  0.91372  0.80541  0.98554  1.0000
  C   C380      1.0  0.81025  0.96459  0.15114  1.0000
  H   H663      1.0  0.00671  0.96837  0.27160  1.0000
  H   H664      1.0  0.80215  0.98117  0.12170  1.0000
  C   C381      1.0  0.91130  0.88961  0.10263  1.0000
  H   H665      1.0  0.91095  0.97789  0.07640  1.0000
  H   H666      1.0  0.69139  0.72193  0.34415  1.0000
  C   C382      1.0  0.68203  0.54167  0.34069  1.0000
  H   H667      1.0  0.95212  0.77378  0.08442  1.0000
  C   C383      1.0  0.77654  0.60411  0.31671  1.0000
  H   H668      1.0  0.86884  0.73119  0.02392  1.0000
  C   C384      1.0  0.74301  0.63429  0.30685  1.0000
  H   H669      1.0  0.78679  0.59111  0.28589  1.0000
  H   H670      1.0  0.76301  0.57703  0.33295  1.0000
  H   H671      1.0  0.92488  0.94954  0.18516  1.0000
  H   H672      1.0  0.72613  0.64231  0.33564  1.0000
  H   H673      1.0  0.72261  0.61844  0.28503  1.0000
  H   H674      1.0  0.75240  0.66338  0.29121  1.0000
  H   H675      1.0  0.85253  0.90030  0.11915  1.0000
  C   C385      1.0  0.99890  0.81304  0.15716  1.0000
  H   H676      1.0  0.90471  0.85574  0.10045  1.0000
  H   H677      1.0  0.96822  0.71343  0.21775  1.0000
  H   H678      1.0  0.98268  0.73218  0.06805  1.0000
  H   H679      1.0  0.68491  0.57915  0.39719  1.0000
  H   H680      1.0  0.85013  0.61420  0.28962  1.0000
  H   H681      1.0  0.74891  0.61945  0.39942  1.0000
  H   H682      1.0  0.87211  0.55881  0.32502  1.0000
  H   H683      1.0  0.98742  0.83956  0.46776  1.0000
  H   H684      1.0  0.85047  0.59752  0.38878  1.0000
  H   H685      1.0  0.82417  0.66957  0.38749  1.0000
  H   H686      1.0  0.92540  0.69834  0.99545  1.0000
  C   C386      1.0  0.77216  0.64051  0.41011  1.0000
  H   H687      1.0  0.82162  0.70391  0.30717  1.0000
  C   C387      1.0  0.69094  0.77726  0.38297  1.0000
  N   N29       1.0  0.80994  0.62105  0.34217  1.0000
  C   C388      1.0  0.82748  0.58567  0.36730  1.0000
  C   C389      1.0  0.84498  0.54949  0.34108  1.0000
  C   C390      1.0  0.83092  0.67716  0.28730  1.0000
  H   H688      1.0  0.86730  0.64574  0.33204  1.0000
  H   H689      1.0  0.76066  0.93758  0.28137  1.0000
  H   H690      1.0  0.00581  0.81266  0.06296  1.0000
  C   C391      1.0  0.98956  0.82312  0.03480  1.0000
  C   C392      1.0  0.79822  0.65477  0.37314  1.0000
  C   C393      1.0  0.84103  0.63802  0.31335  1.0000
  H   H691      1.0  0.78304  0.68077  0.35716  1.0000
  C   C394      1.0  0.97694  0.74120  0.20072  1.0000
  C   C395      1.0  0.95046  0.71921  0.99036  1.0000
  H   H692      1.0  0.94614  0.95766  0.13449  1.0000
  H   H693      1.0  0.82427  0.53669  0.31775  1.0000
  C   C396      1.0  0.87448  0.75681  0.00134  1.0000
  C   C397      1.0  0.93668  0.98263  0.98075  1.0000
  H   H694      1.0  0.86834  0.94775  0.03210  1.0000
  H   H695      1.0  0.80942  0.67008  0.26251  1.0000
  H   H696      1.0  0.73986  0.53961  0.42760  1.0000
  C   C398      1.0  0.70474  0.96737  0.28212  1.0000
  H   H697      1.0  0.80558  0.57078  0.38829  1.0000
  C   C399      1.0  0.85223  0.97367  0.16367  1.0000
  H   H698      1.0  0.99683  0.97524  0.46988  1.0000
  N   N30       1.0  0.94817  0.75805  0.01745  1.0000
  H   H699      1.0  0.94662  0.78357  0.42824  1.0000
  H   H700      1.0  0.94068  0.89193  0.11598  1.0000
  C   C400      1.0  0.95125  0.94598  0.99871  1.0000
  C   C401      1.0  0.69694  0.55283  0.38017  1.0000
  S   S118      1.0  0.93582  0.89546  0.98169  1.0000
  H   H701      1.0  0.93444  0.70575  0.11431  1.0000
  H   H702      1.0  0.79102  0.97707  0.17644  1.0000
  H   H703      1.0  0.75853  0.66831  0.42511  1.0000
  C   C402      1.0  0.95355  0.74594  0.06332  1.0000
  C   C403      1.0  0.91108  0.78219  0.01164  1.0000
  N   N31       1.0  0.88348  0.95777  0.13443  1.0000
  H   H704      1.0  0.92202  0.68559  0.06375  1.0000
  H   H705      1.0  0.97586  0.69996  0.99955  1.0000
  C   C404      1.0  0.92167  0.96745  0.15510  1.0000
  C   C405      1.0  0.95211  0.78571  0.46287  1.0000
  C   C406      1.0  0.85297  0.96297  0.05899  1.0000
  C   C407      1.0  0.96554  0.99477  0.41448  1.0000
  C   C408      1.0  0.99216  0.80522  0.46991  1.0000
  C   C409      1.0  0.88219  0.97952  0.09201  1.0000
  C   C410      1.0  0.00356  0.73762  0.16711  1.0000
  H   H706      1.0  0.83105  0.94109  0.07113  1.0000
  H   H707      1.0  0.80382  0.93079  0.14897  1.0000
  C   C411      1.0  0.69805  0.50738  0.31895  1.0000
  C   C412      1.0  0.98141  0.78603  0.00495  1.0000
  H   H708      1.0  0.83722  0.98978  0.04491  1.0000
  H   H709      1.0  0.96281  0.83901  0.04521  1.0000
  C   C413      1.0  0.99049  0.98893  0.04676  1.0000
  H   H710      1.0  0.98951  0.92139  0.04632  1.0000
  H   H711      1.0  0.92918  0.80540  0.47733  1.0000
  H   H712      1.0  0.00707  0.98668  0.32496  1.0000
  H   H713      1.0  0.67525  0.91097  0.41627  1.0000
  H   H714      1.0  0.00735  0.84080  0.14004  1.0000
  Fe  Fe61      1.0  0.82154  0.91650  0.88415  1.0000
  S   S119      1.0  0.82877  0.87987  0.94453  1.0000
  C   C414      1.0  0.96358  0.74639  0.70967  1.0000
  Fe  Fe62      1.0  0.87772  0.85764  0.83625  1.0000
  S   S120      1.0  0.88907  0.82009  0.89459  1.0000
  S   S121      1.0  0.90440  0.83825  0.77262  1.0000
  Fe  Fe63      1.0  0.82481  0.82268  0.90346  1.0000
  S   S122      1.0  0.79431  0.76183  0.91978  1.0000
  Fe  Fe64      1.0  0.89191  0.88192  0.92935  1.0000
  H   H715      1.0  0.86434  0.70071  0.90401  1.0000
  S   S123      1.0  0.81287  0.85866  0.84405  1.0000
  S   S124      1.0  0.88528  0.91978  0.87007  1.0000
  C   C415      1.0  0.95381  0.72678  0.94220  1.0000
  H   H716      1.0  0.00458  0.58323  0.78475  1.0000
  S   S125      1.0  0.97581  0.58100  0.53591  1.0000
  N   N32       1.0  0.83751  0.66976  0.81562  1.0000
  C   C416      1.0  0.83756  0.71686  0.81461  1.0000
  C   C417      1.0  0.74639  0.99862  0.87635  1.0000
  C   C418      1.0  0.80303  0.65200  0.79290  1.0000
  C   C419      1.0  0.76322  0.66763  0.80811  1.0000
  C   C420      1.0  0.93064  0.79143  0.76165  1.0000
  C   C421      1.0  0.93927  0.76222  0.79324  1.0000
  H   H717      1.0  0.71006  0.92888  0.92575  1.0000
  C   C422      1.0  0.95899  0.78860  0.56839  1.0000
  H   H718      1.0  0.85959  0.58631  0.79166  1.0000
  H   H719      1.0  0.93041  0.76815  0.82557  1.0000
  H   H720      1.0  0.93655  0.80554  0.69516  1.0000
  H   H721      1.0  0.98103  0.84513  0.54050  1.0000
  C   C423      1.0  0.99443  0.57746  0.93770  1.0000
  C   C424      1.0  0.72798  0.78038  0.87504  1.0000
  C   C425      1.0  0.74788  0.75103  0.89937  1.0000
  C   C426      1.0  0.73029  0.71243  0.90823  1.0000
  C   C427      1.0  0.69277  0.70362  0.89374  1.0000
  H   H722      1.0  0.74549  0.68945  0.92691  1.0000
  H   H723      1.0  0.74128  0.81000  0.86759  1.0000
  H   H724      1.0  0.96652  0.70330  0.80787  1.0000
  H   H725      1.0  0.68849  0.87597  0.81534  1.0000
  H   H726      1.0  0.87519  0.64631  0.91435  1.0000
  C   C428      1.0  0.70771  0.54458  0.78115  1.0000
  H   H727      1.0  0.69063  0.57036  0.76946  1.0000
  H   H728      1.0  0.80231  0.61735  0.79597  1.0000
  C   C429      1.0  0.69063  0.51433  0.80711  1.0000
  H   H729      1.0  0.97676  0.79972  0.97288  1.0000
  C   C430      1.0  0.95984  0.72543  0.78307  1.0000
  H   H730      1.0  0.83197  0.62173  0.86429  1.0000
  H   H731      1.0  0.75253  0.96894  0.81546  1.0000
  C   C431      1.0  0.96700  0.52901  0.51783  1.0000
  S   S126      1.0  0.78728  0.97549  0.89979  1.0000
  C   C432      1.0  0.87334  0.65392  0.79353  1.0000
  H   H732      1.0  0.90872  0.59916  0.78103  1.0000
  H   H733      1.0  0.81339  0.72991  0.83375  1.0000
  H   H734      1.0  0.98333  0.73703  0.93339  1.0000
  C   C433      1.0  0.69038  0.77175  0.86102  1.0000
  H   H735      1.0  0.86395  0.72940  0.83000  1.0000
  H   H736      1.0  0.75674  0.65731  0.84089  1.0000
  H   H737      1.0  0.93694  0.77918  0.54514  1.0000
  H   H738      1.0  0.89156  0.60141  0.83432  1.0000
  H   H739      1.0  0.73024  0.87792  0.92134  1.0000
  H   H740      1.0  0.98918  0.73193  0.52122  1.0000
  C   C434      1.0  0.74665  0.54049  0.76894  1.0000
  H   H741      1.0  0.89785  0.67211  0.87155  1.0000
  C   C435      1.0  0.88336  0.60750  0.80095  1.0000
  H   H742      1.0  0.75946  0.56343  0.74807  1.0000
  H   H743      1.0  0.94866  0.69694  0.92514  1.0000
  C   C436      1.0  0.97201  0.71713  0.74125  1.0000
  C   C437      1.0  0.83601  0.65615  0.86128  1.0000
  H   H744      1.0  0.93273  0.75011  0.93086  1.0000
  H   H745      1.0  0.80493  0.65787  0.75818  1.0000
  H   H746      1.0  0.83682  0.77137  0.77374  1.0000
  C   C438      1.0  0.96593  0.57154  0.90659  1.0000
  C   C439      1.0  0.99249  0.81356  0.54841  1.0000
  H   H747      1.0  0.76004  0.70200  0.80567  1.0000
  C   C440      1.0  0.83596  0.73680  0.77021  1.0000
  C   C441      1.0  0.87031  0.66988  0.88911  1.0000
  C   C442      1.0  0.94301  0.78323  0.71986  1.0000
  C   C443      1.0  0.95368  0.53098  0.89503  1.0000
  H   H748      1.0  0.71680  0.90476  0.87440  1.0000
  C   C444      1.0  0.93503  0.52152  0.49158  1.0000
  H   H749      1.0  0.87104  0.65802  0.75857  1.0000
  C   C445      1.0  0.76871  0.50626  0.78269  1.0000
  H   H750      1.0  0.81005  0.66934  0.87727  1.0000
  H   H751      1.0  0.86124  0.72802  0.75049  1.0000
  C   C446      1.0  0.70824  0.89917  0.90764  1.0000
  H   H752      1.0  0.89902  0.67265  0.80223  1.0000
  H   H753      1.0  0.67922  0.67418  0.90156  1.0000
  H   H754      1.0  0.80892  0.72911  0.75339  1.0000
  H   H755      1.0  0.95331  0.59849  0.89133  1.0000
  H   H756      1.0  0.74064  0.65361  0.78769  1.0000
  H   H757      1.0  0.67558  0.93054  0.82067  1.0000
  H   H758      1.0  0.93175  0.52694  0.87113  1.0000
  H   H759      1.0  0.99358  0.53716  0.73318  1.0000
  H   H760      1.0  0.94438  0.80841  0.59257  1.0000
  C   C447      1.0  0.73612  0.99102  0.83426  1.0000
  H   H761      1.0  0.91590  0.98064  0.95537  1.0000
  H   H762      1.0  0.87556  0.74384  0.96877  1.0000
  S   S127      1.0  0.99638  0.66920  0.73016  1.0000
  H   H763      1.0  0.97260  0.74049  0.67737  1.0000
  H   H764      1.0  0.96975  0.76055  0.58537  1.0000
  C   C448      1.0  0.99840  0.50182  0.94545  1.0000
  H   H765      1.0  0.00544  0.52159  0.82472  1.0000
  H   H766      1.0  0.91688  0.54741  0.48235  1.0000
  H   H767      1.0  0.67511  0.79472  0.84254  1.0000
  H   H768      1.0  0.95038  0.50377  0.64254  1.0000
  S   S128      1.0  0.81691  0.50080  0.76522  1.0000
