data_image0
_chemical_formula_structural       CFeS2FeS2FeSFeS3CHSH2SHCSCFe2SH2FeS2HSCFeSFeS3H4C3HCH9C6H4C6H4C6H5C4H4FeNC8H23CSC2HCH5CHCNH2C2H2C2H3SHC2H3C2H2CFeH2CH5SH5CHCHCFeC2H4CH3C3H4CHCFeHSH2NHCHNH5CH3CH4SHNC6H4NC3HCH10CH2CHSHCH4FeS2FeSHFeSFeSCFeS2FeS2Fe2S3HFeS2FeHFeS2CHCFeS2FeSHCS2HC3HC2H5CH2C2H4C6H4C6H5CHCSHC6H5CHCH4NSC2NC4HC3H8CH11NC8H20C2HCH4SH3CH4CHCH2CHCH3CHCH2C2HCH5CHNHC4H2CNSHCH3CH2CFeC2H4CHCH2C2H2CHC2H2C2HNH4SH2C3HCSH3CHFeS2CHCHSFeSHCHC2HNHSH2C2SHCFeS2FeS2FeSFeS3HC7HFeH2C6H6C2H3C6H4NHCH3C3H3C3H3CH4C3H3CH3SHCH2C2SHCH3C3SC2H2NC8H20CHNCH3CH4CH3FeCH3FeHCHCSHCHC2H4CH2CH4CH2CHFeHCH9SHSHSHNH2SH7NHFeSCH9CH2SCHFeS2FeS2FeSFeS3H3C2H2SH3C6H4C6H4C6H6C4H4NC8H20NC6H4CH8SH2SH2C3NHC3SH8CNH4NCHCH2C2NC4H9CHCH3FeC2H2CSCFeSH2SH2CHCH6SHSHC2H3FeH4C4HCH3CH2NH3C2H6C2HCH3CH3CHC2H4FeHCH2CH2C2H2FeHSFe2S2CSH2S2FeSFeC2HFeS2FeS2FeSFeS3HCSH3CH4C3HC2H3C6H10CH3C6H4C3H5C3HCH7CH2CH2CH3CNSC3SH4CNC3HCH6CNH3SCHFeSCHC2H2CHCH2NC8H20NC7H16NC4HC3H12CH2CHC2HSHCHSCHFeHC2H2CH5CHSHC2H3C2H3CH2CH2CHCH3FeS2FeCSFeSH2SHFeS2FeS2FeSFeS3C6H5C6H3C6H4CH2C3HC3HNH5SH6C2H2C2H4NHSH2CH2NC6HCH3SH7NH2C2HC2H4CHCH2C2H3CH6CH3CH3C2HNH3CH3CH2CH3C2H6FeHNHC2HCH3CHC2HCH3C2HCH8C2H3CSCH3CH4CH2C2H11CFeSCFeSHFeS2H2SHFeS2FeSFeSHFeSFeS2FeSFeS3FeS2H2CHFeSHCH4C3H2C6H4S2C6H4C4H6C6H4C5H3CH3C4H5SH2C2HCSH2S2C6HCHSH2C3H3FeH4CSCH5CH2FeH2C2HCHNH2CHCH5FeH7CNC8H15SH2NC6H15NC8H19C3H4C2H3C2NC2HCHCSH9NC2H2C5FeSFeS2FeSFeS3FeS2CFeCFeS3FeS2FeS2HFeS2HSHFeCFeS3H3SHFeHC7H2CH2CHSHC3H2CHNHC2H4C5SH3C6H4C6H4C6H8FeH2CH3CH9C3HCH3N2H3C2NC2H3C2HNCH2CH3CSCFeH6CH2CH7CHCSHC3H3CH5CHC2H4FeC2H2C2H3CH4CH3CH2CH5NHC2S2CSCH6CH2CHSHCH5FeS2FeSFeS2FeSFeS3FeH2FeS2FeH3S2H4CH2CS2CFeSHSHCNH5CH2CH2C2H4C6H4C6H4CNHCH2CH2C6H5C2H2SH3SHC2H4C2H3NH3C3H2CHCSC4NC7H18C2H5CHSCH2CFe2HSH2C3HCHC2H2C2H2CHC2FeH4FeHCSFeHCH2C2H4CH5SC2HC2H2CSH3CHFeS2FeHSFeH3S2FeS2FeS2Fe2S3HNCFeCFeSHSC2SH2SH2FeSHSC4H2SC2H2CSH4C6H4C6H8C5H2C6H5CHC2HC2H3C2H2CH5CHNHCH2CHSHSH2CHC2HC2H6C2H2FeHFeSH5N2C8H20N2H3CHCH5SC3HCFeH3CH2CH2C3HC4HSH4CH3SHCH2CHNHCH2C4H2CHC3H4NH4CH3FeH4CH6CHCH2CHFeH2CH3CHCH6C3HC3HS2C2H2FeSHFeS2FeS2FeSFeS3C6H7C8H4NC7H5C4H4CNC5H5C2H20CHNH2CH2C3HNHC2NCH2CH4CHCH4CHC2H2CH2CH2CHCH2FeHCHCH6CHSCH3CH9CHC4H3CHCHSCHSH3CH3CH2CH3CHC2HCH5NH9CHCH4SCH10CH3CH2C2SHCSCH2CH2CHCFeS2FeS2FeSFeS3H2C2HC3HCH2C4H3SH2FeNH3C8H5C6H5CNH4FeC2SH14CH2CH4CHCH3CHFeCHC2HCH11CH2CHCSHCHCSH2C2H6CHCHC2HCH5NC2HC2H2NSCH2S2HCH2CH5SHFeS2FeS2FeSFeS3FeHFeHSH3C7H4C6H4C6H6SH4SCH2CHCHCH3NHCHCH4CH2C2HCH3NH4NH2NC3HCSHCHCH4C2H2C2NC7H7CH7C2HC2H2CHSHCH4NC8H10CNCHC4HCH2CH7SHSH10C2H2CHSH4CH2S3H2CSH2FeHSH3CHCH4Fe2HSCHCFeHCHSFeS2FeS2FeSFeS3H3CFeHSH3CS2CSH2C2H2C2H4C3HC2H4C6H4C6H3C2H4C2SH3CHCH2CH2C2HCNH3SHSH2FeCSH3CH3CH3CH2CH2C3H4CH5CHCH2SNH8C3H3SCSHCH2CH2CHCH3FeH2CH2SHFeHCH2CH2CNC5SCNH2NCH3C2H4CH6C2HCFeH2CH5CH3CH2C2H3CFeS3HFeCFeS2FeS2FeS2FeSFeHS2FeS2FeSFeSFeS4CFeS2FeS2FeSFeCSFeC2HSCHC5H2CHC6H4C4HCHCHC6H5CH2C3HCSC6H7C2HCH2NC5NC2H2CH10CH3CH2CH4NC5FeCH4CH4CHCH12CHCH7CH2C3H2C2HCH7CH6NC8H20CH2SH2C2NH3SCSH4NH6CH5CH4CFeCSCHFeS2FeSCFeSFeSHSHSC2HFeS2FeS2FeS2Fe2S3FeS2FeSHFeSFeS3C3HCH5C7H3C6H5C6H8C6H5C3FeHC2HCH3C2HCH12NC8H29CH2NC4H2C2H4NHCH2CHCH3CFeCHC2NHC2SHCH2CH4C3H4CSHCH2SHNC8H20C2H3SNC8H22CH3S2H3NC3H3SH3C2H2FeC2FeHSCHCH3CH
_chemical_formula_sum              "C1344 Fe192 S384 H2304 N96"
_cell_length_a       60.9525
_cell_length_b       60.7764
_cell_length_c       60.6127
_cell_angle_alpha    80.1827
_cell_angle_beta     80.2591
_cell_angle_gamma    80.2015

_space_group_name_H-M_alt    "P 1"
_space_group_IT_number       1

loop_
  _space_group_symop_operation_xyz
  'x, y, z'

loop_
  _atom_site_type_symbol
  _atom_site_label
  _atom_site_symmetry_multiplicity
  _atom_site_fract_x
  _atom_site_fract_y
  _atom_site_fract_z
  _atom_site_occupancy
  C   C1        1.0  0.20554  0.16149  0.22833  1.0000
  Fe  Fe1       1.0  0.12117  0.22895  0.22188  1.0000
  S   S1        1.0  0.10003  0.20490  0.21473  1.0000
  S   S2        1.0  0.14710  0.24791  0.19958  1.0000
  Fe  Fe2       1.0  0.10354  0.22395  0.27208  1.0000
  S   S3        1.0  0.08004  0.19992  0.26963  1.0000
  S   S4        1.0  0.10760  0.23580  0.30436  1.0000
  Fe  Fe3       1.0  0.10948  0.18400  0.24702  1.0000
  S   S5        1.0  0.12456  0.14755  0.25377  1.0000
  Fe  Fe4       1.0  0.07216  0.22276  0.23766  1.0000
  S   S6        1.0  0.03855  0.23753  0.22580  1.0000
  S   S7        1.0  0.13313  0.20649  0.25167  1.0000
  S   S8        1.0  0.09296  0.24841  0.24243  1.0000
  C   C2        1.0  0.22240  0.30088  0.13952  1.0000
  H   H1        1.0  0.21886  0.28487  0.13652  1.0000
  S   S9        1.0  0.20198  0.12304  0.17458  1.0000
  H   H2        1.0  0.24121  0.29232  0.28717  1.0000
  H   H3        1.0  0.21698  0.12527  0.07269  1.0000
  S   S10       1.0  0.19958  0.27347  0.06821  1.0000
  H   H4        1.0  0.09147  0.13148  0.32075  1.0000
  C   C3        1.0  0.23352  0.33762  0.12525  1.0000
  S   S11       1.0  0.22904  0.22570  0.05376  1.0000
  C   C4        1.0  0.23191  0.34222  0.14743  1.0000
  Fe  Fe5       1.0  0.22357  0.26213  0.03835  1.0000
  Fe  Fe6       1.0  0.20765  0.23760  0.08465  1.0000
  S   S12       1.0  0.18186  0.21666  0.10433  1.0000
  H   H5        1.0  0.08391  0.19641  0.32033  1.0000
  H   H6        1.0  0.19558  0.43564  0.24383  1.0000
  Fe  Fe7       1.0  0.20913  0.24372  0.35875  1.0000
  S   S13       1.0  0.18249  0.26734  0.37665  1.0000
  S   S14       1.0  0.20280  0.21830  0.33823  1.0000
  H   H7        1.0  0.21317  0.22881  0.00619  1.0000
  S   S15       1.0  0.22356  0.29082  0.38799  1.0000
  C   C5        1.0  0.20013  0.19810  0.20497  1.0000
  Fe  Fe8       1.0  0.20517  0.26158  0.40348  1.0000
  S   S16       1.0  0.19157  0.25299  0.44054  1.0000
  Fe  Fe9       1.0  0.20340  0.29405  0.35948  1.0000
  S   S17       1.0  0.18936  0.32525  0.33774  1.0000
  S   S18       1.0  0.23028  0.23552  0.38689  1.0000
  S   S19       1.0  0.22863  0.27084  0.33988  1.0000
  H   H8        1.0  0.21525  0.29328  0.17596  1.0000
  H   H9        1.0  0.21533  0.41595  0.27085  1.0000
  H   H10       1.0  0.17414  0.31620  0.48693  1.0000
  H   H11       1.0  0.24428  0.28906  0.47068  1.0000
  C   C6        1.0  0.21203  0.33613  0.31995  1.0000
  C   C7        1.0  0.20903  0.34883  0.29882  1.0000
  C   C8        1.0  0.22037  0.30567  0.16181  1.0000
  H   H12       1.0  0.07822  0.25959  0.18464  1.0000
  C   C9        1.0  0.11137  0.25798  0.13311  1.0000
  H   H13       1.0  0.19245  0.35274  0.29378  1.0000
  H   H14       1.0  0.08757  0.17686  0.34503  1.0000
  H   H15       1.0  0.13990  0.18450  0.36474  1.0000
  H   H16       1.0  0.11767  0.19337  0.34831  1.0000
  H   H17       1.0  0.20315  0.10110  0.10949  1.0000
  H   H18       1.0  0.11336  0.10771  0.32484  1.0000
  H   H19       1.0  0.15432  0.12488  0.31963  1.0000
  H   H20       1.0  0.07507  0.16987  0.32254  1.0000
  H   H21       1.0  0.03217  0.19262  0.24977  1.0000
  C   C10       1.0  0.13413  0.23042  0.31371  1.0000
  C   C11       1.0  0.13675  0.23929  0.33281  1.0000
  C   C12       1.0  0.15771  0.23558  0.34055  1.0000
  C   C13       1.0  0.17615  0.22274  0.32938  1.0000
  C   C14       1.0  0.17346  0.21347  0.31057  1.0000
  C   C15       1.0  0.15258  0.21747  0.30264  1.0000
  H   H22       1.0  0.12255  0.24918  0.34163  1.0000
  H   H23       1.0  0.15946  0.24241  0.35534  1.0000
  H   H24       1.0  0.18763  0.20336  0.30199  1.0000
  H   H25       1.0  0.15085  0.21030  0.28818  1.0000
  C   C16       1.0  0.14634  0.14069  0.23198  1.0000
  C   C17       1.0  0.16288  0.12195  0.23585  1.0000
  C   C18       1.0  0.18047  0.11666  0.21846  1.0000
  C   C19       1.0  0.18112  0.12977  0.19707  1.0000
  C   C20       1.0  0.16460  0.14846  0.19327  1.0000
  C   C21       1.0  0.14746  0.15409  0.21077  1.0000
  H   H26       1.0  0.16208  0.11151  0.25222  1.0000
  H   H27       1.0  0.19313  0.10209  0.22139  1.0000
  H   H28       1.0  0.16502  0.15861  0.17673  1.0000
  H   H29       1.0  0.13475  0.16843  0.20759  1.0000
  C   C22       1.0  0.15780  0.23803  0.17386  1.0000
  C   C23       1.0  0.17139  0.25090  0.15753  1.0000
  C   C24       1.0  0.17892  0.24425  0.13621  1.0000
  C   C25       1.0  0.17300  0.22461  0.13122  1.0000
  C   C26       1.0  0.15979  0.21143  0.14772  1.0000
  C   C27       1.0  0.15225  0.21809  0.16911  1.0000
  H   H30       1.0  0.17570  0.26635  0.16116  1.0000
  H   H31       1.0  0.18892  0.25460  0.12348  1.0000
  H   H32       1.0  0.15527  0.19616  0.14391  1.0000
  H   H33       1.0  0.14197  0.20795  0.18175  1.0000
  H   H34       1.0  0.08236  0.30031  0.18440  1.0000
  C   C28       1.0  0.23322  0.27634  0.47399  1.0000
  C   C29       1.0  0.22148  0.27327  0.45692  1.0000
  C   C30       1.0  0.20711  0.25690  0.46118  1.0000
  C   C31       1.0  0.20443  0.24376  0.48258  1.0000
  H   H35       1.0  0.18708  0.16152  0.22964  1.0000
  H   H36       1.0  0.24568  0.40070  0.29328  1.0000
  H   H37       1.0  0.22341  0.28369  0.44056  1.0000
  H   H38       1.0  0.19339  0.23101  0.48595  1.0000
  Fe  Fe10      1.0  0.24717  0.26515  0.36955  1.0000
  N   N1        1.0  0.16226  0.29508  0.27584  1.0000
  C   C32       1.0  0.15346  0.29324  0.25445  1.0000
  C   C33       1.0  0.17194  0.31692  0.27179  1.0000
  C   C34       1.0  0.14254  0.29575  0.29469  1.0000
  C   C35       1.0  0.17955  0.27462  0.28064  1.0000
  C   C36       1.0  0.14008  0.27349  0.25581  1.0000
  C   C37       1.0  0.19217  0.31866  0.25276  1.0000
  C   C38       1.0  0.14537  0.30494  0.31609  1.0000
  C   C39       1.0  0.19433  0.27469  0.29891  1.0000
  H   H39       1.0  0.14229  0.30904  0.24888  1.0000
  H   H40       1.0  0.16745  0.29122  0.24019  1.0000
  H   H41       1.0  0.17742  0.32039  0.28720  1.0000
  H   H42       1.0  0.15871  0.33146  0.26771  1.0000
  H   H43       1.0  0.12740  0.30643  0.28850  1.0000
  H   H44       1.0  0.13768  0.27863  0.30044  1.0000
  H   H45       1.0  0.17123  0.25929  0.28616  1.0000
  H   H46       1.0  0.19101  0.27075  0.26497  1.0000
  H   H47       1.0  0.12423  0.27512  0.26787  1.0000
  H   H48       1.0  0.13516  0.27372  0.23893  1.0000
  H   H49       1.0  0.15017  0.25681  0.26012  1.0000
  H   H50       1.0  0.20590  0.30436  0.25510  1.0000
  H   H51       1.0  0.18715  0.32002  0.23576  1.0000
  H   H52       1.0  0.19926  0.33431  0.25288  1.0000
  H   H53       1.0  0.14575  0.32342  0.31276  1.0000
  H   H54       1.0  0.16036  0.29634  0.32363  1.0000
  H   H55       1.0  0.13060  0.30216  0.32920  1.0000
  H   H56       1.0  0.18646  0.26743  0.31583  1.0000
  H   H57       1.0  0.19863  0.29137  0.29996  1.0000
  H   H58       1.0  0.21076  0.26404  0.29485  1.0000
  H   H59       1.0  0.22833  0.18972  0.17805  1.0000
  H   H60       1.0  0.22058  0.18309  0.12053  1.0000
  H   H61       1.0  0.23959  0.48725  0.17893  1.0000
  C   C40       1.0  0.23593  0.18431  0.22164  1.0000
  S   S20       1.0  0.24823  0.09244  0.21586  1.0000
  C   C41       1.0  0.22199  0.45602  0.24497  1.0000
  C   C42       1.0  0.01676  0.20047  0.24332  1.0000
  H   H62       1.0  0.20736  0.12923  0.25038  1.0000
  C   C43       1.0  0.07479  0.23556  0.16402  1.0000
  H   H63       1.0  0.21886  0.17907  0.08286  1.0000
  H   H64       1.0  0.13984  0.31525  0.46470  1.0000
  H   H65       1.0  0.12433  0.24545  0.14100  1.0000
  H   H66       1.0  0.22687  0.11574  0.12506  1.0000
  H   H67       1.0  0.14464  0.29043  0.45124  1.0000
  C   C44       1.0  0.10019  0.29261  0.18249  1.0000
  H   H68       1.0  0.23339  0.21700  0.43629  1.0000
  C   C45       1.0  0.22758  0.35617  0.28402  1.0000
  N   N2        1.0  0.21895  0.14429  0.09945  1.0000
  H   H69       1.0  0.10355  0.24227  0.17696  1.0000
  H   H70       1.0  0.24560  0.13572  0.12041  1.0000
  C   C46       1.0  0.05649  0.29504  0.15544  1.0000
  C   C47       1.0  0.22921  0.31684  0.12118  1.0000
  H   H71       1.0  0.10210  0.24809  0.12493  1.0000
  H   H72       1.0  0.11039  0.30104  0.14669  1.0000
  C   C48       1.0  0.20988  0.18997  0.18211  1.0000
  C   C49       1.0  0.23569  0.12727  0.11148  1.0000
  H   H73       1.0  0.18849  0.16671  0.10930  1.0000
  H   H74       1.0  0.11274  0.28535  0.10380  1.0000
  H   H75       1.0  0.22529  0.36558  0.26758  1.0000
  S   S21       1.0  0.21901  0.27620  0.00197  1.0000
  H   H76       1.0  0.20898  0.23007  0.23561  1.0000
  C   C50       1.0  0.22558  0.32620  0.16581  1.0000
  C   C51       1.0  0.23341  0.33151  0.32658  1.0000
  H   H77       1.0  0.22397  0.16159  0.04953  1.0000
  H   H78       1.0  0.17815  0.12207  0.11228  1.0000
  H   H79       1.0  0.24504  0.16581  0.09089  1.0000
  C   C52       1.0  0.15043  0.29859  0.46386  1.0000
  C   C53       1.0  0.07633  0.28365  0.13989  1.0000
  H   H80       1.0  0.24659  0.21422  0.23010  1.0000
  H   H81       1.0  0.10789  0.16247  0.29904  1.0000
  C   C54       1.0  0.21348  0.14566  0.24915  1.0000
  Fe  Fe11      1.0  0.23645  0.10870  0.18297  1.0000
  H   H82       1.0  0.24283  0.17623  0.23743  1.0000
  H   H83       1.0  0.20868  0.46860  0.25267  1.0000
  C   C55       1.0  0.08851  0.25228  0.17000  1.0000
  H   H84       1.0  0.19799  0.17732  0.14246  1.0000
  H   H85       1.0  0.12002  0.18452  0.30586  1.0000
  H   H86       1.0  0.04079  0.29647  0.14794  1.0000
  H   H87       1.0  0.22831  0.46910  0.28363  1.0000
  H   H88       1.0  0.23853  0.35013  0.11113  1.0000
  S   S22       1.0  0.23926  0.38304  0.21978  1.0000
  H   H89       1.0  0.08509  0.22433  0.15235  1.0000
  H   H90       1.0  0.06936  0.27343  0.12985  1.0000
  H   H91       1.0  0.22380  0.15863  0.14214  1.0000
  H   H92       1.0  0.10276  0.27821  0.19621  1.0000
  H   H93       1.0  0.18385  0.18916  0.25338  1.0000
  C   C56       1.0  0.24541  0.20684  0.21488  1.0000
  H   H94       1.0  0.21915  0.40465  0.31042  1.0000
  C   C57       1.0  0.21020  0.44217  0.23274  1.0000
  H   H95       1.0  0.13613  0.28158  0.11979  1.0000
  C   C58       1.0  0.12422  0.27290  0.11367  1.0000
  Fe  Fe12      1.0  0.23015  0.27874  0.08175  1.0000
  C   C59       1.0  0.20235  0.15533  0.11718  1.0000
  C   C60       1.0  0.24329  0.45969  0.27422  1.0000
  H   H96       1.0  0.09042  0.11249  0.34684  1.0000
  H   H97       1.0  0.15115  0.17485  0.32701  1.0000
  H   H98       1.0  0.99925  0.17195  0.25674  1.0000
  H   H99       1.0  0.11697  0.16873  0.37023  1.0000
  C   C61       1.0  0.10893  0.28534  0.15903  1.0000
  H   H100      1.0  0.11020  0.30537  0.18513  1.0000
  H   H101      1.0  0.17339  0.15683  0.30074  1.0000
  H   H102      1.0  0.19368  0.14645  0.07782  1.0000
  C   C62       1.0  0.19457  0.22143  0.24397  1.0000
  C   C63       1.0  0.21216  0.16931  0.13112  1.0000
  C   C64       1.0  0.19237  0.11498  0.10031  1.0000
  H   H103      1.0  0.16797  0.14192  0.27976  1.0000
  H   H104      1.0  0.08220  0.29751  0.12693  1.0000
  H   H105      1.0  0.20680  0.15231  0.26524  1.0000
  H   H106      1.0  0.15075  0.16800  0.28410  1.0000
  C   C65       1.0  0.15976  0.15254  0.29293  1.0000
  H   H107      1.0  0.12654  0.27698  0.16011  1.0000
  C   C66       1.0  0.20584  0.13334  0.08643  1.0000
  Fe  Fe13      1.0  0.24794  0.35552  0.19791  1.0000
  H   H108      1.0  0.05291  0.28528  0.17243  1.0000
  S   S23       1.0  0.23634  0.24368  0.10074  1.0000
  H   H109      1.0  0.20588  0.43896  0.28648  1.0000
  H   H110      1.0  0.13452  0.13097  0.30021  1.0000
  N   N3        1.0  0.21070  0.18537  0.22513  1.0000
  H   H111      1.0  0.06897  0.22448  0.17974  1.0000
  C   C67       1.0  0.20012  0.19546  0.24629  1.0000
  H   H112      1.0  0.05943  0.24427  0.15698  1.0000
  N   N4        1.0  0.09579  0.27011  0.15085  1.0000
  H   H113      1.0  0.24013  0.19980  0.46227  1.0000
  H   H114      1.0  0.16818  0.30081  0.45725  1.0000
  H   H115      1.0  0.20134  0.21637  0.20239  1.0000
  H   H116      1.0  0.18962  0.22646  0.26109  1.0000
  H   H117      1.0  0.13463  0.26187  0.10177  1.0000
  C   C68       1.0  0.01547  0.22219  0.23102  1.0000
  H   H118      1.0  0.21100  0.19002  0.25985  1.0000
  H   H119      1.0  0.19408  0.14262  0.12976  1.0000
  H   H120      1.0  0.18482  0.10732  0.08854  1.0000
  C   C69       1.0  0.14367  0.13902  0.31037  1.0000
  H   H121      1.0  0.17995  0.22772  0.23470  1.0000
  H   H122      1.0  0.20366  0.45325  0.21798  1.0000
  H   H123      1.0  0.18166  0.19737  0.20781  1.0000
  H   H124      1.0  0.05918  0.31227  0.15709  1.0000
  S   S24       1.0  0.22494  0.33128  0.19374  1.0000
  H   H125      1.0  0.24526  0.31164  0.26124  1.0000
  N   N5        1.0  0.12731  0.15222  0.32674  1.0000
  C   C70       1.0  0.11515  0.13536  0.34346  1.0000
  C   C71       1.0  0.14090  0.16340  0.33904  1.0000
  C   C72       1.0  0.11167  0.16953  0.31356  1.0000
  C   C73       1.0  0.10190  0.12113  0.33314  1.0000
  C   C74       1.0  0.12769  0.17816  0.35655  1.0000
  C   C75       1.0  0.08849  0.17819  0.32654  1.0000
  H   H126      1.0  0.10321  0.14341  0.35666  1.0000
  H   H127      1.0  0.12731  0.12331  0.35311  1.0000
  H   H128      1.0  0.15313  0.15051  0.34779  1.0000
  H   H129      1.0  0.23247  0.46597  0.23130  1.0000
  N   N6        1.0  0.23610  0.44273  0.26242  1.0000
  C   C76       1.0  0.23049  0.26322  0.49542  1.0000
  C   C77       1.0  0.23036  0.16264  0.08394  1.0000
  C   C78       1.0  0.22128  0.42830  0.27925  1.0000
  H   H130      1.0  0.23818  0.42408  0.30970  1.0000
  C   C79       1.0  0.14860  0.28306  0.48687  1.0000
  H   H131      1.0  0.24433  0.17279  0.20926  1.0000
  H   H132      1.0  0.22200  0.42816  0.22602  1.0000
  H   H133      1.0  0.23583  0.32187  0.34294  1.0000
  H   H134      1.0  0.23550  0.35824  0.15029  1.0000
  H   H135      1.0  0.24531  0.10260  0.08734  1.0000
  H   H136      1.0  0.13166  0.27768  0.48959  1.0000
  H   H137      1.0  0.21342  0.15290  0.21351  1.0000
  H   H138      1.0  0.22421  0.00085  0.17873  1.0000
  H   H139      1.0  0.23930  0.18710  0.43807  1.0000
  H   H140      1.0  0.20231  0.20193  0.16849  1.0000
  C   C80       1.0  0.23206  0.41387  0.29917  1.0000
  H   H141      1.0  0.23208  0.14190  0.24741  1.0000
  H   H142      1.0  0.23584  0.21940  0.20329  1.0000
  C   C81       1.0  0.23846  0.15921  0.05904  1.0000
  H   H143      1.0  0.20553  0.17316  0.18138  1.0000
  S   S25       1.0  0.23401  0.31136  0.09298  1.0000
  H   H144      1.0  0.16079  0.26742  0.48470  1.0000
  C   C82       1.0  0.24417  0.20189  0.44357  1.0000
  H   H145      1.0  0.18771  0.28843  0.49444  1.0000
  H   H146      1.0  0.24498  0.49058  0.24920  1.0000
  H   H147      1.0  0.24210  0.03214  0.18620  1.0000
  H   H148      1.0  0.19066  0.29890  0.79145  1.0000
  Fe  Fe14      1.0  0.21016  0.22617  0.59096  1.0000
  S   S26       1.0  0.19595  0.24700  0.56094  1.0000
  S   S27       1.0  0.20164  0.19145  0.60534  1.0000
  Fe  Fe15      1.0  0.23081  0.26453  0.60176  1.0000
  S   S28       1.0  0.21896  0.28885  0.57241  1.0000
  H   H149      1.0  0.22390  0.30237  0.71922  1.0000
  Fe  Fe16      1.0  0.18676  0.27445  0.58250  1.0000
  S   S29       1.0  0.15359  0.29676  0.58511  1.0000
  Fe  Fe17      1.0  0.22929  0.25968  0.55260  1.0000
  S   S30       1.0  0.19748  0.25260  0.61340  1.0000
  C   C83       1.0  0.06820  0.19966  0.79920  1.0000
  Fe  Fe18      1.0  0.08787  0.26235  0.69487  1.0000
  S   S31       1.0  0.06297  0.29394  0.69652  1.0000
  S   S32       1.0  0.09732  0.24217  0.66629  1.0000
  Fe  Fe19      1.0  0.10020  0.26143  0.74132  1.0000
  S   S33       1.0  0.07633  0.29303  0.74742  1.0000
  S   S34       1.0  0.12341  0.23837  0.76346  1.0000
  Fe  Fe20      1.0  0.05191  0.27813  0.73210  1.0000
  Fe  Fe21      1.0  0.08935  0.30608  0.71143  1.0000
  S   S35       1.0  0.09943  0.34041  0.69794  1.0000
  S   S36       1.0  0.07478  0.24547  0.72910  1.0000
  S   S37       1.0  0.11516  0.27569  0.70663  1.0000
  H   H150      1.0  0.06260  0.20432  0.76337  1.0000
  Fe  Fe22      1.0  0.19828  0.38483  0.72663  1.0000
  S   S38       1.0  0.20248  0.40803  0.69364  1.0000
  S   S39       1.0  0.16812  0.37233  0.74908  1.0000
  Fe  Fe23      1.0  0.22975  0.38084  0.68222  1.0000
  H   H151      1.0  0.03978  0.23438  0.83688  1.0000
  Fe  Fe24      1.0  0.22987  0.42001  0.70736  1.0000
  S   S40       1.0  0.22303  0.35670  0.71385  1.0000
  S   S41       1.0  0.22312  0.39914  0.74156  1.0000
  C   C84       1.0  0.23531  0.01453  0.70369  1.0000
  H   H152      1.0  0.08343  0.18121  0.77133  1.0000
  C   C85       1.0  0.20899  0.29350  0.72077  1.0000
  Fe  Fe25      1.0  0.19405  0.25421  0.84950  1.0000
  S   S42       1.0  0.19418  0.21859  0.86746  1.0000
  S   S43       1.0  0.16567  0.27741  0.83445  1.0000
  Fe  Fe26      1.0  0.21309  0.22935  0.89181  1.0000
  S   S44       1.0  0.20862  0.21615  0.92939  1.0000
  H   H153      1.0  0.19368  0.31298  0.85598  1.0000
  C   C86       1.0  0.18212  0.31099  0.77876  1.0000
  S   S45       1.0  0.21004  0.26559  0.87564  1.0000
  S   S46       1.0  0.22637  0.24675  0.82647  1.0000
  H   H154      1.0  0.00357  0.25124  0.79178  1.0000
  C   C87       1.0  0.20943  0.23343  0.94982  1.0000
  C   C88       1.0  0.20999  0.22360  0.97249  1.0000
  C   C89       1.0  0.22437  0.17284  0.61537  1.0000
  H   H155      1.0  0.24138  0.31298  0.60011  1.0000
  C   C90       1.0  0.21264  0.26954  0.96015  1.0000
  C   C91       1.0  0.21057  0.25650  0.94374  1.0000
  H   H156      1.0  0.23546  0.23974  0.76244  1.0000
  H   H157      1.0  0.21433  0.23628  0.51590  1.0000
  H   H158      1.0  0.11725  0.30840  0.50706  1.0000
  H   H159      1.0  0.20994  0.26428  0.92640  1.0000
  H   H160      1.0  0.01147  0.32363  0.71303  1.0000
  C   C92       1.0  0.23785  0.14672  0.78113  1.0000
  H   H161      1.0  0.18568  0.34239  0.85921  1.0000
  H   H162      1.0  0.16469  0.30753  0.78004  1.0000
  C   C93       1.0  0.21727  0.18412  0.77286  1.0000
  C   C94       1.0  0.22152  0.18962  0.79329  1.0000
  H   H163      1.0  0.18453  0.32418  0.74392  1.0000
  H   H164      1.0  0.20764  0.19646  0.76180  1.0000
  H   H165      1.0  0.21532  0.20622  0.79790  1.0000
  H   H166      1.0  0.21364  0.28736  0.95533  1.0000
  C   C95       1.0  0.13417  0.24921  0.78386  1.0000
  C   C96       1.0  0.15129  0.23574  0.79493  1.0000
  C   C97       1.0  0.16090  0.24420  0.81065  1.0000
  C   C98       1.0  0.15314  0.26606  0.81565  1.0000
  C   C99       1.0  0.13573  0.27938  0.80487  1.0000
  C   C100      1.0  0.12643  0.27109  0.78880  1.0000
  H   H167      1.0  0.15738  0.21880  0.79114  1.0000
  H   H168      1.0  0.17429  0.23379  0.81890  1.0000
  H   H169      1.0  0.12971  0.29633  0.80867  1.0000
  H   H170      1.0  0.11340  0.28168  0.78017  1.0000
  C   C101      1.0  0.11803  0.34930  0.71271  1.0000
  C   C102      1.0  0.12788  0.36867  0.70342  1.0000
  C   C103      1.0  0.14386  0.37539  0.71409  1.0000
  C   C104      1.0  0.14891  0.36360  0.73492  1.0000
  C   C105      1.0  0.13815  0.34491  0.74483  1.0000
  C   C106      1.0  0.12326  0.33733  0.73344  1.0000
  H   H171      1.0  0.12307  0.37856  0.68797  1.0000
  H   H172      1.0  0.15163  0.39018  0.70665  1.0000
  H   H173      1.0  0.14129  0.33629  0.76133  1.0000
  H   H174      1.0  0.11540  0.32263  0.74098  1.0000
  H   H175      1.0  0.21093  0.31749  0.75372  1.0000
  C   C107      1.0  0.24332  0.29929  0.63500  1.0000
  H   H176      1.0  0.21974  0.01936  0.69662  1.0000
  C   C108      1.0  0.22032  0.15489  0.63268  1.0000
  S   S47       1.0  0.22201  0.15629  0.74030  1.0000
  H   H177      1.0  0.20330  0.15197  0.63917  1.0000
  C   C109      1.0  0.13631  0.28205  0.60653  1.0000
  C   C110      1.0  0.13841  0.25856  0.60847  1.0000
  C   C111      1.0  0.12567  0.24647  0.62639  1.0000
  C   C112      1.0  0.11158  0.25773  0.64293  1.0000
  C   C113      1.0  0.10955  0.28125  0.64107  1.0000
  C   C114      1.0  0.12156  0.29347  0.62258  1.0000
  H   H178      1.0  0.14984  0.24965  0.59613  1.0000
  H   H179      1.0  0.12714  0.22832  0.62769  1.0000
  H   H180      1.0  0.09862  0.29002  0.65381  1.0000
  H   H181      1.0  0.11987  0.31162  0.62110  1.0000
  H   H182      1.0  0.04836  0.18293  0.84299  1.0000
  C   C115      1.0  0.22236  0.33254  0.85116  1.0000
  H   H183      1.0  0.17479  0.32650  0.52353  1.0000
  C   C116      1.0  0.19861  0.32737  0.86208  1.0000
  H   H184      1.0  0.20606  0.31276  0.81703  1.0000
  H   H185      1.0  0.21598  0.27790  0.71342  1.0000
  H   H186      1.0  0.24519  0.37638  0.81857  1.0000
  H   H187      1.0  0.24182  0.07605  0.67090  1.0000
  N   N7        1.0  0.19875  0.28876  0.74527  1.0000
  S   S48       1.0  0.24577  0.26703  0.51629  1.0000
  C   C117      1.0  0.19313  0.30781  0.70467  1.0000
  C   C118      1.0  0.15779  0.18873  0.72854  1.0000
  N   N8        1.0  0.16909  0.20425  0.68622  1.0000
  C   C119      1.0  0.15336  0.19142  0.70376  1.0000
  C   C120      1.0  0.15988  0.20780  0.66408  1.0000
  C   C121      1.0  0.16911  0.22676  0.69365  1.0000
  C   C122      1.0  0.19225  0.19051  0.68506  1.0000
  H   H188      1.0  0.16071  0.26590  0.72528  1.0000
  C   C123      1.0  0.15679  0.18631  0.65539  1.0000
  C   C124      1.0  0.17527  0.24638  0.67508  1.0000
  C   C125      1.0  0.21096  0.19960  0.66716  1.0000
  H   H189      1.0  0.13557  0.19972  0.70337  1.0000
  H   H190      1.0  0.15397  0.17399  0.70005  1.0000
  H   H191      1.0  0.17040  0.21724  0.65017  1.0000
  H   H192      1.0  0.14314  0.21857  0.66561  1.0000
  H   H193      1.0  0.15207  0.23311  0.70221  1.0000
  H   H194      1.0  0.18068  0.22489  0.70644  1.0000
  H   H195      1.0  0.19872  0.18879  0.70146  1.0000
  H   H196      1.0  0.19193  0.17266  0.68318  1.0000
  C   C126      1.0  0.18387  0.30986  0.51980  1.0000
  H   H197      1.0  0.20167  0.30755  0.68703  1.0000
  H   H198      1.0  0.16878  0.26184  0.52345  1.0000
  H   H199      1.0  0.15288  0.19089  0.63778  1.0000
  H   H200      1.0  0.17225  0.17385  0.65482  1.0000
  H   H201      1.0  0.14242  0.17853  0.66560  1.0000
  H   H202      1.0  0.17640  0.26110  0.68322  1.0000
  H   H203      1.0  0.16196  0.25198  0.66401  1.0000
  H   H204      1.0  0.19166  0.24226  0.66460  1.0000
  H   H205      1.0  0.21865  0.21221  0.67344  1.0000
  H   H206      1.0  0.20548  0.20673  0.65064  1.0000
  H   H207      1.0  0.22437  0.18535  0.66337  1.0000
  N   N9        1.0  0.16406  0.34843  0.63310  1.0000
  C   C127      1.0  0.17813  0.32844  0.64479  1.0000
  C   C128      1.0  0.17475  0.36918  0.63271  1.0000
  C   C129      1.0  0.16292  0.34572  0.60913  1.0000
  C   C130      1.0  0.14056  0.35027  0.64590  1.0000
  C   C131      1.0  0.17180  0.30501  0.64431  1.0000
  C   C132      1.0  0.17231  0.37796  0.65553  1.0000
  C   C133      1.0  0.18580  0.34073  0.59420  1.0000
  C   C134      1.0  0.12363  0.37032  0.63691  1.0000
  H   H208      1.0  0.19618  0.32793  0.63770  1.0000
  H   H209      1.0  0.17728  0.33004  0.66288  1.0000
  H   H210      1.0  0.16825  0.38348  0.62031  1.0000
  H   H211      1.0  0.19311  0.36604  0.62660  1.0000
  H   H212      1.0  0.15283  0.33226  0.60877  1.0000
  H   H213      1.0  0.15373  0.36124  0.60031  1.0000
  H   H214      1.0  0.13291  0.33494  0.64571  1.0000
  H   H215      1.0  0.14052  0.35021  0.66423  1.0000
  H   H216      1.0  0.15517  0.30270  0.65439  1.0000
  H   H217      1.0  0.17220  0.30145  0.62692  1.0000
  H   H218      1.0  0.18452  0.29195  0.65196  1.0000
  H   H219      1.0  0.15472  0.38527  0.66098  1.0000
  H   H220      1.0  0.17847  0.36480  0.66902  1.0000
  H   H221      1.0  0.18261  0.39180  0.65346  1.0000
  H   H222      1.0  0.19565  0.32464  0.60080  1.0000
  H   H223      1.0  0.19597  0.35462  0.59218  1.0000
  H   H224      1.0  0.18280  0.33894  0.57706  1.0000
  H   H225      1.0  0.11530  0.36568  0.62376  1.0000
  H   H226      1.0  0.13134  0.38569  0.62984  1.0000
  H   H227      1.0  0.11058  0.37509  0.65115  1.0000
  C   C135      1.0  0.21559  0.27297  0.75832  1.0000
  C   C136      1.0  0.17669  0.27973  0.74851  1.0000
  H   H228      1.0  0.23156  0.28023  0.75617  1.0000
  C   C137      1.0  0.21398  0.36143  0.79067  1.0000
  H   H229      1.0  0.15649  0.20515  0.73467  1.0000
  H   H230      1.0  0.20932  0.27077  0.77673  1.0000
  H   H231      1.0  0.17207  0.27302  0.76664  1.0000
  H   H232      1.0  0.13344  0.25107  0.54954  1.0000
  S   S49       1.0  0.23257  0.37276  0.64680  1.0000
  H   H233      1.0  0.20752  0.23899  0.75848  1.0000
  H   H234      1.0  0.21296  0.34784  0.78108  1.0000
  H   H235      1.0  0.04626  0.27129  0.79262  1.0000
  C   C138      1.0  0.24185  0.15206  0.80153  1.0000
  H   H236      1.0  0.14477  0.17959  0.73966  1.0000
  H   H237      1.0  0.22828  0.24773  0.73467  1.0000
  H   H238      1.0  0.02768  0.21086  0.79306  1.0000
  H   H239      1.0  0.08332  0.19496  0.80807  1.0000
  C   C139      1.0  0.23833  0.33930  0.62071  1.0000
  H   H240      1.0  0.18435  0.29747  0.53543  1.0000
  C   C140      1.0  0.13323  0.31208  0.51126  1.0000
  H   H241      1.0  0.22716  0.29840  0.83266  1.0000
  H   H242      1.0  0.00672  0.33489  0.68482  1.0000
  C   C141      1.0  0.21232  0.23660  0.98887  1.0000
  H   H243      1.0  0.20042  0.37538  0.78617  1.0000
  C   C142      1.0  0.23889  0.30514  0.79762  1.0000
  H   H244      1.0  0.18234  0.48052  0.70035  1.0000
  H   H245      1.0  0.20902  0.20578  0.97730  1.0000
  H   H246      1.0  0.13446  0.24879  0.52037  1.0000
  C   C143      1.0  0.19475  0.31096  0.75444  1.0000
  H   H247      1.0  0.17709  0.30114  0.70586  1.0000
  C   C144      1.0  0.07640  0.19887  0.77378  1.0000
  H   H248      1.0  0.09027  0.20895  0.76732  1.0000
  H   H249      1.0  0.11455  0.33317  0.53583  1.0000
  C   C145      1.0  0.03685  0.19922  0.84209  1.0000
  C   C146      1.0  0.24492  0.03090  0.71129  1.0000
  H   H250      1.0  0.11683  0.27223  0.53236  1.0000
  C   C147      1.0  0.23929  0.06886  0.65603  1.0000
  H   H251      1.0  0.23508  0.12735  0.65557  1.0000
  H   H252      1.0  0.17213  0.24515  0.74636  1.0000
  H   H253      1.0  0.18072  0.32807  0.78355  1.0000
  H   H254      1.0  0.06558  0.21659  0.83833  1.0000
  H   H255      1.0  0.07351  0.27448  0.79724  1.0000
  C   C148      1.0  0.01352  0.24196  0.80512  1.0000
  H   H256      1.0  0.08601  0.23474  0.80422  1.0000
  N   N10       1.0  0.05483  0.22167  0.80533  1.0000
  H   H257      1.0  0.16275  0.29368  0.74474  1.0000
  C   C149      1.0  0.17528  0.26089  0.73476  1.0000
  C   C150      1.0  0.00237  0.32170  0.69920  1.0000
  C   C151      1.0  0.22386  0.31274  0.81898  1.0000
  C   C152      1.0  0.22586  0.16276  0.76655  1.0000
  H   H258      1.0  0.05807  0.18559  0.80478  1.0000
  H   H259      1.0  0.15489  0.28059  0.54236  1.0000
  C   C153      1.0  0.21393  0.25959  0.98267  1.0000
  N   N11       1.0  0.15223  0.29311  0.50691  1.0000
  S   S50       1.0  0.01546  0.27934  0.74859  1.0000
  H   H260      1.0  0.14199  0.32164  0.54212  1.0000
  C   C154      1.0  0.06977  0.23970  0.79723  1.0000
  H   H261      1.0  0.17429  0.17848  0.73110  1.0000
  H   H262      1.0  0.02172  0.25074  0.71321  1.0000
  H   H263      1.0  0.18948  0.32577  0.70727  1.0000
  C   C155      1.0  0.23772  0.34439  0.64253  1.0000
  H   H264      1.0  0.23696  0.05102  0.66124  1.0000
  H   H265      1.0  0.07432  0.24173  0.77855  1.0000
  C   C156      1.0  0.23587  0.47764  0.71365  1.0000
  Fe  Fe27      1.0  0.22798  0.21202  0.84631  1.0000
  C   C157      1.0  0.12744  0.31788  0.53559  1.0000
  C   C158      1.0  0.13320  0.26102  0.53237  1.0000
  H   H266      1.0  0.03796  0.23485  0.77595  1.0000
  H   H267      1.0  0.01770  0.25489  0.81385  1.0000
  H   H268      1.0  0.19033  0.25656  0.72255  1.0000
  H   H269      1.0  0.23489  0.31899  0.85872  1.0000
  C   C159      1.0  0.04969  0.21899  0.83081  1.0000
  H   H270      1.0  0.12007  0.30424  0.54762  1.0000
  C   C160      1.0  0.03396  0.22685  0.79387  1.0000
  H   H271      1.0  0.22729  0.48855  0.76804  1.0000
  H   H272      1.0  0.23653  0.35282  0.60670  1.0000
  C   C161      1.0  0.06007  0.26360  0.80256  1.0000
  C   C162      1.0  0.23103  0.47396  0.73727  1.0000
  H   H273      1.0  0.19276  0.34940  0.82041  1.0000
  H   H274      1.0  0.22692  0.45773  0.74584  1.0000
  C   C163      1.0  0.23120  0.49147  0.74980  1.0000
  H   H275      1.0  0.05468  0.26428  0.82083  1.0000
  C   C164      1.0  0.15335  0.27433  0.52664  1.0000
  C   C165      1.0  0.23409  0.17358  0.80751  1.0000
  H   H276      1.0  0.22428  0.34826  0.85723  1.0000
  H   H277      1.0  0.00904  0.30468  0.69458  1.0000
  C   C166      1.0  0.22181  0.24867  0.75272  1.0000
  C   C167      1.0  0.21010  0.35391  0.81637  1.0000
  H   H278      1.0  0.23666  0.04819  0.71027  1.0000
  N   N12       1.0  0.22689  0.33485  0.82566  1.0000
  H   H279      1.0  0.19824  0.32289  0.88068  1.0000
  H   H280      1.0  0.22327  0.07817  0.65069  1.0000
  H   H281      1.0  0.20940  0.36911  0.82457  1.0000
  H   H282      1.0  0.23756  0.31780  0.78235  1.0000
  S   S51       1.0  0.23408  0.45709  0.69678  1.0000
  H   H283      1.0  0.02979  0.20163  0.85981  1.0000
  H   H284      1.0  0.23017  0.36806  0.78497  1.0000
  C   C168      1.0  0.24094  0.31679  0.61698  1.0000
  C   C169      1.0  0.24044  0.32688  0.66051  1.0000
  C   C170      1.0  0.00424  0.25244  0.72082  1.0000
  H   H285      1.0  0.23379  0.28953  0.79428  1.0000
  C   C171      1.0  0.24338  0.30434  0.65671  1.0000
  S   S52       1.0  0.24457  0.23654  0.58105  1.0000
  H   H286      1.0  0.24022  0.33070  0.67729  1.0000
  H   H287      1.0  0.02270  0.19801  0.83325  1.0000
  H   H288      1.0  0.20165  0.31239  0.51366  1.0000
  C   C172      1.0  0.23831  0.14088  0.64192  1.0000
  H   H289      1.0  0.24375  0.13002  0.77690  1.0000
  Fe  Fe28      1.0  0.24248  0.25511  0.85401  1.0000
  S   S53       1.0  0.24247  0.18001  0.83179  1.0000
  S   S54       1.0  0.24747  0.10625  0.70291  1.0000
  C   C173      1.0  0.24652  0.17591  0.60648  1.0000
  H   H290      1.0  0.00182  0.23156  0.81667  1.0000
  C   C174      1.0  0.17462  0.30176  0.50093  1.0000
  H   H291      1.0  0.13665  0.32793  0.49987  1.0000
  S   S55       1.0  0.24697  0.21979  0.87203  1.0000
  Fe  Fe29      1.0  0.24825  0.37185  0.72702  1.0000
  S   S56       1.0  0.24650  0.27102  0.63083  1.0000
  H   H292      1.0  0.24535  0.29079  0.67063  1.0000
  C   C175      1.0  0.21610  0.24687  0.49965  1.0000
  H   H293      1.0  0.19942  0.49845  0.68141  1.0000
  C   C176      1.0  0.18263  0.49823  0.69191  1.0000
  C   C177      1.0  0.23860  0.63388  0.26035  1.0000
  H   H294      1.0  0.21673  0.71194  0.28501  1.0000
  N   N13       1.0  0.21244  0.72953  0.46366  1.0000
  H   H295      1.0  0.01167  0.72552  0.21679  1.0000
  S   S57       1.0  0.00387  0.68303  0.24576  1.0000
  H   H296      1.0  0.20739  0.77399  0.47908  1.0000
  H   H297      1.0  0.21144  0.80234  0.17125  1.0000
  C   C178      1.0  0.23514  0.95770  0.28853  1.0000
  C   C179      1.0  0.20785  0.76552  0.28842  1.0000
  S   S58       1.0  0.19346  0.85771  0.22140  1.0000
  H   H298      1.0  0.22612  0.86749  0.31680  1.0000
  C   C180      1.0  0.23410  0.73506  0.49551  1.0000
  Fe  Fe30      1.0  0.14747  0.69559  0.27020  1.0000
  S   S59       1.0  0.11377  0.71124  0.28624  1.0000
  S   S60       1.0  0.15942  0.65837  0.27735  1.0000
  Fe  Fe31      1.0  0.16196  0.74042  0.24827  1.0000
  S   S61       1.0  0.12938  0.76016  0.26198  1.0000
  S   S62       1.0  0.19377  0.75258  0.22892  1.0000
  Fe  Fe32      1.0  0.13314  0.73652  0.29431  1.0000
  S   S63       1.0  0.12523  0.74999  0.32755  1.0000
  Fe  Fe33      1.0  0.11262  0.73333  0.25269  1.0000
  S   S64       1.0  0.08226  0.74266  0.23397  1.0000
  S   S65       1.0  0.16678  0.71880  0.28136  1.0000
  S   S66       1.0  0.14512  0.71574  0.23590  1.0000
  H   H299      1.0  0.22431  0.75894  0.27911  1.0000
  C   C181      1.0  0.24129  0.98652  0.25410  1.0000
  C   C182      1.0  0.05919  0.72739  0.23919  1.0000
  C   C183      1.0  0.04209  0.73368  0.22543  1.0000
  C   C184      1.0  0.02438  0.72087  0.22790  1.0000
  C   C185      1.0  0.02386  0.70145  0.24395  1.0000
  C   C186      1.0  0.04056  0.69555  0.25818  1.0000
  C   C187      1.0  0.05799  0.70862  0.25604  1.0000
  H   H300      1.0  0.04283  0.74826  0.21244  1.0000
  Fe  Fe34      1.0  0.24673  0.91532  0.19603  1.0000
  H   H301      1.0  0.04017  0.68060  0.27073  1.0000
  H   H302      1.0  0.07079  0.70386  0.26702  1.0000
  C   C188      1.0  0.14544  0.74608  0.34606  1.0000
  C   C189      1.0  0.16842  0.73933  0.33922  1.0000
  C   C190      1.0  0.18395  0.73736  0.35453  1.0000
  C   C191      1.0  0.17637  0.74150  0.37684  1.0000
  C   C192      1.0  0.15341  0.74787  0.38363  1.0000
  C   C193      1.0  0.13810  0.75051  0.36823  1.0000
  H   H303      1.0  0.17422  0.73574  0.32220  1.0000
  H   H304      1.0  0.00482  0.71786  0.32040  1.0000
  H   H305      1.0  0.14743  0.75100  0.40082  1.0000
  H   H306      1.0  0.12040  0.75573  0.37362  1.0000
  H   H307      1.0  0.22376  0.77495  0.45091  1.0000
  H   H308      1.0  0.21000  0.69428  0.46353  1.0000
  C   C194      1.0  0.23127  0.94959  0.25060  1.0000
  C   C195      1.0  0.14126  0.80492  0.30774  1.0000
  H   H309      1.0  0.22217  0.94869  0.13642  1.0000
  H   H310      1.0  0.18808  0.75975  0.12710  1.0000
  H   H311      1.0  0.21172  0.97653  0.22960  1.0000
  C   C196      1.0  0.19381  0.82867  0.22153  1.0000
  C   C197      1.0  0.17350  0.81978  0.22733  1.0000
  C   C198      1.0  0.17332  0.79649  0.22915  1.0000
  C   C199      1.0  0.19346  0.78192  0.22525  1.0000
  C   C200      1.0  0.21373  0.79081  0.21876  1.0000
  C   C201      1.0  0.21390  0.81415  0.21686  1.0000
  H   H312      1.0  0.15786  0.83094  0.23072  1.0000
  H   H313      1.0  0.15756  0.78988  0.23364  1.0000
  H   H314      1.0  0.22938  0.77962  0.21565  1.0000
  H   H315      1.0  0.22959  0.82080  0.21207  1.0000
  N   N14       1.0  0.18454  0.80369  0.29738  1.0000
  H   H316      1.0  0.16507  0.77599  0.30245  1.0000
  C   C202      1.0  0.19803  0.75193  0.45796  1.0000
  H   H317      1.0  0.21866  0.70644  0.49405  1.0000
  H   H318      1.0  0.18553  0.78275  0.33006  1.0000
  H   H319      1.0  0.19886  0.85821  0.28144  1.0000
  C   C203      1.0  0.17524  0.65621  0.23234  1.0000
  C   C204      1.0  0.17391  0.64498  0.25457  1.0000
  C   C205      1.0  0.18385  0.62244  0.25879  1.0000
  H   H320      1.0  0.24463  0.69364  0.44228  1.0000
  H   H321      1.0  0.16782  0.67357  0.22890  1.0000
  H   H322      1.0  0.18281  0.61367  0.27596  1.0000
  C   C206      1.0  0.24039  0.99714  0.18471  1.0000
  C   C207      1.0  0.22162  0.69482  0.29400  1.0000
  C   C208      1.0  0.21510  0.72498  0.48845  1.0000
  H   H323      1.0  0.20236  0.79601  0.26489  1.0000
  H   H324      1.0  0.17434  0.71119  0.48862  1.0000
  H   H325      1.0  0.17714  0.83059  0.27007  1.0000
  C   C209      1.0  0.22848  0.69838  0.24208  1.0000
  H   H326      1.0  0.22782  0.93303  0.26052  1.0000
  H   H327      1.0  0.03075  0.73624  0.29150  1.0000
  H   H328      1.0  0.23213  0.83976  0.11905  1.0000
  H   H329      1.0  0.24001  0.62082  0.24919  1.0000
  C   C210      1.0  0.22201  0.67597  0.27978  1.0000
  C   C211      1.0  0.20397  0.79442  0.13850  1.0000
  C   C212      1.0  0.20666  0.75722  0.12660  1.0000
  H   H330      1.0  0.12741  0.79759  0.30318  1.0000
  H   H331      1.0  0.20479  0.98398  0.28749  1.0000
  H   H332      1.0  0.16874  0.77557  0.16559  1.0000
  C   C213      1.0  0.18215  0.82831  0.28726  1.0000
  H   H333      1.0  0.13760  0.82339  0.30266  1.0000
  H   H334      1.0  0.21587  0.83463  0.27031  1.0000
  H   H335      1.0  0.24432  0.74201  0.45033  1.0000
  S   S67       1.0  0.23617  0.89059  0.17744  1.0000
  H   H336      1.0  0.22026  0.79692  0.28482  1.0000
  C   C214      1.0  0.16371  0.79421  0.29549  1.0000
  H   H337      1.0  0.23450  0.75796  0.09838  1.0000
  H   H338      1.0  0.20118  0.95031  0.23555  1.0000
  C   C215      1.0  0.20708  0.77321  0.46099  1.0000
  C   C216      1.0  0.23460  0.72897  0.44815  1.0000
  S   S68       1.0  0.23743  0.76544  0.34776  1.0000
  H   H339      1.0  0.20430  0.67554  0.27751  1.0000
  C   C217      1.0  0.17622  0.71077  0.47018  1.0000
  H   H340      1.0  0.24582  0.77394  0.12382  1.0000
  H   H341      1.0  0.17345  0.74590  0.16255  1.0000
  H   H342      1.0  0.19900  0.95519  0.29521  1.0000
  C   C218      1.0  0.18926  0.79971  0.32153  1.0000
  C   C219      1.0  0.23395  0.93731  0.12577  1.0000
  C   C220      1.0  0.19559  0.62211  0.21858  1.0000
  S   S69       1.0  0.20678  0.60728  0.19595  1.0000
  C   C221      1.0  0.18585  0.64471  0.21433  1.0000
  C   C222      1.0  0.19490  0.61107  0.24083  1.0000
  H   H343      1.0  0.23254  0.94431  0.10795  1.0000
  H   H344      1.0  0.18809  0.82964  0.33782  1.0000
  N   N15       1.0  0.10318  0.65980  0.22068  1.0000
  C   C223      1.0  0.10901  0.66779  0.24092  1.0000
  C   C224      1.0  0.11710  0.67011  0.19970  1.0000
  C   C225      1.0  0.10823  0.63445  0.22236  1.0000
  C   C226      1.0  0.07838  0.66698  0.21977  1.0000
  C   C227      1.0  0.09934  0.65611  0.26435  1.0000
  C   C228      1.0  0.11166  0.69597  0.19337  1.0000
  C   C229      1.0  0.13257  0.62390  0.22558  1.0000
  C   C230      1.0  0.06952  0.66198  0.19902  1.0000
  H   H345      1.0  0.12754  0.66602  0.24040  1.0000
  H   H346      1.0  0.10306  0.68616  0.24074  1.0000
  H   H347      1.0  0.11577  0.66229  0.18474  1.0000
  H   H348      1.0  0.13530  0.66657  0.20152  1.0000
  H   H349      1.0  0.09660  0.62621  0.23629  1.0000
  H   H350      1.0  0.10524  0.62885  0.20672  1.0000
  H   H351      1.0  0.06815  0.65868  0.23486  1.0000
  H   H352      1.0  0.07380  0.68539  0.22025  1.0000
  H   H353      1.0  0.08072  0.65843  0.26704  1.0000
  H   H354      1.0  0.10605  0.63790  0.26732  1.0000
  H   H355      1.0  0.10453  0.66386  0.27762  1.0000
  H   H356      1.0  0.09459  0.70131  0.18856  1.0000
  H   H357      1.0  0.11345  0.70515  0.20710  1.0000
  H   H358      1.0  0.12375  0.70161  0.17843  1.0000
  H   H359      1.0  0.13759  0.62781  0.24104  1.0000
  H   H360      1.0  0.14481  0.62904  0.21063  1.0000
  H   H361      1.0  0.13396  0.60523  0.22742  1.0000
  H   H362      1.0  0.07754  0.67075  0.18290  1.0000
  H   H363      1.0  0.05118  0.66832  0.20042  1.0000
  H   H364      1.0  0.07152  0.64366  0.19824  1.0000
  C   C231      1.0  0.23446  0.65744  0.24619  1.0000
  H   H365      1.0  0.20827  0.75561  0.09077  1.0000
  N   N16       1.0  0.21322  0.76967  0.14350  1.0000
  C   C232      1.0  0.21623  0.76400  0.10162  1.0000
  H   H366      1.0  0.01141  0.74366  0.27179  1.0000
  H   H367      1.0  0.20752  0.79964  0.32176  1.0000
  H   H368      1.0  0.21736  0.65935  0.24137  1.0000
  C   C233      1.0  0.20412  0.79153  0.28313  1.0000
  H   H369      1.0  0.00725  0.70710  0.29441  1.0000
  H   H370      1.0  0.21185  0.73863  0.13075  1.0000
  H   H371      1.0  0.18724  0.79632  0.13276  1.0000
  H   H372      1.0  0.20166  0.73211  0.34927  1.0000
  C   C234      1.0  0.20031  0.80843  0.15826  1.0000
  H   H373      1.0  0.17378  0.80825  0.35460  1.0000
  H   H374      1.0  0.23159  0.73319  0.43019  1.0000
  H   H375      1.0  0.16847  0.83872  0.29696  1.0000
  Fe  Fe35      1.0  0.22628  0.87169  0.21189  1.0000
  C   C235      1.0  0.24097  0.70135  0.21764  1.0000
  H   H376      1.0  0.18634  0.65321  0.19708  1.0000
  H   H377      1.0  0.20795  0.76694  0.18028  1.0000
  H   H378      1.0  0.20876  0.69253  0.30925  1.0000
  Fe  Fe36      1.0  0.24385  0.59578  0.19478  1.0000
  H   H379      1.0  0.16171  0.79536  0.27736  1.0000
  C   C236      1.0  0.20341  0.83959  0.28489  1.0000
  H   H380      1.0  0.24661  0.88248  0.27981  1.0000
  C   C237      1.0  0.20072  0.71135  0.45854  1.0000
  S   S70       1.0  0.19490  0.73809  0.39695  1.0000
  H   H381      1.0  0.19490  0.75814  0.28237  1.0000
  C   C238      1.0  0.17821  0.75884  0.17102  1.0000
  H   H382      1.0  0.24827  0.85554  0.14673  1.0000
  C   C239      1.0  0.20887  0.96205  0.24312  1.0000
  C   C240      1.0  0.01255  0.74115  0.29013  1.0000
  H   H383      1.0  0.24205  0.94564  0.23457  1.0000
  H   H384      1.0  0.19547  0.78830  0.45480  1.0000
  H   H385      1.0  0.14043  0.80049  0.32636  1.0000
  H   H386      1.0  0.20223  0.59353  0.24410  1.0000
  C   C241      1.0  0.23860  0.76618  0.14088  1.0000
  H   H387      1.0  0.17264  0.75428  0.18940  1.0000
  H   H388      1.0  0.23791  0.69366  0.30028  1.0000
  C   C242      1.0  0.20393  0.75887  0.16674  1.0000
  H   H389      1.0  0.21204  0.74098  0.17012  1.0000
  H   H390      1.0  0.21030  0.69886  0.24096  1.0000
  H   H391      1.0  0.23672  0.68941  0.20759  1.0000
  H   H392      1.0  0.16058  0.82600  0.33269  1.0000
  C   C243      1.0  0.17699  0.81714  0.33701  1.0000
  H   H393      1.0  0.24632  0.65658  0.23011  1.0000
  H   H394      1.0  0.21132  0.83544  0.30050  1.0000
  C   C244      1.0  0.21049  0.96714  0.29649  1.0000
  H   H395      1.0  0.22890  0.71396  0.24903  1.0000
  Fe  Fe37      1.0  0.22774  0.75084  0.38372  1.0000
  H   H396      1.0  0.21288  0.78245  0.09603  1.0000
  C   C245      1.0  0.24234  0.85874  0.31045  1.0000
  H   H397      1.0  0.20877  0.96967  0.31447  1.0000
  H   H398      1.0  0.19475  0.75416  0.44009  1.0000
  H   H399      1.0  0.17081  0.69484  0.46788  1.0000
  H   H400      1.0  0.19646  0.96784  0.25720  1.0000
  H   H401      1.0  0.23923  0.75009  0.48425  1.0000
  H   H402      1.0  0.23541  0.71864  0.20917  1.0000
  H   H403      1.0  0.20832  0.75946  0.30667  1.0000
  H   H404      1.0  0.20337  0.82595  0.15133  1.0000
  H   H405      1.0  0.16455  0.72473  0.46214  1.0000
  S   S71       1.0  0.23609  0.77907  0.39878  1.0000
  H   H406      1.0  0.20053  0.71275  0.44000  1.0000
  S   S72       1.0  0.23389  0.89787  0.23046  1.0000
  H   H407      1.0  0.00729  0.75721  0.29713  1.0000
  S   S73       1.0  0.23648  0.95282  0.18491  1.0000
  H   H408      1.0  0.18127  0.75265  0.46863  1.0000
  N   N17       1.0  0.23693  0.67729  0.25716  1.0000
  H   H409      1.0  0.23536  0.67164  0.12516  1.0000
  H   H410      1.0  0.22793  0.92064  0.12995  1.0000
  S   S74       1.0  0.23630  0.82820  0.34876  1.0000
  H   H411      1.0  0.22360  0.99487  0.25589  1.0000
  H   H412      1.0  0.24676  0.98865  0.23554  1.0000
  H   H413      1.0  0.18249  0.81007  0.16646  1.0000
  H   H414      1.0  0.21494  0.80295  0.12416  1.0000
  H   H415      1.0  0.22420  0.63097  0.27386  1.0000
  H   H416      1.0  0.22713  0.66009  0.29098  1.0000
  H   H417      1.0  0.23654  0.93927  0.29474  1.0000
  N   N18       1.0  0.24344  0.96173  0.26350  1.0000
  H   H418      1.0  0.24610  0.96362  0.29856  1.0000
  Fe  Fe38      1.0  0.24847  0.79231  0.36265  1.0000
  S   S75       1.0  0.24743  0.70731  0.08991  1.0000
  C   C246      1.0  0.99986  0.72191  0.30311  1.0000
  H   H419      1.0  0.24529  0.74782  0.14215  1.0000
  H   H420      1.0  0.24663  0.79478  0.15435  1.0000
  H   H421      1.0  0.19907  0.73096  0.49896  1.0000
  H   H422      1.0  0.24391  0.76965  0.17539  1.0000
  H   H423      1.0  0.15763  0.75808  0.65829  1.0000
  H   H424      1.0  0.19989  0.71742  0.58984  1.0000
  H   H425      1.0  0.21992  0.73102  0.59846  1.0000
  H   H426      1.0  0.02090  0.70675  0.73219  1.0000
  H   H427      1.0  0.23185  0.84032  0.55342  1.0000
  C   C247      1.0  0.21211  0.69704  0.66404  1.0000
  H   H428      1.0  0.19902  0.72784  0.90645  1.0000
  H   H429      1.0  0.19008  0.74054  0.60532  1.0000
  S   S76       1.0  0.16974  0.61820  0.70153  1.0000
  C   C248      1.0  0.20290  0.70828  0.62554  1.0000
  H   H430      1.0  0.15915  0.74600  0.63291  1.0000
  Fe  Fe39      1.0  0.09941  0.78054  0.73354  1.0000
  S   S77       1.0  0.11547  0.78121  0.69738  1.0000
  S   S78       1.0  0.06338  0.79564  0.74510  1.0000
  Fe  Fe40      1.0  0.14169  0.75367  0.75106  1.0000
  S   S79       1.0  0.16083  0.75152  0.71630  1.0000
  S   S80       1.0  0.15693  0.73405  0.78110  1.0000
  Fe  Fe41      1.0  0.14644  0.78802  0.70908  1.0000
  S   S81       1.0  0.16824  0.81213  0.68690  1.0000
  Fe  Fe42      1.0  0.12848  0.74479  0.70789  1.0000
  S   S82       1.0  0.12503  0.72026  0.68544  1.0000
  S   S83       1.0  0.12935  0.79084  0.74464  1.0000
  S   S84       1.0  0.11044  0.74352  0.74324  1.0000
  H   H431      1.0  0.16465  0.50916  0.72279  1.0000
  H   H432      1.0  0.21417  0.70167  0.93454  1.0000
  H   H433      1.0  0.21767  0.69519  0.62200  1.0000
  C   C249      1.0  0.19264  0.54439  0.68103  1.0000
  C   C250      1.0  0.16482  0.75457  0.93243  1.0000
  H   H434      1.0  0.22758  0.73105  0.90072  1.0000
  H   H435      1.0  0.23916  0.75366  0.72002  1.0000
  S   S85       1.0  0.23943  0.90775  0.68435  1.0000
  H   H436      1.0  0.17163  0.83284  0.59670  1.0000
  H   H437      1.0  0.15489  0.53969  0.66547  1.0000
  H   H438      1.0  0.18112  0.76072  0.63735  1.0000
  C   C251      1.0  0.15658  0.64644  0.69895  1.0000
  C   C252      1.0  0.14227  0.65381  0.68259  1.0000
  C   C253      1.0  0.13243  0.67641  0.67902  1.0000
  C   C254      1.0  0.13652  0.69182  0.69199  1.0000
  C   C255      1.0  0.15033  0.68447  0.70889  1.0000
  C   C256      1.0  0.16044  0.66172  0.71234  1.0000
  H   H439      1.0  0.13920  0.64210  0.67225  1.0000
  H   H440      1.0  0.12179  0.68203  0.66594  1.0000
  H   H441      1.0  0.15345  0.69631  0.71905  1.0000
  H   H442      1.0  0.17112  0.65603  0.72533  1.0000
  C   C257      1.0  0.20718  0.76344  0.81154  1.0000
  C   C258      1.0  0.20374  0.74098  0.81831  1.0000
  C   C259      1.0  0.18808  0.73227  0.80900  1.0000
  C   C260      1.0  0.17637  0.74569  0.79230  1.0000
  C   C261      1.0  0.18038  0.76793  0.78489  1.0000
  C   C262      1.0  0.19557  0.77688  0.79474  1.0000
  H   H443      1.0  0.18264  0.67898  0.66888  1.0000
  H   H444      1.0  0.18513  0.71500  0.81465  1.0000
  H   H445      1.0  0.17149  0.77829  0.77193  1.0000
  H   H446      1.0  0.19837  0.79420  0.78935  1.0000
  C   C263      1.0  0.18700  0.82279  0.70004  1.0000
  C   C264      1.0  0.19012  0.81462  0.72248  1.0000
  C   C265      1.0  0.20290  0.82538  0.73350  1.0000
  C   C266      1.0  0.21258  0.84432  0.72215  1.0000
  C   C267      1.0  0.21034  0.85178  0.69940  1.0000
  C   C268      1.0  0.19754  0.84106  0.68841  1.0000
  H   H447      1.0  0.18206  0.80051  0.73154  1.0000
  H   H448      1.0  0.20471  0.81944  0.75106  1.0000
  H   H449      1.0  0.21773  0.86634  0.69050  1.0000
  H   H450      1.0  0.19495  0.84759  0.67120  1.0000
  H   H451      1.0  0.21036  0.53818  0.68388  1.0000
  H   H452      1.0  0.23552  0.76530  0.95439  1.0000
  C   C269      1.0  0.02556  0.77404  0.70578  1.0000
  C   C270      1.0  0.04393  0.77984  0.71374  1.0000
  C   C271      1.0  0.04052  0.78969  0.73353  1.0000
  C   C272      1.0  0.01850  0.79414  0.74493  1.0000
  H   H453      1.0  0.20654  0.88160  0.61924  1.0000
  H   H454      1.0  0.02841  0.76619  0.69061  1.0000
  H   H455      1.0  0.06074  0.77653  0.70467  1.0000
  H   H456      1.0  0.01567  0.80183  0.76019  1.0000
  N   N19       1.0  0.13915  0.86804  0.75007  1.0000
  C   C273      1.0  0.14550  0.85734  0.72880  1.0000
  C   C274      1.0  0.15480  0.85648  0.76672  1.0000
  C   C275      1.0  0.14143  0.89280  0.74527  1.0000
  C   C276      1.0  0.11501  0.86554  0.75940  1.0000
  C   C277      1.0  0.13237  0.86810  0.70905  1.0000
  C   C278      1.0  0.15279  0.83149  0.77596  1.0000
  C   C279      1.0  0.16432  0.89871  0.73235  1.0000
  C   C280      1.0  0.10636  0.87305  0.78280  1.0000
  H   H457      1.0  0.16363  0.85736  0.72242  1.0000
  H   H458      1.0  0.14312  0.83927  0.73219  1.0000
  H   H459      1.0  0.15266  0.86570  0.78149  1.0000
  H   H460      1.0  0.17266  0.85677  0.75895  1.0000
  H   H461      1.0  0.12802  0.90260  0.73566  1.0000
  H   H462      1.0  0.13897  0.90007  0.76130  1.0000
  H   H463      1.0  0.10349  0.87562  0.74778  1.0000
  H   H464      1.0  0.11210  0.84774  0.76048  1.0000
  H   H465      1.0  0.13393  0.88618  0.70365  1.0000
  H   H466      1.0  0.13950  0.85931  0.69421  1.0000
  H   H467      1.0  0.11438  0.86584  0.71309  1.0000
  H   H468      1.0  0.22767  0.80837  0.58594  1.0000
  H   H469      1.0  0.19473  0.82069  0.57743  1.0000
  H   H470      1.0  0.03460  0.73068  0.79489  1.0000
  H   H471      1.0  0.18463  0.77357  0.94540  1.0000
  H   H472      1.0  0.22919  0.67305  0.75069  1.0000
  H   H473      1.0  0.20691  0.70214  0.96418  1.0000
  H   H474      1.0  0.11540  0.86265  0.79628  1.0000
  H   H475      1.0  0.08835  0.87088  0.78753  1.0000
  H   H476      1.0  0.10738  0.89110  0.78268  1.0000
  N   N20       1.0  0.04506  0.71075  0.75308  1.0000
  C   C281      1.0  0.06259  0.70217  0.73447  1.0000
  C   C282      1.0  0.04400  0.69184  0.77273  1.0000
  C   C283      1.0  0.05327  0.73016  0.76018  1.0000
  C   C284      1.0  0.02296  0.71821  0.74399  1.0000
  C   C285      1.0  0.06728  0.71914  0.71276  1.0000
  C   C286      1.0  0.23606  0.51280  0.73883  1.0000
  H   H477      1.0  0.21067  0.76609  0.72549  1.0000
  H   H478      1.0  0.17825  0.55233  0.75654  1.0000
  H   H479      1.0  0.07904  0.69585  0.74077  1.0000
  H   H480      1.0  0.05763  0.68758  0.72865  1.0000
  C   C287      1.0  0.00016  0.78801  0.73715  1.0000
  H   H481      1.0  0.06069  0.68707  0.77881  1.0000
  H   H482      1.0  0.06995  0.72450  0.76605  1.0000
  H   H483      1.0  0.05594  0.74371  0.74568  1.0000
  H   H484      1.0  0.02302  0.73506  0.73360  1.0000
  H   H485      1.0  0.24179  0.69193  0.77440  1.0000
  H   H486      1.0  0.05178  0.72722  0.70566  1.0000
  H   H487      1.0  0.07682  0.73224  0.71539  1.0000
  H   H488      1.0  0.07809  0.70995  0.69956  1.0000
  S   S86       1.0  0.23505  0.53469  0.75509  1.0000
  H   H489      1.0  0.03299  0.65901  0.78421  1.0000
  H   H490      1.0  0.19717  0.83728  0.63348  1.0000
  S   S87       1.0  0.23191  0.58901  0.70398  1.0000
  H   H491      1.0  0.14972  0.56726  0.69849  1.0000
  H   H492      1.0  0.21824  0.54846  0.81352  1.0000
  C   C288      1.0  0.17230  0.54291  0.74511  1.0000
  C   C289      1.0  0.23084  0.65911  0.81366  1.0000
  C   C290      1.0  0.22003  0.73354  0.64362  1.0000
  N   N21       1.0  0.20839  0.75206  0.92476  1.0000
  H   H493      1.0  0.13587  0.82898  0.78512  1.0000
  C   C291      1.0  0.21040  0.74071  0.90406  1.0000
  C   C292      1.0  0.20572  0.75650  0.88208  1.0000
  C   C293      1.0  0.18584  0.76635  0.92949  1.0000
  S   S88       1.0  0.21921  0.63743  0.72491  1.0000
  H   H494      1.0  0.15028  0.76735  0.92798  1.0000
  H   H495      1.0  0.23437  0.88488  0.62247  1.0000
  H   H496      1.0  0.19865  0.79734  0.64410  1.0000
  H   H497      1.0  0.19579  0.69196  0.77616  1.0000
  H   H498      1.0  0.20651  0.74184  0.96114  1.0000
  H   H499      1.0  0.24284  0.75824  0.91363  1.0000
  H   H500      1.0  0.16411  0.91725  0.73050  1.0000
  H   H501      1.0  0.21610  0.74792  0.63032  1.0000
  C   C294      1.0  0.23388  0.85655  0.60505  1.0000
  N   N22       1.0  0.22024  0.83901  0.60189  1.0000
  H   H502      1.0  0.13535  0.52568  0.68689  1.0000
  H   H503      1.0  0.20970  0.70159  0.68140  1.0000
  H   H504      1.0  0.23498  0.61096  0.84897  1.0000
  H   H505      1.0  0.15373  0.54705  0.74719  1.0000
  N   N23       1.0  0.23069  0.70907  0.74317  1.0000
  C   C295      1.0  0.00365  0.77770  0.71764  1.0000
  H   H506      1.0  0.22065  0.79071  0.62194  1.0000
  C   C296      1.0  0.22622  0.76744  0.92012  1.0000
  H   H507      1.0  0.20652  0.66332  0.68075  1.0000
  H   H508      1.0  0.20146  0.57524  0.80787  1.0000
  C   C297      1.0  0.22888  0.57642  0.82626  1.0000
  C   C298      1.0  0.21491  0.72992  0.73567  1.0000
  N   N24       1.0  0.20358  0.71685  0.64738  1.0000
  C   C299      1.0  0.18027  0.72636  0.65750  1.0000
  C   C300      1.0  0.20118  0.67549  0.66612  1.0000
  C   C301      1.0  0.20308  0.72563  0.60379  1.0000
  C   C302      1.0  0.16922  0.74895  0.64549  1.0000
  H   H509      1.0  0.18789  0.69963  0.62696  1.0000
  H   H510      1.0  0.16838  0.71422  0.65818  1.0000
  H   H511      1.0  0.17946  0.72807  0.67562  1.0000
  H   H512      1.0  0.19614  0.57968  0.68224  1.0000
  H   H513      1.0  0.21271  0.73045  0.83113  1.0000
  H   H514      1.0  0.21863  0.76783  0.87604  1.0000
  H   H515      1.0  0.24332  0.78885  0.93472  1.0000
  H   H516      1.0  0.19012  0.67226  0.75997  1.0000
  H   H517      1.0  0.18253  0.70148  0.75078  1.0000
  C   C303      1.0  0.22977  0.77813  0.94040  1.0000
  H   H518      1.0  0.05111  0.66029  0.75783  1.0000
  C   C304      1.0  0.03790  0.74210  0.77879  1.0000
  H   H519      1.0  0.20934  0.72837  0.71948  1.0000
  H   H520      1.0  0.19939  0.73182  0.74821  1.0000
  H   H521      1.0  0.03239  0.69703  0.78765  1.0000
  Fe  Fe43      1.0  0.20091  0.61096  0.71820  1.0000
  C   C305      1.0  0.19556  0.68904  0.75864  1.0000
  C   C306      1.0  0.21307  0.73473  0.94513  1.0000
  H   H522      1.0  0.16073  0.74652  0.95021  1.0000
  H   H523      1.0  0.21455  0.78925  0.94692  1.0000
  C   C307      1.0  0.17933  0.51377  0.71023  1.0000
  S   S89       1.0  0.19966  0.59227  0.75332  1.0000
  C   C308      1.0  0.18335  0.54996  0.72056  1.0000
  Fe  Fe44      1.0  0.23197  0.57184  0.73998  1.0000
  S   S90       1.0  0.22539  0.85961  0.73736  1.0000
  H   H524      1.0  0.20668  0.66683  0.65100  1.0000
  H   H525      1.0  0.16772  0.89422  0.71499  1.0000
  S   S91       1.0  0.22521  0.77522  0.82450  1.0000
  H   H526      1.0  0.20649  0.74608  0.86851  1.0000
  H   H527      1.0  0.19269  0.80278  0.61576  1.0000
  C   C309      1.0  0.21888  0.68892  0.74398  1.0000
  H   H528      1.0  0.24660  0.70595  0.70888  1.0000
  C   C310      1.0  0.20565  0.80317  0.62631  1.0000
  H   H529      1.0  0.04648  0.75552  0.78252  1.0000
  H   H530      1.0  0.18621  0.71383  0.94616  1.0000
  H   H531      1.0  0.23148  0.73006  0.94526  1.0000
  H   H532      1.0  0.17735  0.52478  0.75125  1.0000
  H   H533      1.0  0.18922  0.86229  0.60136  1.0000
  H   H534      1.0  0.14135  0.54333  0.71595  1.0000
  S   S92       1.0  0.23387  0.97189  0.69458  1.0000
  H   H535      1.0  0.23800  0.86783  0.58890  1.0000
  S   S93       1.0  0.21322  0.63308  0.79047  1.0000
  H   H536      1.0  0.21657  0.68684  0.72663  1.0000
  C   C311      1.0  0.19125  0.56954  0.67088  1.0000
  C   C312      1.0  0.22309  0.87220  0.62278  1.0000
  H   H537      1.0  0.17856  0.89076  0.74157  1.0000
  H   H538      1.0  0.18869  0.76649  0.88375  1.0000
  H   H539      1.0  0.17823  0.84597  0.56787  1.0000
  Fe  Fe45      1.0  0.22101  0.61673  0.75891  1.0000
  H   H540      1.0  0.19023  0.53549  0.66733  1.0000
  H   H541      1.0  0.21424  0.66153  0.82341  1.0000
  H   H542      1.0  0.20186  0.54646  0.72061  1.0000
  H   H543      1.0  0.24839  0.82779  0.77218  1.0000
  C   C313      1.0  0.18561  0.83659  0.58294  1.0000
  C   C314      1.0  0.15262  0.54846  0.70014  1.0000
  C   C315      1.0  0.22195  0.74387  0.66464  1.0000
  C   C316      1.0  0.21903  0.56678  0.80868  1.0000
  H   H544      1.0  0.17430  0.57682  0.66652  1.0000
  C   C317      1.0  0.14273  0.54154  0.68099  1.0000
  H   H545      1.0  0.22514  0.82453  0.63629  1.0000
  H   H546      1.0  0.24725  0.73477  0.78176  1.0000
  H   H547      1.0  0.22052  0.71503  0.77780  1.0000
  C   C318      1.0  0.20432  0.71197  0.94736  1.0000
  H   H548      1.0  0.12923  0.55515  0.67558  1.0000
  H   H549      1.0  0.21959  0.57083  0.84323  1.0000
  N   N25       1.0  0.17676  0.53898  0.70254  1.0000
  H   H550      1.0  0.15739  0.82068  0.76246  1.0000
  H   H551      1.0  0.22842  0.56994  0.79141  1.0000
  H   H552      1.0  0.22246  0.78177  0.90656  1.0000
  C   C319      1.0  0.22363  0.75276  0.73239  1.0000
  C   C320      1.0  0.03706  0.67004  0.76792  1.0000
  H   H553      1.0  0.17932  0.56867  0.71710  1.0000
  H   H554      1.0  0.18378  0.78162  0.91651  1.0000
  H   H555      1.0  0.02196  0.75088  0.77297  1.0000
  H   H556      1.0  0.22154  0.86283  0.64022  1.0000
  H   H557      1.0  0.16485  0.82519  0.78825  1.0000
  H   H558      1.0  0.16618  0.74202  0.92088  1.0000
  C   C321      1.0  0.21204  0.82691  0.62500  1.0000
  C   C322      1.0  0.24112  0.49884  0.70276  1.0000
  H   H559      1.0  0.16936  0.50220  0.68093  1.0000
  C   C323      1.0  0.23490  0.64611  0.79599  1.0000
  H   H560      1.0  0.22387  0.59500  0.82295  1.0000
  H   H561      1.0  0.20332  0.57128  0.65497  1.0000
  H   H562      1.0  0.20560  0.75289  0.67179  1.0000
  C   C324      1.0  0.20071  0.85120  0.59021  1.0000
  H   H563      1.0  0.22577  0.75732  0.74878  1.0000
  H   H564      1.0  0.20631  0.86328  0.57514  1.0000
  H   H565      1.0  0.23057  0.69202  0.65972  1.0000
  C   C325      1.0  0.23603  0.70935  0.76651  1.0000
  H   H566      1.0  0.19423  0.50821  0.71925  1.0000
  C   C326      1.0  0.23574  0.82276  0.58793  1.0000
  C   C327      1.0  0.24124  0.51633  0.71525  1.0000
  H   H567      1.0  0.24375  0.65562  0.62663  1.0000
  H   H568      1.0  0.23719  0.72546  0.63702  1.0000
  H   H569      1.0  0.22903  0.73099  0.67781  1.0000
  H   H570      1.0  0.22843  0.74028  0.51251  1.0000
  Fe  Fe46      1.0  0.24613  0.88578  0.71699  1.0000
  H   H571      1.0  0.23376  0.75649  0.65962  1.0000
  C   C328      1.0  0.00113  0.71947  0.76136  1.0000
  H   H572      1.0  0.24503  0.67898  0.83244  1.0000
  H   H573      1.0  0.02199  0.67340  0.75922  1.0000
  C   C329      1.0  0.24578  0.99193  0.70512  1.0000
  H   H574      1.0  0.24537  0.53253  0.70664  1.0000
  H   H575      1.0  0.24504  0.50177  0.68450  1.0000
  C   C330      1.0  0.24531  0.83291  0.56386  1.0000
  C   C331      1.0  0.24823  0.66902  0.81878  1.0000
  H   H576      1.0  0.00328  0.72007  0.77894  1.0000
  H   H577      1.0  0.26818  0.33621  0.31758  1.0000
  Fe  Fe47      1.0  0.28332  0.10833  0.15735  1.0000
  H   H578      1.0  0.31064  0.20278  0.44443  1.0000
  S   S94       1.0  0.30346  0.11680  0.12318  1.0000
  Fe  Fe48      1.0  0.27253  0.06932  0.19444  1.0000
  Fe  Fe49      1.0  0.27433  0.11596  0.20648  1.0000
  S   S95       1.0  0.28017  0.13827  0.23063  1.0000
  S   S96       1.0  0.29963  0.09179  0.18774  1.0000
  C   C332      1.0  0.45141  0.24749  0.29090  1.0000
  S   S97       1.0  0.29403  0.38680  0.21183  1.0000
  H   H579      1.0  0.28617  0.27948  0.14839  1.0000
  H   H580      1.0  0.44910  0.26958  0.22536  1.0000
  S   S98       1.0  0.26993  0.37523  0.17087  1.0000
  S   S99       1.0  0.27623  0.33797  0.21643  1.0000
  Fe  Fe50      1.0  0.29783  0.35890  0.19081  1.0000
  S   S100      1.0  0.32918  0.33799  0.17593  1.0000
  Fe  Fe51      1.0  0.26399  0.40160  0.19442  1.0000
  C   C333      1.0  0.27623  0.29693  0.27447  1.0000
  C   C334      1.0  0.41473  0.30586  0.28038  1.0000
  H   H581      1.0  0.34774  0.27089  0.14122  1.0000
  Fe  Fe52      1.0  0.37880  0.19909  0.23840  1.0000
  S   S101      1.0  0.39116  0.17646  0.26830  1.0000
  S   S102      1.0  0.36999  0.18251  0.21103  1.0000
  Fe  Fe53      1.0  0.38151  0.24137  0.25712  1.0000
  S   S103      1.0  0.39364  0.22215  0.28882  1.0000
  S   S104      1.0  0.37544  0.27894  0.25654  1.0000
  Fe  Fe54      1.0  0.41639  0.20011  0.26578  1.0000
  S   S105      1.0  0.45040  0.18555  0.27647  1.0000
  Fe  Fe55      1.0  0.36768  0.20035  0.28870  1.0000
  S   S106      1.0  0.34540  0.18686  0.31968  1.0000
  S   S107      1.0  0.40630  0.22099  0.23373  1.0000
  S   S108      1.0  0.35332  0.22145  0.25905  1.0000
  H   H582      1.0  0.31883  0.27973  0.23170  1.0000
  C   C335      1.0  0.47450  0.19904  0.26742  1.0000
  S   S109      1.0  0.25853  0.08398  0.16223  1.0000
  H   H583      1.0  0.26325  0.23654  0.31673  1.0000
  H   H584      1.0  0.32045  0.26457  0.14306  1.0000
  H   H585      1.0  0.28631  0.27869  0.08788  1.0000
  C   C336      1.0  0.47634  0.21480  0.24773  1.0000
  H   H586      1.0  0.26668  0.19577  0.10886  1.0000
  H   H587      1.0  0.49436  0.28811  0.27472  1.0000
  H   H588      1.0  0.27161  0.27805  0.11583  1.0000
  H   H589      1.0  0.46327  0.21810  0.23705  1.0000
  C   C337      1.0  0.32863  0.20875  0.33279  1.0000
  C   C338      1.0  0.33711  0.22867  0.33302  1.0000
  C   C339      1.0  0.32361  0.24612  0.34352  1.0000
  H   H590      1.0  0.26478  0.12288  0.08493  1.0000
  C   C340      1.0  0.29281  0.22416  0.35279  1.0000
  C   C341      1.0  0.30660  0.20635  0.34301  1.0000
  H   H591      1.0  0.35414  0.23056  0.32530  1.0000
  H   H592      1.0  0.33027  0.26145  0.34382  1.0000
  H   H593      1.0  0.30000  0.19095  0.34280  1.0000
  C   C342      1.0  0.34250  0.32151  0.19798  1.0000
  C   C343      1.0  0.34105  0.32973  0.21843  1.0000
  C   C344      1.0  0.35182  0.31676  0.23601  1.0000
  C   C345      1.0  0.36324  0.29508  0.23363  1.0000
  C   C346      1.0  0.36439  0.28659  0.21333  1.0000
  C   C347      1.0  0.35432  0.29998  0.19536  1.0000
  H   H594      1.0  0.33195  0.34632  0.22057  1.0000
  H   H595      1.0  0.35084  0.32337  0.25169  1.0000
  H   H596      1.0  0.37322  0.26986  0.21141  1.0000
  H   H597      1.0  0.35542  0.29356  0.17957  1.0000
  H   H598      1.0  0.46817  0.23981  0.28331  1.0000
  H   H599      1.0  0.38419  0.19135  0.34474  1.0000
  H   H600      1.0  0.24917  0.17229  0.05085  1.0000
  H   H601      1.0  0.49649  0.23850  0.22664  1.0000
  H   H602      1.0  0.27890  0.18672  0.44318  1.0000
  H   H603      1.0  0.26371  0.10034  0.10778  1.0000
  C   C348      1.0  0.42268  0.28082  0.28896  1.0000
  H   H604      1.0  0.41258  0.18479  0.35012  1.0000
  H   H605      1.0  0.32620  0.34443  0.10555  1.0000
  H   H606      1.0  0.30802  0.20404  0.40287  1.0000
  C   C349      1.0  0.30570  0.14953  0.22585  1.0000
  C   C350      1.0  0.32381  0.14188  0.21020  1.0000
  C   C351      1.0  0.34382  0.15143  0.20657  1.0000
  C   C352      1.0  0.34571  0.16900  0.21812  1.0000
  C   C353      1.0  0.32774  0.17636  0.23407  1.0000
  C   C354      1.0  0.30783  0.16662  0.23794  1.0000
  H   H607      1.0  0.32248  0.12845  0.20108  1.0000
  H   H608      1.0  0.35795  0.14518  0.19482  1.0000
  H   H609      1.0  0.32903  0.18977  0.24320  1.0000
  H   H610      1.0  0.29398  0.17244  0.25026  1.0000
  C   C355      1.0  0.29807  0.14368  0.10734  1.0000
  C   C356      1.0  0.30846  0.16956  0.07346  1.0000
  C   C357      1.0  0.31110  0.14806  0.08620  1.0000
  H   H611      1.0  0.31899  0.17290  0.05734  1.0000
  H   H612      1.0  0.32359  0.13486  0.07982  1.0000
  H   H613      1.0  0.41864  0.31017  0.26178  1.0000
  H   H614      1.0  0.42161  0.31740  0.28886  1.0000
  H   H615      1.0  0.28950  0.43381  0.25455  1.0000
  C   C358      1.0  0.26632  0.46172  0.18976  1.0000
  C   C359      1.0  0.28667  0.45782  0.19859  1.0000
  C   C360      1.0  0.29554  0.47596  0.20384  1.0000
  H   H616      1.0  0.27961  0.31584  0.10072  1.0000
  C   C361      1.0  0.27885  0.20726  0.48189  1.0000
  H   H617      1.0  0.30148  0.33814  0.14260  1.0000
  H   H618      1.0  0.27878  0.24165  0.46696  1.0000
  H   H619      1.0  0.42376  0.27899  0.24272  1.0000
  H   H620      1.0  0.45480  0.28414  0.31269  1.0000
  H   H621      1.0  0.46345  0.24539  0.32365  1.0000
  H   H622      1.0  0.33078  0.21534  0.08915  1.0000
  H   H623      1.0  0.33015  0.30720  0.14338  1.0000
  C   C362      1.0  0.48662  0.27811  0.29030  1.0000
  H   H624      1.0  0.28332  0.30971  0.26093  1.0000
  H   H625      1.0  0.27639  0.23027  0.28960  1.0000
  C   C363      1.0  0.28494  0.29796  0.14755  1.0000
  H   H626      1.0  0.45188  0.22140  0.32014  1.0000
  H   H627      1.0  0.27561  0.22249  0.36005  1.0000
  C   C364      1.0  0.31649  0.29440  0.29760  1.0000
  H   H628      1.0  0.45794  0.30338  0.28786  1.0000
  H   H629      1.0  0.27765  0.33993  0.12893  1.0000
  H   H630      1.0  0.29737  0.20405  0.48146  1.0000
  C   C365      1.0  0.27894  0.18241  0.10246  1.0000
  N   N26       1.0  0.44740  0.27256  0.28296  1.0000
  S   S110      1.0  0.25356  0.27031  0.05057  1.0000
  C   C366      1.0  0.44977  0.24015  0.31668  1.0000
  C   C367      1.0  0.26893  0.24335  0.42427  1.0000
  C   C368      1.0  0.39781  0.17714  0.34840  1.0000
  S   S111      1.0  0.27251  0.36036  0.27279  1.0000
  H   H631      1.0  0.30566  0.29628  0.17466  1.0000
  H   H632      1.0  0.29551  0.44081  0.20146  1.0000
  H   H633      1.0  0.27396  0.30521  0.28984  1.0000
  H   H634      1.0  0.33445  0.29518  0.29821  1.0000
  C   C369      1.0  0.29443  0.30368  0.10579  1.0000
  N   N27       1.0  0.27851  0.22299  0.43950  1.0000
  C   C370      1.0  0.30383  0.21893  0.43457  1.0000
  C   C371      1.0  0.25052  0.01493  0.18885  1.0000
  C   C372      1.0  0.32477  0.30035  0.12956  1.0000
  H   H635      1.0  0.27149  0.24004  0.40648  1.0000
  C   C373      1.0  0.31389  0.21752  0.40960  1.0000
  H   H636      1.0  0.41344  0.13395  0.36630  1.0000
  H   H637      1.0  0.43318  0.24645  0.32581  1.0000
  H   H638      1.0  0.31122  0.23221  0.44022  1.0000
  H   H639      1.0  0.28325  0.32016  0.17312  1.0000
  H   H640      1.0  0.30215  0.34605  0.09086  1.0000
  H   H641      1.0  0.27472  0.42013  0.28058  1.0000
  C   C374      1.0  0.24894  0.35156  0.29076  1.0000
  N   N28       1.0  0.30025  0.30830  0.12771  1.0000
  H   H642      1.0  0.27152  0.21194  0.49885  1.0000
  H   H643      1.0  0.31029  0.23381  0.39855  1.0000
  H   H644      1.0  0.33249  0.21349  0.40829  1.0000
  S   S112      1.0  0.26022  0.13415  0.17552  1.0000
  C   C375      1.0  0.46075  0.28499  0.29420  1.0000
  H   H645      1.0  0.41228  0.27050  0.28267  1.0000
  Fe  Fe56      1.0  0.25706  0.23482  0.06843  1.0000
  S   S113      1.0  0.28427  0.26690  0.36430  1.0000
  C   C376      1.0  0.45476  0.27678  0.25777  1.0000
  H   H646      1.0  0.47242  0.26859  0.25345  1.0000
  C   C377      1.0  0.49192  0.19434  0.28076  1.0000
  C   C378      1.0  0.44043  0.26840  0.24309  1.0000
  H   H647      1.0  0.26716  0.30441  0.14549  1.0000
  H   H648      1.0  0.43932  0.23875  0.28504  1.0000
  C   C379      1.0  0.30130  0.24409  0.35295  1.0000
  H   H649      1.0  0.39158  0.16729  0.36470  1.0000
  C   C380      1.0  0.29241  0.18676  0.08150  1.0000
  H   H650      1.0  0.26259  0.20363  0.20529  1.0000
  H   H651      1.0  0.30277  0.36606  0.10899  1.0000
  N   N29       1.0  0.34769  0.17587  0.13483  1.0000
  C   C381      1.0  0.37256  0.17724  0.13051  1.0000
  C   C382      1.0  0.33821  0.18513  0.11314  1.0000
  C   C383      1.0  0.34322  0.15184  0.14195  1.0000
  C   C384      1.0  0.33678  0.18934  0.15349  1.0000
  C   C385      1.0  0.38597  0.16623  0.15000  1.0000
  C   C386      1.0  0.33579  0.21098  0.10635  1.0000
  C   C387      1.0  0.35559  0.13489  0.12611  1.0000
  C   C388      1.0  0.31107  0.18980  0.16017  1.0000
  H   H652      1.0  0.38081  0.16962  0.11518  1.0000
  H   H653      1.0  0.37553  0.19514  0.12671  1.0000
  H   H654      1.0  0.32144  0.18020  0.11381  1.0000
  H   H655      1.0  0.34864  0.17758  0.09861  1.0000
  H   H656      1.0  0.34733  0.14522  0.15923  1.0000
  H   H657      1.0  0.32493  0.15087  0.14331  1.0000
  H   H658      1.0  0.34406  0.18250  0.16925  1.0000
  H   H659      1.0  0.34071  0.20694  0.14993  1.0000
  H   H660      1.0  0.38124  0.17550  0.16472  1.0000
  H   H661      1.0  0.38430  0.14819  0.15551  1.0000
  H   H662      1.0  0.40413  0.16705  0.14415  1.0000
  H   H663      1.0  0.33549  0.30750  0.11420  1.0000
  H   H664      1.0  0.32225  0.21972  0.11784  1.0000
  H   H665      1.0  0.35175  0.21763  0.10563  1.0000
  H   H666      1.0  0.37410  0.13280  0.12534  1.0000
  H   H667      1.0  0.35102  0.13958  0.10882  1.0000
  H   H668      1.0  0.35042  0.11805  0.13280  1.0000
  H   H669      1.0  0.30731  0.17542  0.17352  1.0000
  H   H670      1.0  0.30226  0.18924  0.14580  1.0000
  H   H671      1.0  0.30360  0.20584  0.16669  1.0000
  N   N30       1.0  0.42147  0.14338  0.33014  1.0000
  C   C389      1.0  0.40256  0.16295  0.32879  1.0000
  C   C390      1.0  0.42465  0.13364  0.30829  1.0000
  C   C391      1.0  0.44239  0.15250  0.33267  1.0000
  C   C392      1.0  0.41483  0.12655  0.35047  1.0000
  C   C393      1.0  0.40496  0.12250  0.30433  1.0000
  C   C394      1.0  0.46538  0.13931  0.32426  1.0000
  C   C395      1.0  0.43086  0.10412  0.35394  1.0000
  H   H672      1.0  0.40589  0.17485  0.31288  1.0000
  H   H673      1.0  0.38638  0.15712  0.32820  1.0000
  H   H674      1.0  0.43971  0.12063  0.30667  1.0000
  H   H675      1.0  0.42796  0.14695  0.29356  1.0000
  H   H676      1.0  0.44260  0.16992  0.32328  1.0000
  H   H677      1.0  0.44252  0.15418  0.35066  1.0000
  H   H678      1.0  0.39753  0.12267  0.35083  1.0000
  H   H679      1.0  0.40187  0.10776  0.31738  1.0000
  H   H680      1.0  0.38919  0.13452  0.30333  1.0000
  H   H681      1.0  0.40939  0.11615  0.28776  1.0000
  H   H682      1.0  0.47894  0.14664  0.32937  1.0000
  H   H683      1.0  0.46847  0.14118  0.30547  1.0000
  H   H684      1.0  0.46725  0.12123  0.33141  1.0000
  H   H685      1.0  0.44439  0.10576  0.36349  1.0000
  H   H686      1.0  0.43844  0.09757  0.33802  1.0000
  H   H687      1.0  0.42113  0.09083  0.36369  1.0000
  N   N31       1.0  0.29236  0.27526  0.27727  1.0000
  C   C396      1.0  0.31517  0.28128  0.27827  1.0000
  C   C397      1.0  0.29495  0.26224  0.25765  1.0000
  C   C398      1.0  0.28540  0.26055  0.29927  1.0000
  C   C399      1.0  0.33273  0.27469  0.13230  1.0000
  H   H688      1.0  0.29637  0.26437  0.41824  1.0000
  C   C400      1.0  0.30168  0.27520  0.23395  1.0000
  C   C401      1.0  0.27808  0.26554  0.42428  1.0000
  C   C402      1.0  0.27167  0.22702  0.46372  1.0000
  H   H689      1.0  0.32800  0.26584  0.27956  1.0000
  H   H690      1.0  0.32114  0.29217  0.26257  1.0000
  H   H691      1.0  0.27929  0.25573  0.25669  1.0000
  H   H692      1.0  0.30767  0.24688  0.26009  1.0000
  H   H693      1.0  0.30035  0.24939  0.30528  1.0000
  H   H694      1.0  0.27819  0.27100  0.31292  1.0000
  H   H695      1.0  0.45522  0.29507  0.25170  1.0000
  H   H696      1.0  0.31117  0.47273  0.21082  1.0000
  H   H697      1.0  0.33744  0.26878  0.11555  1.0000
  H   H698      1.0  0.30807  0.31212  0.29445  1.0000
  H   H699      1.0  0.39610  0.30923  0.28455  1.0000
  H   H700      1.0  0.28940  0.29045  0.23008  1.0000
  C   C403      1.0  0.27113  0.01032  0.19714  1.0000
  H   H701      1.0  0.30189  0.26416  0.22106  1.0000
  H   H702      1.0  0.27424  0.27133  0.44105  1.0000
  C   C404      1.0  0.28820  0.30214  0.17108  1.0000
  H   H703      1.0  0.41766  0.27861  0.30761  1.0000
  C   C405      1.0  0.49522  0.22622  0.24181  1.0000
  C   C406      1.0  0.30761  0.34797  0.10690  1.0000
  H   H704      1.0  0.30842  0.30645  0.09168  1.0000
  S   S114      1.0  0.28298  0.03171  0.20548  1.0000
  H   H705      1.0  0.30106  0.26613  0.11099  1.0000
  C   C407      1.0  0.28191  0.16087  0.11549  1.0000
  H   H706      1.0  0.30934  0.28631  0.31443  1.0000
  S   S115      1.0  0.29120  0.21391  0.06593  1.0000
  C   C408      1.0  0.28820  0.28016  0.10548  1.0000
  H   H707      1.0  0.28609  0.40529  0.25758  1.0000
  Fe  Fe57      1.0  0.26972  0.36699  0.23574  1.0000
  H   H708      1.0  0.26968  0.27903  0.41238  1.0000
  C   C409      1.0  0.26950  0.20265  0.43532  1.0000
  C   C410      1.0  0.29597  0.33356  0.12764  1.0000
  H   H709      1.0  0.27260  0.19152  0.48062  1.0000
  H   H710      1.0  0.43794  0.25060  0.24874  1.0000
  C   C411      1.0  0.26848  0.24439  0.29909  1.0000
  H   H711      1.0  0.27189  0.15774  0.13182  1.0000
  H   H712      1.0  0.27207  0.20152  0.41689  1.0000
  H   H713      1.0  0.27686  0.29269  0.18421  1.0000
  H   H714      1.0  0.49071  0.18204  0.29592  1.0000
  H   H715      1.0  0.49384  0.28102  0.30503  1.0000
  C   C412      1.0  0.27735  0.42190  0.26193  1.0000
  H   H716      1.0  0.49205  0.26002  0.28893  1.0000
  S   S116      1.0  0.25355  0.43937  0.18426  1.0000
  H   H717      1.0  0.26977  0.46979  0.24634  1.0000
  C   C413      1.0  0.25526  0.48400  0.18587  1.0000
  C   C414      1.0  0.25316  0.11261  0.09666  1.0000
  H   H718      1.0  0.26099  0.43667  0.23341  1.0000
  H   H719      1.0  0.26445  0.48629  0.26897  1.0000
  H   H720      1.0  0.24861  0.14260  0.05710  1.0000
  C   C415      1.0  0.25568  0.42811  0.25068  1.0000
  C   C416      1.0  0.25636  0.47746  0.25862  1.0000
  H   H721      1.0  0.25381  0.45153  0.28738  1.0000
  H   H722      1.0  0.25054  0.41209  0.24827  1.0000
  H   H723      1.0  0.25142  0.28250  0.26012  1.0000
  C   C417      1.0  0.25223  0.29534  0.27071  1.0000
  H   H724      1.0  0.25306  0.25307  0.29229  1.0000
  H   H725      1.0  0.25317  0.23164  0.46743  1.0000
  C   C418      1.0  0.25172  0.33965  0.31223  1.0000
  H   H726      1.0  0.25041  0.24704  0.42882  1.0000
  H   H727      1.0  0.25040  0.01886  0.25683  1.0000
  C   C419      1.0  0.25469  0.00084  0.26405  1.0000
  H   H728      1.0  0.25047  0.99959  0.28269  1.0000
  C   C420      1.0  0.28430  0.49821  0.20020  1.0000
  H   H729      1.0  0.32987  0.03209  0.80921  1.0000
  H   H730      1.0  0.29554  0.24809  0.97646  1.0000
  H   H731      1.0  0.32093  0.33417  0.65319  1.0000
  Fe  Fe58      1.0  0.30126  0.12008  0.72195  1.0000
  S   S117      1.0  0.27815  0.14645  0.70311  1.0000
  S   S118      1.0  0.33245  0.12557  0.73470  1.0000
  Fe  Fe59      1.0  0.27322  0.08250  0.72132  1.0000
  C   C421      1.0  0.46122  0.28271  0.69187  1.0000
  S   S119      1.0  0.27775  0.04433  0.73083  1.0000
  Fe  Fe60      1.0  0.27750  0.11990  0.68186  1.0000
  S   S120      1.0  0.28312  0.12644  0.64399  1.0000
  H   H732      1.0  0.33922  0.28608  0.65654  1.0000
  H   H733      1.0  0.29879  0.16039  0.75344  1.0000
  S   S121      1.0  0.30311  0.09479  0.69868  1.0000
  H   H734      1.0  0.26923  0.19524  0.91408  1.0000
  Fe  Fe61      1.0  0.42270  0.24372  0.74432  1.0000
  S   S122      1.0  0.40347  0.26025  0.71576  1.0000
  S   S123      1.0  0.46086  0.23585  0.73612  1.0000
  Fe  Fe62      1.0  0.37967  0.24009  0.77733  1.0000
  S   S124      1.0  0.35724  0.25673  0.75174  1.0000
  S   S125      1.0  0.36430  0.22531  0.81193  1.0000
  Fe  Fe63      1.0  0.37981  0.23496  0.72854  1.0000
  S   S126      1.0  0.36133  0.22271  0.70486  1.0000
  Fe  Fe64      1.0  0.38241  0.28072  0.74110  1.0000
  S   S127      1.0  0.37256  0.31744  0.72808  1.0000
  S   S128      1.0  0.40069  0.21626  0.75485  1.0000
  S   S129      1.0  0.40318  0.26621  0.76897  1.0000
  C   C422      1.0  0.34208  0.15173  0.72467  1.0000
  C   C423      1.0  0.33250  0.16693  0.70765  1.0000
  C   C424      1.0  0.33900  0.18846  0.70127  1.0000
  C   C425      1.0  0.35507  0.19494  0.71191  1.0000
  C   C426      1.0  0.36515  0.17954  0.72850  1.0000
  C   C427      1.0  0.35880  0.15791  0.73472  1.0000
  H   H735      1.0  0.32004  0.16219  0.69940  1.0000
  H   H736      1.0  0.33132  0.20020  0.68825  1.0000
  H   H737      1.0  0.37774  0.18433  0.73662  1.0000
  H   H738      1.0  0.36646  0.14614  0.74773  1.0000
  H   H739      1.0  0.25157  0.01970  0.64572  1.0000
  C   C428      1.0  0.29600  0.26364  0.83683  1.0000
  C   C429      1.0  0.31026  0.27396  0.81893  1.0000
  C   C430      1.0  0.33137  0.26234  0.81128  1.0000
  C   C431      1.0  0.33846  0.24059  0.82188  1.0000
  C   C432      1.0  0.32455  0.23065  0.84038  1.0000
  C   C433      1.0  0.30323  0.24205  0.84766  1.0000
  H   H740      1.0  0.34227  0.27030  0.79737  1.0000
  H   H741      1.0  0.33006  0.21389  0.84869  1.0000
  H   H742      1.0  0.29238  0.23408  0.86157  1.0000
  C   C434      1.0  0.29667  0.33861  0.74394  1.0000
  C   C435      1.0  0.30777  0.32111  0.75805  1.0000
  C   C436      1.0  0.33107  0.31475  0.75331  1.0000
  C   C437      1.0  0.34346  0.32596  0.73451  1.0000
  C   C438      1.0  0.33243  0.34368  0.72049  1.0000
  C   C439      1.0  0.30899  0.34991  0.72511  1.0000
  H   H743      1.0  0.29831  0.31243  0.77270  1.0000
  H   H744      1.0  0.33951  0.30142  0.76447  1.0000
  H   H745      1.0  0.34197  0.35246  0.70597  1.0000
  H   H746      1.0  0.30051  0.36353  0.71424  1.0000
  C   C440      1.0  0.30925  0.04399  0.66757  1.0000
  H   H747      1.0  0.47929  0.28977  0.71639  1.0000
  H   H748      1.0  0.48694  0.33834  0.74295  1.0000
  C   C441      1.0  0.27091  0.22884  0.92077  1.0000
  C   C442      1.0  0.27222  0.23506  0.95917  1.0000
  C   C443      1.0  0.30007  0.27042  0.65409  1.0000
  H   H749      1.0  0.40808  0.31765  0.75567  1.0000
  C   C444      1.0  0.48114  0.24782  0.74615  1.0000
  C   C445      1.0  0.47533  0.26104  0.76360  1.0000
  C   C446      1.0  0.27528  0.00210  0.72223  1.0000
  H   H750      1.0  0.30814  0.06615  0.81519  1.0000
  N   N32       1.0  0.31251  0.28782  0.68546  1.0000
  H   H751      1.0  0.45815  0.26342  0.77199  1.0000
  H   H752      1.0  0.28166  0.16381  0.60814  1.0000
  H   H753      1.0  0.31036  0.04348  0.68577  1.0000
  H   H754      1.0  0.27663  0.23308  0.90240  1.0000
  H   H755      1.0  0.31679  0.10338  0.81118  1.0000
  S   S130      1.0  0.26914  0.27783  0.84533  1.0000
  H   H756      1.0  0.31186  0.22000  0.93871  1.0000
  H   H757      1.0  0.41507  0.35797  0.68213  1.0000
  H   H758      1.0  0.31571  0.05929  0.62220  1.0000
  H   H759      1.0  0.43380  0.31930  0.76435  1.0000
  H   H760      1.0  0.48706  0.28193  0.78328  1.0000
  H   H761      1.0  0.25233  0.27026  0.90103  1.0000
  C   C447      1.0  0.35970  0.04594  0.79467  1.0000
  C   C448      1.0  0.29989  0.27088  0.67943  1.0000
  H   H762      1.0  0.34316  0.07900  0.76007  1.0000
  H   H763      1.0  0.43057  0.31830  0.68746  1.0000
  C   C449      1.0  0.44007  0.33008  0.69287  1.0000
  C   C450      1.0  0.43712  0.30765  0.73129  1.0000
  H   H764      1.0  0.45416  0.34899  0.72555  1.0000
  H   H765      1.0  0.40815  0.34564  0.71058  1.0000
  H   H766      1.0  0.27608  0.03640  0.61621  1.0000
  H   H767      1.0  0.35379  0.04027  0.74673  1.0000
  N   N33       1.0  0.28064  0.24229  0.93452  1.0000
  H   H768      1.0  0.25228  0.23334  0.92274  1.0000
  S   S131      1.0  0.25750  0.39372  0.69399  1.0000
  H   H769      1.0  0.49825  0.24069  0.84874  1.0000
  H   H770      1.0  0.27355  0.05094  0.67563  1.0000
  C   C451      1.0  0.28947  0.17773  0.75281  1.0000
  H   H771      1.0  0.30638  0.24566  0.75796  1.0000
  H   H772      1.0  0.28180  0.27381  0.68663  1.0000
  N   N34       1.0  0.30564  0.19220  0.78363  1.0000
  C   C452      1.0  0.32231  0.17087  0.78696  1.0000
  C   C453      1.0  0.28552  0.18567  0.77618  1.0000
  C   C454      1.0  0.29860  0.20019  0.80633  1.0000
  C   C455      1.0  0.31692  0.20953  0.76671  1.0000
  C   C456      1.0  0.34486  0.17330  0.79414  1.0000
  C   C457      1.0  0.42498  0.32264  0.74926  1.0000
  H   H773      1.0  0.28939  0.23702  0.79855  1.0000
  C   C458      1.0  0.30157  0.22962  0.75520  1.0000
  H   H774      1.0  0.31463  0.15780  0.79973  1.0000
  H   H775      1.0  0.32696  0.16327  0.77113  1.0000
  H   H776      1.0  0.29072  0.28609  0.64594  1.0000
  S   S132      1.0  0.26739  0.34552  0.75040  1.0000
  H   H777      1.0  0.29127  0.18677  0.81895  1.0000
  H   H778      1.0  0.31334  0.20358  0.81302  1.0000
  H   H779      1.0  0.32870  0.21676  0.77475  1.0000
  H   H780      1.0  0.32777  0.20129  0.75286  1.0000
  H   H781      1.0  0.35592  0.15675  0.79449  1.0000
  H   H782      1.0  0.35412  0.18552  0.78196  1.0000
  H   H783      1.0  0.34274  0.17784  0.81140  1.0000
  N   N35       1.0  0.28127  0.05836  0.63889  1.0000
  H   H784      1.0  0.29103  0.25653  0.65234  1.0000
  H   H785      1.0  0.45201  0.33576  0.67771  1.0000
  C   C459      1.0  0.28164  0.22200  0.80715  1.0000
  C   C460      1.0  0.28795  0.28591  0.72494  1.0000
  H   H786      1.0  0.28295  0.31285  0.68163  1.0000
  C   C461      1.0  0.26500  0.02471  0.72057  1.0000
  C   C462      1.0  0.27241  0.26725  0.92869  1.0000
  H   H787      1.0  0.31724  0.26682  0.64477  1.0000
  H   H788      1.0  0.30712  0.03288  0.76699  1.0000
  H   H789      1.0  0.47607  0.34273  0.70370  1.0000
  H   H790      1.0  0.27769  0.30242  0.72014  1.0000
  C   C463      1.0  0.26908  0.01825  0.64926  1.0000
  H   H791      1.0  0.29249  0.06167  0.59034  1.0000
  C   C464      1.0  0.28701  0.03545  0.79913  1.0000
  H   H792      1.0  0.26971  0.24234  0.99348  1.0000
  H   H793      1.0  0.30004  0.02670  0.62930  1.0000
  C   C465      1.0  0.28653  0.05774  0.66243  1.0000
  C   C466      1.0  0.31166  0.28370  0.71088  1.0000
  H   H794      1.0  0.30659  0.25344  0.68692  1.0000
  H   H795      1.0  0.27385  0.36352  0.81611  1.0000
  H   H796      1.0  0.30434  0.22954  0.73660  1.0000
  C   C467      1.0  0.29894  0.06997  0.62268  1.0000
  H   H797      1.0  0.27325  0.02860  0.79379  1.0000
  H   H798      1.0  0.31081  0.02625  0.66462  1.0000
  H   H799      1.0  0.48333  0.30728  0.68986  1.0000
  H   H800      1.0  0.27912  0.17177  0.78869  1.0000
  H   H801      1.0  0.32368  0.05198  0.65784  1.0000
  H   H802      1.0  0.42399  0.30084  0.72482  1.0000
  C   C468      1.0  0.27727  0.24917  0.97618  1.0000
  H   H803      1.0  0.27104  0.19931  0.77602  1.0000
  H   H804      1.0  0.27643  0.22441  0.82511  1.0000
  H   H805      1.0  0.29705  0.02100  0.80842  1.0000
  C   C469      1.0  0.29453  0.07644  0.59788  1.0000
  H   H806      1.0  0.32738  0.04583  0.73517  1.0000
  H   H807      1.0  0.47475  0.26822  0.68926  1.0000
  H   H808      1.0  0.33661  0.23691  0.90717  1.0000
  C   C470      1.0  0.26454  0.16139  0.61512  1.0000
  C   C471      1.0  0.31819  0.24143  0.90697  1.0000
  H   H809      1.0  0.26705  0.19674  0.94334  1.0000
  N   N36       1.0  0.45280  0.31831  0.71190  1.0000
  H   H810      1.0  0.36901  0.29597  0.67079  1.0000
  H   H811      1.0  0.44688  0.27577  0.70292  1.0000
  H   H812      1.0  0.34209  0.08834  0.79821  1.0000
  C   C472      1.0  0.46551  0.33470  0.71878  1.0000
  H   H813      1.0  0.29370  0.08305  0.79365  1.0000
  H   H814      1.0  0.31679  0.08165  0.75136  1.0000
  H   H815      1.0  0.47260  0.31426  0.75132  1.0000
  C   C473      1.0  0.28234  0.03515  0.63264  1.0000
  H   H816      1.0  0.34570  0.31538  0.68164  1.0000
  H   H817      1.0  0.30486  0.29079  0.81072  1.0000
  C   C474      1.0  0.33692  0.28332  0.67524  1.0000
  H   H818      1.0  0.28905  0.05903  0.76844  1.0000
  H   H819      1.0  0.32050  0.29589  0.71646  1.0000
  H   H820      1.0  0.25686  0.35980  0.84299  1.0000
  C   C475      1.0  0.30830  0.32277  0.65391  1.0000
  C   C476      1.0  0.33715  0.03921  0.79191  1.0000
  H   H821      1.0  0.34087  0.02432  0.78269  1.0000
  H   H822      1.0  0.45642  0.29006  0.67501  1.0000
  H   H823      1.0  0.27881  0.04778  0.81062  1.0000
  H   H824      1.0  0.27973  0.08975  0.59621  1.0000
  H   H825      1.0  0.31537  0.25935  0.89928  1.0000
  H   H826      1.0  0.29824  0.18927  0.73940  1.0000
  Fe  Fe65      1.0  0.25026  0.13083  0.72609  1.0000
  H   H827      1.0  0.31439  0.31102  0.64146  1.0000
  N   N37       1.0  0.32029  0.05742  0.78152  1.0000
  H   H828      1.0  0.31281  0.24846  0.94091  1.0000
  C   C477      1.0  0.27591  0.20293  0.92646  1.0000
  C   C478      1.0  0.31072  0.07457  0.79732  1.0000
  H   H829      1.0  0.34809  0.06397  0.72558  1.0000
  C   C479      1.0  0.30106  0.04644  0.77773  1.0000
  H   H830      1.0  0.35675  0.29036  0.69958  1.0000
  H   H831      1.0  0.28971  0.28501  0.74303  1.0000
  H   H832      1.0  0.25373  0.23536  0.96168  1.0000
  C   C480      1.0  0.30600  0.23767  0.93141  1.0000
  H   H833      1.0  0.25608  0.27219  0.93928  1.0000
  C   C481      1.0  0.30162  0.31173  0.67858  1.0000
  C   C482      1.0  0.47018  0.29992  0.70274  1.0000
  H   H834      1.0  0.25550  0.34059  0.79965  1.0000
  C   C483      1.0  0.34032  0.05353  0.74083  1.0000
  H   H835      1.0  0.26899  0.01954  0.66717  1.0000
  H   H836      1.0  0.26458  0.29472  0.90167  1.0000
  H   H837      1.0  0.42961  0.36428  0.70281  1.0000
  C   C484      1.0  0.42241  0.35064  0.69782  1.0000
  C   C485      1.0  0.26774  0.27598  0.90420  1.0000
  H   H838      1.0  0.42206  0.34093  0.74322  1.0000
  C   C486      1.0  0.32997  0.06899  0.75877  1.0000
  H   H839      1.0  0.25997  0.09075  0.63415  1.0000
  H   H840      1.0  0.32264  0.10642  0.78117  1.0000
  H   H841      1.0  0.28616  0.07525  0.66584  1.0000
  H   H842      1.0  0.36618  0.05845  0.78072  1.0000
  H   H843      1.0  0.35844  0.05227  0.81105  1.0000
  H   H844      1.0  0.32077  0.26665  0.71649  1.0000
  H   H845      1.0  0.27886  0.27188  0.72392  1.0000
  H   H846      1.0  0.30122  0.08578  0.62842  1.0000
  C   C487      1.0  0.49178  0.27140  0.77004  1.0000
  C   C488      1.0  0.32414  0.09406  0.79677  1.0000
  H   H847      1.0  0.34375  0.26518  0.67975  1.0000
  H   H848      1.0  0.29330  0.33387  0.64798  1.0000
  H   H849      1.0  0.28340  0.23026  0.76123  1.0000
  C   C489      1.0  0.25659  0.36110  0.82456  1.0000
  S   S133      1.0  0.27347  0.10584  0.74648  1.0000
  C   C490      1.0  0.35275  0.29727  0.68232  1.0000
  H   H850      1.0  0.30567  0.32313  0.68945  1.0000
  H   H851      1.0  0.26594  0.22133  0.80063  1.0000
  H   H852      1.0  0.27938  0.21731  0.96491  1.0000
  C   C491      1.0  0.25860  0.07240  0.63634  1.0000
  H   H853      1.0  0.28423  0.27763  0.93267  1.0000
  H   H854      1.0  0.31365  0.23047  0.89611  1.0000
  H   H855      1.0  0.49658  0.31408  0.72921  1.0000
  H   H856      1.0  0.44653  0.29279  0.74080  1.0000
  C   C492      1.0  0.26044  0.14418  0.63313  1.0000
  H   H857      1.0  0.26275  0.32505  0.82547  1.0000
  H   H858      1.0  0.29418  0.19670  0.92521  1.0000
  C   C493      1.0  0.48120  0.32451  0.73659  1.0000
  C   C494      1.0  0.25083  0.33941  0.81828  1.0000
  H   H859      1.0  0.30923  0.08369  0.58763  1.0000
  H   H860      1.0  0.27295  0.17695  0.74776  1.0000
  H   H861      1.0  0.25682  0.30079  0.80018  1.0000
  H   H862      1.0  0.28182  0.27084  0.89121  1.0000
  H   H863      1.0  0.37288  0.03086  0.79435  1.0000
  H   H864      1.0  0.26950  0.26710  0.97319  1.0000
  H   H865      1.0  0.27747  0.00076  0.64757  1.0000
  H   H866      1.0  0.24983  0.18921  0.59268  1.0000
  H   H867      1.0  0.25138  0.13954  0.81256  1.0000
  H   H868      1.0  0.25258  0.06974  0.62077  1.0000
  H   H869      1.0  0.46821  0.73535  0.22997  1.0000
  C   C495      1.0  0.49021  0.73036  0.19894  1.0000
  Fe  Fe66      1.0  0.27191  0.78168  0.06965  1.0000
  S   S134      1.0  0.30269  0.78138  0.04340  1.0000
  C   C496      1.0  0.26136  0.67574  0.25992  1.0000
  Fe  Fe67      1.0  0.26902  0.73252  0.07005  1.0000
  S   S135      1.0  0.29944  0.72743  0.04378  1.0000
  H   H870      1.0  0.28077  0.87413  0.09289  1.0000
  Fe  Fe68      1.0  0.31456  0.74804  0.06311  1.0000
  S   S136      1.0  0.35036  0.73725  0.06974  1.0000
  S   S137      1.0  0.28536  0.75008  0.09100  1.0000
  H   H871      1.0  0.29000  0.94159  0.15410  1.0000
  H   H872      1.0  0.35934  0.77003  0.02215  1.0000
  S   S138      1.0  0.26333  0.57399  0.16946  1.0000
  H   H873      1.0  0.26851  0.91922  0.28260  1.0000
  Fe  Fe69      1.0  0.28560  0.60304  0.21234  1.0000
  S   S139      1.0  0.30832  0.58165  0.18868  1.0000
  S   S140      1.0  0.29645  0.62347  0.23547  1.0000
  Fe  Fe70      1.0  0.28688  0.59991  0.16273  1.0000
  S   S141      1.0  0.30366  0.61597  0.12931  1.0000
  Fe  Fe71      1.0  0.28263  0.55762  0.19801  1.0000
  S   S142      1.0  0.26589  0.62276  0.18589  1.0000
  H   H874      1.0  0.28082  0.69395  0.27589  1.0000
  Fe  Fe72      1.0  0.43255  0.72288  0.19913  1.0000
  S   S143      1.0  0.40667  0.75308  0.20507  1.0000
  Fe  Fe73      1.0  0.39695  0.69099  0.21041  1.0000
  S   S144      1.0  0.36852  0.71856  0.21775  1.0000
  S   S145      1.0  0.39237  0.65530  0.20833  1.0000
  Fe  Fe74      1.0  0.38496  0.73843  0.18662  1.0000
  S   S146      1.0  0.36097  0.76061  0.16486  1.0000
  Fe  Fe75      1.0  0.39238  0.73078  0.23569  1.0000
  S   S147      1.0  0.38112  0.74721  0.26718  1.0000
  S   S148      1.0  0.41183  0.71006  0.17785  1.0000
  S   S149      1.0  0.41986  0.70127  0.23121  1.0000
  Fe  Fe76      1.0  0.27181  0.74663  0.35174  1.0000
  S   S150      1.0  0.28398  0.77478  0.36375  1.0000
  S   S151      1.0  0.28960  0.72432  0.32603  1.0000
  H   H875      1.0  0.33998  0.78606  0.36850  1.0000
  H   H876      1.0  0.31028  0.94732  0.12898  1.0000
  C   C497      1.0  0.30025  0.55986  0.27058  1.0000
  H   H877      1.0  0.33210  0.59198  0.25528  1.0000
  Fe  Fe77      1.0  0.27060  0.75909  0.39895  1.0000
  S   S152      1.0  0.29144  0.74910  0.42796  1.0000
  H   H878      1.0  0.27990  0.95280  0.19942  1.0000
  C   C498      1.0  0.25904  0.84452  0.13588  1.0000
  H   H879      1.0  0.25518  0.90641  0.10287  1.0000
  H   H880      1.0  0.32255  0.76709  0.38602  1.0000
  H   H881      1.0  0.36024  0.52240  0.22199  1.0000
  H   H882      1.0  0.33606  0.53832  0.20988  1.0000
  C   C499      1.0  0.27510  0.85622  0.28160  1.0000
  C   C500      1.0  0.28450  0.83647  0.29431  1.0000
  C   C501      1.0  0.27252  0.82750  0.31481  1.0000
  H   H883      1.0  0.30093  0.82797  0.28822  1.0000
  H   H884      1.0  0.27970  0.81211  0.32443  1.0000
  C   C502      1.0  0.35537  0.74111  0.28296  1.0000
  C   C503      1.0  0.34359  0.75562  0.29805  1.0000
  C   C504      1.0  0.32304  0.75098  0.31094  1.0000
  C   C505      1.0  0.31442  0.73158  0.30905  1.0000
  C   C506      1.0  0.32615  0.71715  0.29386  1.0000
  C   C507      1.0  0.34655  0.72194  0.28078  1.0000
  H   H885      1.0  0.35029  0.77057  0.29963  1.0000
  H   H886      1.0  0.31394  0.76235  0.32235  1.0000
  H   H887      1.0  0.31957  0.70210  0.29239  1.0000
  H   H888      1.0  0.35563  0.71060  0.26930  1.0000
  S   S153      1.0  0.29024  0.86738  0.25611  1.0000
  S   S154      1.0  0.28207  0.89732  0.19581  1.0000
  C   C508      1.0  0.32239  0.63369  0.22656  1.0000
  C   C509      1.0  0.32775  0.65051  0.23713  1.0000
  C   C510      1.0  0.34886  0.65801  0.23099  1.0000
  C   C511      1.0  0.36496  0.64814  0.21482  1.0000
  C   C512      1.0  0.35953  0.63139  0.20426  1.0000
  C   C513      1.0  0.33816  0.62455  0.20974  1.0000
  H   H889      1.0  0.31569  0.65761  0.25024  1.0000
  H   H890      1.0  0.35298  0.67080  0.23939  1.0000
  H   H891      1.0  0.37193  0.62368  0.19177  1.0000
  H   H892      1.0  0.33406  0.61198  0.20115  1.0000
  C   C514      1.0  0.26363  0.82115  0.10607  1.0000
  C   C515      1.0  0.28662  0.81585  0.10755  1.0000
  C   C516      1.0  0.29592  0.82548  0.12268  1.0000
  C   C517      1.0  0.28217  0.83997  0.13675  1.0000
  H   H893      1.0  0.34727  0.57450  0.21585  1.0000
  H   H894      1.0  0.33216  0.69734  0.41805  1.0000
  H   H895      1.0  0.29734  0.80491  0.09654  1.0000
  H   H896      1.0  0.31385  0.82192  0.12325  1.0000
  H   H897      1.0  0.38031  0.76035  0.00009  1.0000
  H   H898      1.0  0.26540  0.66290  0.27468  1.0000
  C   C518      1.0  0.35413  0.74434  0.09568  1.0000
  C   C519      1.0  0.37227  0.73310  0.10664  1.0000
  C   C520      1.0  0.37462  0.73790  0.12796  1.0000
  C   C521      1.0  0.35901  0.75422  0.13813  1.0000
  C   C522      1.0  0.34108  0.76563  0.12700  1.0000
  C   C523      1.0  0.33856  0.76060  0.10592  1.0000
  H   H899      1.0  0.38436  0.72051  0.09876  1.0000
  H   H900      1.0  0.38858  0.72915  0.13638  1.0000
  H   H901      1.0  0.32901  0.77834  0.13475  1.0000
  H   H902      1.0  0.32472  0.76955  0.09744  1.0000
  C   C524      1.0  0.26275  0.68134  0.09990  1.0000
  C   C525      1.0  0.28495  0.67494  0.09025  1.0000
  C   C526      1.0  0.29710  0.65436  0.09876  1.0000
  C   C527      1.0  0.28730  0.64039  0.11733  1.0000
  C   C528      1.0  0.26493  0.64657  0.12663  1.0000
  H   H903      1.0  0.36366  0.54170  0.19635  1.0000
  H   H904      1.0  0.29272  0.68576  0.07614  1.0000
  H   H905      1.0  0.31427  0.64945  0.09127  1.0000
  C   C529      1.0  0.34854  0.74575  0.00531  1.0000
  H   H906      1.0  0.27244  0.66945  0.24501  1.0000
  H   H907      1.0  0.29779  0.98416  0.20694  1.0000
  H   H908      1.0  0.37793  0.50986  0.26937  1.0000
  C   C530      1.0  0.26935  0.77869  0.45764  1.0000
  C   C531      1.0  0.28451  0.75904  0.45454  1.0000
  C   C532      1.0  0.29466  0.74691  0.47301  1.0000
  C   C533      1.0  0.28181  0.98784  0.20058  1.0000
  H   H909      1.0  0.28031  0.70413  0.24680  1.0000
  H   H910      1.0  0.40039  0.72299  0.00618  1.0000
  H   H911      1.0  0.30649  0.73175  0.47080  1.0000
  H   H912      1.0  0.34269  0.52053  0.25884  1.0000
  H   H913      1.0  0.37192  0.55968  0.22552  1.0000
  S   S155      1.0  0.29443  0.85352  0.15400  1.0000
  H   H914      1.0  0.46935  0.65726  0.23171  1.0000
  H   H915      1.0  0.34022  0.73574  0.41116  1.0000
  C   C534      1.0  0.25047  0.70629  0.45029  1.0000
  C   C535      1.0  0.26816  0.95217  0.26000  1.0000
  H   H916      1.0  0.30061  0.57538  0.27777  1.0000
  C   C536      1.0  0.27168  0.97004  0.19641  1.0000
  S   S156      1.0  0.29538  0.52033  0.20839  1.0000
  H   H917      1.0  0.35055  0.73414  0.02123  1.0000
  H   H918      1.0  0.38251  0.82581  0.17958  1.0000
  S   S157      1.0  0.25978  0.85036  0.21335  1.0000
  S   S158      1.0  0.46936  0.72454  0.18444  1.0000
  C   C537      1.0  0.24989  0.83548  0.12027  1.0000
  C   C538      1.0  0.34099  0.69629  0.00611  1.0000
  C   C539      1.0  0.36200  0.76516  0.00492  1.0000
  C   C540      1.0  0.30363  0.93392  0.14189  1.0000
  C   C541      1.0  0.27447  0.77385  0.49755  1.0000
  C   C542      1.0  0.37378  0.52855  0.26620  1.0000
  H   H919      1.0  0.31339  0.54350  0.24153  1.0000
  C   C543      1.0  0.34851  0.53492  0.26429  1.0000
  H   H920      1.0  0.32501  0.66163  0.12975  1.0000
  S   S159      1.0  0.26136  0.57788  0.22393  1.0000
  H   H921      1.0  0.25845  0.96260  0.08211  1.0000
  H   H922      1.0  0.30244  0.68401  0.13100  1.0000
  C   C544      1.0  0.25785  0.93580  0.13170  1.0000
  C   C545      1.0  0.34399  0.57681  0.26090  1.0000
  C   C546      1.0  0.29612  0.91559  0.13119  1.0000
  H   H923      1.0  0.38099  0.65289  0.15011  1.0000
  H   H924      1.0  0.29252  0.92143  0.26156  1.0000
  H   H925      1.0  0.37094  0.59303  0.23847  1.0000
  Fe  Fe78      1.0  0.28541  0.76095  0.02564  1.0000
  H   H926      1.0  0.24915  0.72212  0.49750  1.0000
  H   H927      1.0  0.36156  0.68643  0.40885  1.0000
  H   H928      1.0  0.31117  0.57342  0.23623  1.0000
  H   H929      1.0  0.33974  0.70129  0.02304  1.0000
  C   C547      1.0  0.47390  0.66113  0.18361  1.0000
  S   S160      1.0  0.26108  0.72954  0.38677  1.0000
  C   C548      1.0  0.28961  0.75419  0.49442  1.0000
  H   H930      1.0  0.28926  0.95450  0.10138  1.0000
  H   H931      1.0  0.43987  0.65717  0.18039  1.0000
  H   H932      1.0  0.26074  0.95338  0.13192  1.0000
  H   H933      1.0  0.26742  0.70886  0.44105  1.0000
  H   H934      1.0  0.35372  0.70038  0.43314  1.0000
  C   C549      1.0  0.31669  0.55835  0.24830  1.0000
  H   H935      1.0  0.28011  0.95047  0.06165  1.0000
  H   H936      1.0  0.27761  0.95891  0.27091  1.0000
  Fe  Fe79      1.0  0.26853  0.87798  0.22874  1.0000
  H   H937      1.0  0.26168  0.78839  0.44350  1.0000
  H   H938      1.0  0.38109  0.57122  0.26024  1.0000
  C   C550      1.0  0.26966  0.69776  0.26257  1.0000
  C   C551      1.0  0.34988  0.70043  0.41583  1.0000
  H   H939      1.0  0.26495  0.89127  0.12750  1.0000
  C   C552      1.0  0.25072  0.97463  0.18881  1.0000
  H   H940      1.0  0.33991  0.53487  0.28200  1.0000
  N   N38       1.0  0.34137  0.55697  0.24997  1.0000
  H   H941      1.0  0.35022  0.69223  0.10818  1.0000
  H   H942      1.0  0.35697  0.68491  0.00229  1.0000
  C   C553      1.0  0.26439  0.78605  0.47902  1.0000
  H   H943      1.0  0.48028  0.65257  0.16849  1.0000
  C   C554      1.0  0.35274  0.72368  0.40190  1.0000
  H   H944      1.0  0.36961  0.72746  0.40356  1.0000
  H   H945      1.0  0.38500  0.53373  0.25055  1.0000
  H   H946      1.0  0.25275  0.80134  0.48122  1.0000
  H   H947      1.0  0.44240  0.66145  0.20805  1.0000
  H   H948      1.0  0.37777  0.70678  0.01745  1.0000
  Fe  Fe80      1.0  0.27050  0.87104  0.18033  1.0000
  H   H949      1.0  0.48327  0.62470  0.21608  1.0000
  H   H950      1.0  0.25683  0.92757  0.14963  1.0000
  H   H951      1.0  0.26795  0.77105  0.15421  1.0000
  H   H952      1.0  0.33938  0.57334  0.27961  1.0000
  H   H953      1.0  0.46986  0.68430  0.21538  1.0000
  H   H954      1.0  0.30216  0.93134  0.08808  1.0000
  H   H955      1.0  0.32716  0.68622  0.00708  1.0000
  C   C555      1.0  0.35388  0.55856  0.22616  1.0000
  N   N39       1.0  0.32703  0.68476  0.15271  1.0000
  C   C556      1.0  0.35206  0.67916  0.15330  1.0000
  C   C557      1.0  0.32006  0.70953  0.15427  1.0000
  C   C558      1.0  0.32094  0.67996  0.13112  1.0000
  C   C559      1.0  0.31520  0.67026  0.17223  1.0000
  C   C560      1.0  0.36340  0.65616  0.14635  1.0000
  C   C561      1.0  0.32139  0.71668  0.17717  1.0000
  C   C562      1.0  0.33178  0.69331  0.10924  1.0000
  C   C563      1.0  0.28923  0.67446  0.17532  1.0000
  H   H956      1.0  0.36129  0.69228  0.14233  1.0000
  H   H957      1.0  0.35591  0.67925  0.17061  1.0000
  H   H958      1.0  0.30280  0.71554  0.14998  1.0000
  H   H959      1.0  0.33085  0.71978  0.14129  1.0000
  H   H960      1.0  0.31986  0.65212  0.17023  1.0000
  H   H961      1.0  0.32084  0.67110  0.18855  1.0000
  H   H962      1.0  0.36428  0.65612  0.12793  1.0000
  H   H963      1.0  0.31705  0.73533  0.17583  1.0000
  H   H964      1.0  0.30928  0.70923  0.19102  1.0000
  H   H965      1.0  0.33865  0.71235  0.18167  1.0000
  H   H966      1.0  0.32393  0.71125  0.10753  1.0000
  H   H967      1.0  0.32869  0.68652  0.09436  1.0000
  H   H968      1.0  0.28277  0.66549  0.16381  1.0000
  H   H969      1.0  0.28212  0.69251  0.17249  1.0000
  H   H970      1.0  0.28265  0.66823  0.19312  1.0000
  S   S161      1.0  0.25160  0.81064  0.08635  1.0000
  H   H971      1.0  0.36704  0.59802  0.26698  1.0000
  H   H972      1.0  0.35487  0.64196  0.15577  1.0000
  N   N40       1.0  0.34982  0.72679  0.37726  1.0000
  C   C564      1.0  0.35356  0.75061  0.36701  1.0000
  C   C565      1.0  0.36787  0.71107  0.36505  1.0000
  C   C566      1.0  0.32632  0.72380  0.37469  1.0000
  C   C567      1.0  0.34020  0.76966  0.37989  1.0000
  C   C568      1.0  0.36800  0.71342  0.33927  1.0000
  C   C569      1.0  0.32161  0.69935  0.37564  1.0000
  H   H973      1.0  0.37167  0.75251  0.36533  1.0000
  H   H974      1.0  0.34924  0.75467  0.34949  1.0000
  H   H975      1.0  0.36704  0.69312  0.37186  1.0000
  H   H976      1.0  0.38484  0.71371  0.36770  1.0000
  H   H977      1.0  0.31377  0.73171  0.38766  1.0000
  H   H978      1.0  0.32187  0.73296  0.35815  1.0000
  H   H979      1.0  0.34829  0.77118  0.39455  1.0000
  H   H980      1.0  0.37373  0.72940  0.33031  1.0000
  H   H981      1.0  0.38008  0.69949  0.33243  1.0000
  H   H982      1.0  0.35134  0.71229  0.33496  1.0000
  H   H983      1.0  0.30478  0.69759  0.38558  1.0000
  H   H984      1.0  0.33356  0.68584  0.38355  1.0000
  H   H985      1.0  0.32047  0.69600  0.35844  1.0000
  H   H986      1.0  0.48649  0.68049  0.25003  1.0000
  H   H987      1.0  0.37947  0.80914  0.20679  1.0000
  N   N41       1.0  0.33461  0.80905  0.21084  1.0000
  C   C570      1.0  0.31041  0.81487  0.20685  1.0000
  C   C571      1.0  0.33798  0.82242  0.22854  1.0000
  C   C572      1.0  0.34038  0.78427  0.21921  1.0000
  C   C573      1.0  0.34937  0.81483  0.18871  1.0000
  C   C574      1.0  0.30263  0.80055  0.19167  1.0000
  C   C575      1.0  0.33876  0.84780  0.22055  1.0000
  C   C576      1.0  0.32562  0.77518  0.24100  1.0000
  C   C577      1.0  0.37498  0.81114  0.18956  1.0000
  H   H988      1.0  0.29876  0.81389  0.22314  1.0000
  H   H989      1.0  0.30704  0.83272  0.19879  1.0000
  H   H990      1.0  0.35357  0.81526  0.23606  1.0000
  H   H991      1.0  0.32422  0.82129  0.24319  1.0000
  H   H992      1.0  0.33967  0.77391  0.20601  1.0000
  H   H993      1.0  0.35809  0.78020  0.22270  1.0000
  H   H994      1.0  0.34696  0.80462  0.17601  1.0000
  H   H995      1.0  0.34426  0.83248  0.18074  1.0000
  H   H996      1.0  0.28468  0.80678  0.18997  1.0000
  H   H997      1.0  0.31199  0.80228  0.17426  1.0000
  H   H998      1.0  0.30369  0.78248  0.19901  1.0000
  H   H999      1.0  0.32358  0.85626  0.21304  1.0000
  H   H1000     1.0  0.33933  0.85608  0.23539  1.0000
  H   H1001     1.0  0.35409  0.85075  0.20836  1.0000
  H   H1002     1.0  0.30757  0.77755  0.23915  1.0000
  H   H1003     1.0  0.32778  0.78288  0.25568  1.0000
  H   H1004     1.0  0.33099  0.75673  0.24497  1.0000
  H   H1005     1.0  0.38314  0.79586  0.18195  1.0000
  H   H1006     1.0  0.25970  0.93412  0.07637  1.0000
  C   C578      1.0  0.48530  0.73477  0.22128  1.0000
  C   C579      1.0  0.27395  0.92617  0.26476  1.0000
  C   C580      1.0  0.36725  0.58484  0.25625  1.0000
  H   H1007     1.0  0.27587  0.95744  0.24229  1.0000
  H   H1008     1.0  0.47004  0.67941  0.17694  1.0000
  H   H1009     1.0  0.27310  0.99647  0.25906  1.0000
  H   H1010     1.0  0.28283  0.56078  0.26692  1.0000
  C   C581      1.0  0.48076  0.66812  0.22022  1.0000
  C   C582      1.0  0.35322  0.53897  0.21321  1.0000
  H   H1011     1.0  0.29151  0.90214  0.14533  1.0000
  H   H1012     1.0  0.31752  0.92592  0.15166  1.0000
  H   H1013     1.0  0.31145  0.90778  0.12094  1.0000
  C   C583      1.0  0.26979  0.94689  0.07846  1.0000
  C   C584      1.0  0.38943  0.71183  0.00210  1.0000
  N   N42       1.0  0.49130  0.65735  0.19947  1.0000
  C   C585      1.0  0.26416  0.50215  0.19104  1.0000
  C   C586      1.0  0.45117  0.65291  0.19358  1.0000
  H   H1014     1.0  0.45291  0.63436  0.19858  1.0000
  C   C587      1.0  0.28555  0.93881  0.09654  1.0000
  H   H1015     1.0  0.25693  0.63552  0.14038  1.0000
  C   C588      1.0  0.24942  0.77608  0.15744  1.0000
  S   S162      1.0  0.25348  0.76429  0.05022  1.0000
  H   H1016     1.0  0.30277  0.88034  0.10558  1.0000
  H   H1017     1.0  0.30319  0.54473  0.28336  1.0000
  H   H1018     1.0  0.25439  0.63110  0.26781  1.0000
  H   H1019     1.0  0.25644  0.71157  0.26753  1.0000
  H   H1020     1.0  0.26700  0.91760  0.25333  1.0000
  H   H1021     1.0  0.37802  0.53556  0.28047  1.0000
  H   H1022     1.0  0.25534  0.51916  0.18809  1.0000
  H   H1023     1.0  0.25248  0.69942  0.46808  1.0000
  H   H1024     1.0  0.33042  0.75312  0.00756  1.0000
  N   N43       1.0  0.27709  0.92338  0.11729  1.0000
  C   C589      1.0  0.27022  0.90251  0.11163  1.0000
  C   C590      1.0  0.25266  0.66697  0.11788  1.0000
  H   H1025     1.0  0.29410  0.89812  0.08030  1.0000
  H   H1026     1.0  0.25944  0.69939  0.21709  1.0000
  C   C591      1.0  0.25389  0.86720  0.28953  1.0000
  C   C592      1.0  0.25150  0.83875  0.32299  1.0000
  C   C593      1.0  0.28825  0.88826  0.09673  1.0000
  C   C594      1.0  0.49673  0.67404  0.23485  1.0000
  C   C595      1.0  0.49773  0.63224  0.20562  1.0000
  Fe  Fe81      1.0  0.45514  0.78088  0.69064  1.0000
  S   S163      1.0  0.43098  0.76007  0.68224  1.0000
  Fe  Fe82      1.0  0.41730  0.81362  0.71189  1.0000
  S   S164      1.0  0.39026  0.79586  0.70578  1.0000
  S   S165      1.0  0.41234  0.84582  0.72683  1.0000
  Fe  Fe83      1.0  0.41263  0.76429  0.71708  1.0000
  S   S166      1.0  0.39512  0.73669  0.73860  1.0000
  Fe  Fe84      1.0  0.41019  0.79312  0.67154  1.0000
  S   S167      1.0  0.38858  0.80463  0.64383  1.0000
  S   S168      1.0  0.43838  0.78218  0.72646  1.0000
  S   S169      1.0  0.43561  0.81372  0.67670  1.0000
  Fe  Fe85      1.0  0.32175  0.74863  0.58223  1.0000
  S   S170      1.0  0.29981  0.73861  0.61466  1.0000
  S   S171      1.0  0.35890  0.74165  0.58450  1.0000
  C   C596      1.0  0.48914  0.87341  0.74447  1.0000
  Fe  Fe86      1.0  0.27917  0.77203  0.60613  1.0000
  C   C597      1.0  0.37394  0.71694  0.68701  1.0000
  Fe  Fe87      1.0  0.28005  0.72556  0.59314  1.0000
  S   S172      1.0  0.25251  0.71488  0.85688  1.0000
  S   S173      1.0  0.30218  0.78329  0.57472  1.0000
  S   S174      1.0  0.30387  0.73235  0.56097  1.0000
  Fe  Fe88      1.0  0.28968  0.90382  0.71716  1.0000
  S   S175      1.0  0.28717  0.92657  0.68415  1.0000
  S   S176      1.0  0.31674  0.90588  0.73736  1.0000
  Fe  Fe89      1.0  0.27619  0.89715  0.67324  1.0000
  S   S177      1.0  0.28996  0.88510  0.63987  1.0000
  S   S178      1.0  0.28232  0.87351  0.70494  1.0000
  H   H1027     1.0  0.34520  0.71416  0.63673  1.0000
  Fe  Fe90      1.0  0.30321  0.74776  0.83709  1.0000
  S   S179      1.0  0.30747  0.71228  0.85529  1.0000
  S   S180      1.0  0.33004  0.76967  0.82345  1.0000
  H   H1028     1.0  0.32746  0.82878  0.75959  1.0000
  S   S181      1.0  0.27098  0.71254  0.91609  1.0000
  H   H1029     1.0  0.25976  0.61516  0.82860  1.0000
  Fe  Fe91      1.0  0.27595  0.72393  0.87805  1.0000
  C   C598      1.0  0.37836  0.72289  0.98088  1.0000
  Fe  Fe92      1.0  0.28392  0.70610  0.83288  1.0000
  S   S182      1.0  0.29218  0.67706  0.81276  1.0000
  S   S183      1.0  0.27353  0.76004  0.86156  1.0000
  S   S184      1.0  0.28257  0.74066  0.81275  1.0000
  H   H1030     1.0  0.39518  0.89398  0.65870  1.0000
  H   H1031     1.0  0.29353  0.84854  0.79597  1.0000
  H   H1032     1.0  0.40084  0.69623  0.99822  1.0000
  S   S185      1.0  0.27912  0.63199  0.69554  1.0000
  H   H1033     1.0  0.33507  0.86497  0.63373  1.0000
  Fe  Fe93      1.0  0.25307  0.75013  0.83833  1.0000
  H   H1034     1.0  0.36128  0.76382  0.96147  1.0000
  C   C599      1.0  0.26981  0.66557  0.80649  1.0000
  C   C600      1.0  0.27788  0.72798  0.93561  1.0000
  C   C601      1.0  0.28572  0.74873  0.92857  1.0000
  C   C602      1.0  0.28895  0.76157  0.94470  1.0000
  C   C603      1.0  0.28448  0.75376  0.96797  1.0000
  C   C604      1.0  0.27716  0.73275  0.97503  1.0000
  C   C605      1.0  0.27392  0.71992  0.95888  1.0000
  H   H1035     1.0  0.28890  0.75510  0.91071  1.0000
  H   H1036     1.0  0.25995  0.73478  0.75313  1.0000
  C   C606      1.0  0.48192  0.86208  0.72649  1.0000
  H   H1037     1.0  0.33240  0.76111  0.96768  1.0000
  H   H1038     1.0  0.29478  0.80860  0.83029  1.0000
  C   C607      1.0  0.37996  0.86193  0.66205  1.0000
  H   H1039     1.0  0.29753  0.74466  0.50848  1.0000
  S   S186      1.0  0.26438  0.78936  0.63648  1.0000
  H   H1040     1.0  0.25539  0.78557  0.78104  1.0000
  C   C608      1.0  0.27381  0.65260  0.78882  1.0000
  C   C609      1.0  0.28424  0.53513  0.83111  1.0000
  C   C610      1.0  0.47914  0.82959  0.70908  1.0000
  H   H1041     1.0  0.47618  0.88801  0.74832  1.0000
  H   H1042     1.0  0.29047  0.64998  0.77921  1.0000
  C   C611      1.0  0.27456  0.64915  0.66981  1.0000
  H   H1043     1.0  0.25107  0.81965  0.66918  1.0000
  N   N44       1.0  0.49027  0.83728  0.72634  1.0000
  H   H1044     1.0  0.29959  0.57478  0.81583  1.0000
  C   C612      1.0  0.28407  0.68058  0.64101  1.0000
  C   C613      1.0  0.28737  0.66668  0.66155  1.0000
  H   H1045     1.0  0.33772  0.91574  0.68541  1.0000
  H   H1046     1.0  0.33618  0.73425  0.94124  1.0000
  H   H1047     1.0  0.29410  0.69394  0.63476  1.0000
  H   H1048     1.0  0.29992  0.66947  0.67103  1.0000
  C   C614      1.0  0.27372  0.81470  0.63841  1.0000
  C   C615      1.0  0.28978  0.82394  0.62168  1.0000
  C   C616      1.0  0.29495  0.84549  0.62231  1.0000
  C   C617      1.0  0.28429  0.85769  0.63980  1.0000
  C   C618      1.0  0.48391  0.82325  0.74887  1.0000
  S   S187      1.0  0.25730  0.75839  0.58707  1.0000
  H   H1049     1.0  0.29782  0.81478  0.60798  1.0000
  H   H1050     1.0  0.30703  0.85278  0.60909  1.0000
  H   H1051     1.0  0.32050  0.72489  0.98982  1.0000
  C   C619      1.0  0.37689  0.74609  0.76198  1.0000
  C   C620      1.0  0.37681  0.76756  0.76747  1.0000
  C   C621      1.0  0.36244  0.77468  0.78642  1.0000
  C   C622      1.0  0.34785  0.76052  0.79973  1.0000
  C   C623      1.0  0.34759  0.73923  0.79398  1.0000
  C   C624      1.0  0.36224  0.73196  0.77527  1.0000
  H   H1052     1.0  0.38814  0.77853  0.75739  1.0000
  H   H1053     1.0  0.36270  0.79116  0.79079  1.0000
  H   H1054     1.0  0.33646  0.72815  0.80424  1.0000
  H   H1055     1.0  0.36234  0.71527  0.77123  1.0000
  C   C625      1.0  0.38513  0.86128  0.73024  1.0000
  C   C626      1.0  0.36641  0.85368  0.72501  1.0000
  C   C627      1.0  0.34519  0.86725  0.72689  1.0000
  C   C628      1.0  0.34268  0.88817  0.73450  1.0000
  C   C629      1.0  0.36126  0.89536  0.74031  1.0000
  C   C630      1.0  0.38242  0.88208  0.73800  1.0000
  H   H1056     1.0  0.36825  0.83745  0.71947  1.0000
  H   H1057     1.0  0.33081  0.86146  0.72270  1.0000
  H   H1058     1.0  0.35935  0.91142  0.74638  1.0000
  H   H1059     1.0  0.39673  0.88799  0.74224  1.0000
  C   C631      1.0  0.38056  0.78607  0.62838  1.0000
  C   C632      1.0  0.39518  0.76710  0.62202  1.0000
  C   C633      1.0  0.38858  0.75359  0.60831  1.0000
  C   C634      1.0  0.36719  0.75872  0.60143  1.0000
  C   C635      1.0  0.35243  0.77733  0.60839  1.0000
  C   C636      1.0  0.35924  0.79115  0.62147  1.0000
  H   H1060     1.0  0.41178  0.76327  0.62703  1.0000
  H   H1061     1.0  0.40005  0.73918  0.60300  1.0000
  H   H1062     1.0  0.33589  0.78134  0.60336  1.0000
  H   H1063     1.0  0.34790  0.80588  0.62615  1.0000
  H   H1064     1.0  0.35584  0.78039  0.99344  1.0000
  H   H1065     1.0  0.27756  0.57582  0.84759  1.0000
  H   H1066     1.0  0.28127  0.78490  0.76110  1.0000
  H   H1067     1.0  0.46058  0.83464  0.71196  1.0000
  Fe  Fe94      1.0  0.28232  0.76625  0.55601  1.0000
  H   H1068     1.0  0.37460  0.86692  0.60267  1.0000
  H   H1069     1.0  0.26374  0.85368  0.79648  1.0000
  C   C637      1.0  0.25943  0.54517  0.83002  1.0000
  H   H1070     1.0  0.30806  0.81949  0.74485  1.0000
  H   H1071     1.0  0.49239  0.82688  0.76234  1.0000
  H   H1072     1.0  0.40788  0.70542  0.67147  1.0000
  C   C638      1.0  0.25631  0.64321  0.78331  1.0000
  H   H1073     1.0  0.35824  0.91956  0.66105  1.0000
  H   H1074     1.0  0.29729  0.85692  0.75244  1.0000
  H   H1075     1.0  0.25038  0.81484  0.59671  1.0000
  H   H1076     1.0  0.41452  0.86950  0.65160  1.0000
  H   H1077     1.0  0.34025  0.70880  0.97151  1.0000
  H   H1078     1.0  0.45117  0.84332  0.75982  1.0000
  H   H1079     1.0  0.30000  0.58108  0.78608  1.0000
  H   H1080     1.0  0.40370  0.87206  0.68022  1.0000
  H   H1081     1.0  0.39810  0.86673  0.61740  1.0000
  C   C639      1.0  0.34065  0.71412  0.65531  1.0000
  C   C640      1.0  0.48703  0.83840  0.68399  1.0000
  C   C641      1.0  0.35105  0.74236  0.94182  1.0000
  H   H1082     1.0  0.36675  0.73062  0.93802  1.0000
  C   C642      1.0  0.26826  0.67673  0.62840  1.0000
  H   H1083     1.0  0.26898  0.71258  0.77471  1.0000
  H   H1084     1.0  0.35999  0.84542  0.63362  1.0000
  H   H1085     1.0  0.38822  0.84724  0.65355  1.0000
  N   N45       1.0  0.35408  0.73371  0.98481  1.0000
  N   N46       1.0  0.27971  0.82168  0.78597  1.0000
  H   H1086     1.0  0.26786  0.70386  0.96447  1.0000
  H   H1087     1.0  0.29122  0.54067  0.84462  1.0000
  H   H1088     1.0  0.44911  0.81864  0.74762  1.0000
  C   C643      1.0  0.27697  0.81612  0.82973  1.0000
  C   C644      1.0  0.31773  0.81499  0.75921  1.0000
  N   N47       1.0  0.35328  0.73429  0.68439  1.0000
  C   C645      1.0  0.33772  0.72699  0.72688  1.0000
  C   C646      1.0  0.26889  0.68548  0.73078  1.0000
  H   H1089     1.0  0.28415  0.68645  0.71790  1.0000
  H   H1090     1.0  0.26266  0.66966  0.72952  1.0000
  H   H1091     1.0  0.32989  0.79983  0.75534  1.0000
  C   C647      1.0  0.28220  0.86229  0.76419  1.0000
  C   C648      1.0  0.34354  0.88775  0.66625  1.0000
  H   H1092     1.0  0.38978  0.89034  0.59701  1.0000
  N   N48       1.0  0.25402  0.57057  0.82619  1.0000
  C   C649      1.0  0.30336  0.80925  0.78236  1.0000
  H   H1093     1.0  0.28545  0.51646  0.83507  1.0000
  H   H1094     1.0  0.25070  0.57198  0.86208  1.0000
  C   C650      1.0  0.25409  0.72371  0.76861  1.0000
  H   H1095     1.0  0.49007  0.86251  0.76093  1.0000
  H   H1096     1.0  0.25648  0.84548  0.56402  1.0000
  H   H1097     1.0  0.30363  0.79061  0.78581  1.0000
  C   C651      1.0  0.35200  0.90674  0.67486  1.0000
  S   S188      1.0  0.49306  0.77634  0.67915  1.0000
  C   C652      1.0  0.39323  0.71799  0.66696  1.0000
  Fe  Fe95      1.0  0.25025  0.61430  0.71378  1.0000
  H   H1098     1.0  0.38131  0.71856  0.70215  1.0000
  H   H1099     1.0  0.48381  0.85704  0.68021  1.0000
  H   H1100     1.0  0.35034  0.69859  0.66321  1.0000
  H   H1101     1.0  0.33116  0.71017  0.70084  1.0000
  H   H1102     1.0  0.48776  0.87192  0.70996  1.0000
  H   H1103     1.0  0.32848  0.89546  0.65798  1.0000
  C   C653      1.0  0.27981  0.84638  0.78682  1.0000
  H   H1104     1.0  0.29059  0.60310  0.80248  1.0000
  H   H1105     1.0  0.37512  0.90327  0.63194  1.0000
  C   C654      1.0  0.35895  0.75685  0.68694  1.0000
  H   H1106     1.0  0.26691  0.86442  0.75594  1.0000
  H   H1107     1.0  0.35863  0.74312  0.64782  1.0000
  H   H1108     1.0  0.36639  0.75573  0.70271  1.0000
  H   H1109     1.0  0.25954  0.63350  0.76945  1.0000
  H   H1110     1.0  0.27426  0.68430  0.74756  1.0000
  H   H1111     1.0  0.31814  0.73851  0.69937  1.0000
  H   H1112     1.0  0.29070  0.99708  0.72954  1.0000
  C   C655      1.0  0.26354  0.82667  0.65620  1.0000
  H   H1113     1.0  0.32530  0.77352  0.70063  1.0000
  C   C656      1.0  0.36714  0.88922  0.62899  1.0000
  S   S189      1.0  0.26738  0.78360  0.52424  1.0000
  H   H1114     1.0  0.32243  0.71288  0.66008  1.0000
  C   C657      1.0  0.33937  0.77664  0.68687  1.0000
  C   C658      1.0  0.26444  0.79460  0.76566  1.0000
  C   C659      1.0  0.26827  0.81155  0.80864  1.0000
  H   H1115     1.0  0.26992  0.79287  0.80998  1.0000
  H   H1116     1.0  0.38908  0.73571  0.97178  1.0000
  H   H1117     1.0  0.26057  0.72123  0.72274  1.0000
  C   C660      1.0  0.26580  0.58030  0.80358  1.0000
  H   H1118     1.0  0.36479  0.89989  0.68622  1.0000
  H   H1119     1.0  0.34851  0.83295  0.67641  1.0000
  H   H1120     1.0  0.33160  0.82723  0.65728  1.0000
  H   H1121     1.0  0.33314  0.78100  0.67027  1.0000
  H   H1122     1.0  0.35196  0.89775  0.62123  1.0000
  C   C661      1.0  0.34824  0.85672  0.64433  1.0000
  H   H1123     1.0  0.35277  0.71503  0.73127  1.0000
  C   C662      1.0  0.33692  0.84098  0.66414  1.0000
  C   C663      1.0  0.25577  0.65889  0.63646  1.0000
  H   H1124     1.0  0.27400  0.96847  0.71574  1.0000
  H   H1125     1.0  0.38849  0.71366  0.65151  1.0000
  H   H1126     1.0  0.36974  0.69945  0.69042  1.0000
  H   H1127     1.0  0.39904  0.73471  0.66310  1.0000
  Fe  Fe96      1.0  0.25091  0.93538  0.69838  1.0000
  C   C664      1.0  0.39908  0.87550  0.66286  1.0000
  C   C665      1.0  0.38335  0.87737  0.61069  1.0000
  H   H1128     1.0  0.33905  0.74394  0.73055  1.0000
  H   H1129     1.0  0.32300  0.72115  0.73846  1.0000
  C   C666      1.0  0.29022  0.58487  0.80256  1.0000
  C   C667      1.0  0.34610  0.73606  0.66149  1.0000
  H   H1130     1.0  0.45621  0.81563  0.77529  1.0000
  H   H1131     1.0  0.31322  0.81236  0.79509  1.0000
  H   H1132     1.0  0.25613  0.59680  0.79739  1.0000
  C   C668      1.0  0.25951  0.57995  0.84580  1.0000
  H   H1133     1.0  0.35089  0.75690  0.92792  1.0000
  H   H1134     1.0  0.34570  0.79185  0.68972  1.0000
  H   H1135     1.0  0.27369  0.72655  0.99290  1.0000
  H   H1136     1.0  0.37226  0.76221  0.67310  1.0000
  C   C669      1.0  0.34943  0.75121  0.96455  1.0000
  H   H1137     1.0  0.33062  0.74855  0.65995  1.0000
  H   H1138     1.0  0.28381  0.87930  0.76758  1.0000
  H   H1139     1.0  0.29470  0.77777  0.93912  1.0000
  C   C670      1.0  0.25142  0.70656  0.72568  1.0000
  H   H1140     1.0  0.32135  0.84996  0.67286  1.0000
  H   H1141     1.0  0.38033  0.70987  0.96952  1.0000
  C   C671      1.0  0.25860  0.64538  0.65733  1.0000
  H   H1142     1.0  0.46323  0.86582  0.72768  1.0000
  H   H1143     1.0  0.33721  0.87682  0.68181  1.0000
  H   H1144     1.0  0.37407  0.85454  0.67964  1.0000
  H   H1145     1.0  0.25590  0.81917  0.55527  1.0000
  H   H1146     1.0  0.27480  0.83432  0.83114  1.0000
  N   N49       1.0  0.36023  0.87410  0.65061  1.0000
  H   H1147     1.0  0.29478  0.53866  0.81447  1.0000
  C   C672      1.0  0.33425  0.72742  0.70216  1.0000
  C   C673      1.0  0.25340  0.60577  0.84508  1.0000
  S   S190      1.0  0.25398  0.91432  0.73222  1.0000
  S   S191      1.0  0.25336  0.59511  0.74847  1.0000
  C   C674      1.0  0.45861  0.82562  0.75814  1.0000
  S   S192      1.0  0.26298  0.69443  0.60307  1.0000
  C   C675      1.0  0.26594  0.81907  0.76834  1.0000
  H   H1148     1.0  0.48165  0.81087  0.71075  1.0000
  H   H1149     1.0  0.27217  0.82746  0.75126  1.0000
  H   H1150     1.0  0.48981  0.80504  0.74779  1.0000
  H   H1151     1.0  0.47748  0.83176  0.67318  1.0000
  H   H1152     1.0  0.25036  0.84838  0.61009  1.0000
  H   H1153     1.0  0.25460  0.79501  0.75171  1.0000
  C   C676      1.0  0.33830  0.71654  0.98718  1.0000
  H   H1154     1.0  0.26607  0.56915  0.79070  1.0000
  H   H1155     1.0  0.49212  0.76740  0.72822  1.0000
  C   C677      1.0  0.26882  0.84809  0.65690  1.0000
  H   H1156     1.0  0.26692  0.80816  0.84509  1.0000
  S   S193      1.0  0.28818  0.77091  0.98748  1.0000
  H   H1157     1.0  0.24883  0.63172  0.66351  1.0000
  C   C678      1.0  0.26581  0.98581  0.71444  1.0000
  H   H1158     1.0  0.26044  0.85740  0.67040  1.0000
  H   H1159     1.0  0.26117  0.61121  0.85818  1.0000
  H   H1160     1.0  0.25475  0.53780  0.81616  1.0000
  H   H1161     1.0  0.24983  0.81771  0.81070  1.0000
  H   H1162     1.0  0.24933  0.53807  0.84594  1.0000
  Fe  Fe97      1.0  0.72656  0.09658  0.25207  1.0000
  S   S194      1.0  0.70135  0.12270  0.23508  1.0000
  S   S195      1.0  0.71964  0.07359  0.28470  1.0000
  Fe  Fe98      1.0  0.56442  0.22969  0.26847  1.0000
  S   S196      1.0  0.57938  0.25905  0.27478  1.0000
  Fe  Fe99      1.0  0.60078  0.19544  0.28886  1.0000
  S   S197      1.0  0.61864  0.22187  0.29647  1.0000
  S   S198      1.0  0.61539  0.15960  0.30030  1.0000
  Fe  Fe100     1.0  0.58434  0.23870  0.30852  1.0000
  S   S199      1.0  0.57647  0.25423  0.34059  1.0000
  Fe  Fe101     1.0  0.61266  0.23989  0.26233  1.0000
  S   S200      1.0  0.64041  0.25855  0.24279  1.0000
  S   S201      1.0  0.56638  0.21088  0.30360  1.0000
  S   S202      1.0  0.59763  0.21192  0.25332  1.0000
  Fe  Fe102     1.0  0.71565  0.21816  0.41612  1.0000
  H   H1163     1.0  0.70042  0.27128  0.27704  1.0000
  H   H1164     1.0  0.72128  0.29537  0.16543  1.0000
  Fe  Fe103     1.0  0.68606  0.25247  0.38771  1.0000
  S   S203      1.0  0.71024  0.25008  0.35592  1.0000
  S   S204      1.0  0.65298  0.27532  0.38956  1.0000
  Fe  Fe104     1.0  0.71403  0.21274  0.36700  1.0000
  H   H1165     1.0  0.59408  0.24589  0.15258  1.0000
  H   H1166     1.0  0.72919  0.18066  0.18079  1.0000
  H   H1167     1.0  0.61713  0.14535  0.39316  1.0000
  S   S205      1.0  0.68744  0.21512  0.39746  1.0000
  S   S206      1.0  0.71238  0.25591  0.40829  1.0000
  H   H1168     1.0  0.73994  0.30568  0.27072  1.0000
  H   H1169     1.0  0.74125  0.16339  0.25890  1.0000
  H   H1170     1.0  0.65802  0.26590  0.47623  1.0000
  H   H1171     1.0  0.66409  0.19844  0.34634  1.0000
  C   C679      1.0  0.71813  0.24469  0.04197  1.0000
  H   H1172     1.0  0.62911  0.26842  0.15207  1.0000
  H   H1173     1.0  0.67620  0.32739  0.23906  1.0000
  C   C680      1.0  0.73609  0.02227  0.33326  1.0000
  S   S207      1.0  0.71474  0.19640  0.33613  1.0000
  S   S208      1.0  0.74237  0.21188  0.38644  1.0000
  C   C681      1.0  0.73063  0.13628  0.31353  1.0000
  Fe  Fe105     1.0  0.71059  0.24130  0.13216  1.0000
  S   S209      1.0  0.67570  0.23344  0.14511  1.0000
  H   H1174     1.0  0.66113  0.14656  0.39836  1.0000
  S   S210      1.0  0.71988  0.26725  0.10242  1.0000
  H   H1175     1.0  0.71258  0.31472  0.06853  1.0000
  C   C682      1.0  0.74020  0.13020  0.35144  1.0000
  N   N50       1.0  0.64132  0.17433  0.36120  1.0000
  H   H1176     1.0  0.70852  0.30671  0.25678  1.0000
  H   H1177     1.0  0.67383  0.33283  0.30363  1.0000
  H   H1178     1.0  0.72974  0.05196  0.35167  1.0000
  H   H1179     1.0  0.62708  0.17701  0.39637  1.0000
  H   H1180     1.0  0.71170  0.30864  0.20270  1.0000
  C   C683      1.0  0.70121  0.18725  0.20867  1.0000
  H   H1181     1.0  0.66941  0.15911  0.31914  1.0000
  H   H1182     1.0  0.67432  0.28758  0.33605  1.0000
  C   C684      1.0  0.51073  0.20583  0.27491  1.0000
  H   H1183     1.0  0.62601  0.12091  0.38030  1.0000
  H   H1184     1.0  0.66034  0.16929  0.41375  1.0000
  C   C685      1.0  0.66196  0.16487  0.39643  1.0000
  C   C686      1.0  0.64274  0.17926  0.38447  1.0000
  H   H1185     1.0  0.69857  0.17049  0.25238  1.0000
  H   H1186     1.0  0.72585  0.00903  0.33250  1.0000
  H   H1187     1.0  0.71485  0.33649  0.34890  1.0000
  H   H1188     1.0  0.73842  0.24018  0.44644  1.0000
  C   C687      1.0  0.66662  0.24011  0.17242  1.0000
  C   C688      1.0  0.65190  0.22730  0.18733  1.0000
  C   C689      1.0  0.64406  0.23269  0.20910  1.0000
  C   C690      1.0  0.65079  0.25101  0.21596  1.0000
  C   C691      1.0  0.66570  0.26373  0.20112  1.0000
  C   C692      1.0  0.67362  0.25829  0.17932  1.0000
  H   H1189     1.0  0.64670  0.21306  0.18207  1.0000
  H   H1190     1.0  0.63301  0.22252  0.22057  1.0000
  H   H1191     1.0  0.67085  0.27802  0.20631  1.0000
  H   H1192     1.0  0.68458  0.26857  0.16767  1.0000
  C   C693      1.0  0.59853  0.25983  0.35334  1.0000
  C   C694      1.0  0.59295  0.27186  0.37172  1.0000
  C   C695      1.0  0.60981  0.27657  0.38255  1.0000
  C   C696      1.0  0.63243  0.26865  0.37563  1.0000
  C   C697      1.0  0.63818  0.25628  0.35745  1.0000
  C   C698      1.0  0.62126  0.25238  0.34595  1.0000
  H   H1193     1.0  0.57549  0.27779  0.37747  1.0000
  H   H1194     1.0  0.60529  0.28621  0.39652  1.0000
  H   H1195     1.0  0.65566  0.25027  0.35191  1.0000
  H   H1196     1.0  0.62584  0.24378  0.33137  1.0000
  C   C699      1.0  0.73677  0.17787  0.22379  1.0000
  N   N51       1.0  0.69227  0.30233  0.29173  1.0000
  H   H1197     1.0  0.67508  0.24113  0.46741  1.0000
  C   C700      1.0  0.73585  0.29450  0.28688  1.0000
  H   H1198     1.0  0.54642  0.29916  0.14597  1.0000
  H   H1199     1.0  0.70818  0.26925  0.49816  1.0000
  C   C701      1.0  0.67287  0.31437  0.30620  1.0000
  H   H1200     1.0  0.74042  0.28367  0.00588  1.0000
  H   H1201     1.0  0.72305  0.22232  0.25277  1.0000
  C   C702      1.0  0.67736  0.13265  0.25329  1.0000
  C   C703      1.0  0.66091  0.14934  0.24456  1.0000
  C   C704      1.0  0.64203  0.15798  0.25896  1.0000
  C   C705      1.0  0.63916  0.14945  0.28203  1.0000
  C   C706      1.0  0.65543  0.13255  0.29070  1.0000
  C   C707      1.0  0.67470  0.12452  0.27645  1.0000
  H   H1202     1.0  0.66264  0.15553  0.22663  1.0000
  H   H1203     1.0  0.62940  0.17074  0.25206  1.0000
  H   H1204     1.0  0.65328  0.12580  0.30850  1.0000
  H   H1205     1.0  0.68736  0.11196  0.28344  1.0000
  H   H1206     1.0  0.70154  0.18365  0.17352  1.0000
  C   C708      1.0  0.59978  0.19434  0.36855  1.0000
  C   C709      1.0  0.69386  0.31461  0.26779  1.0000
  H   H1207     1.0  0.56356  0.20483  0.19530  1.0000
  H   H1208     1.0  0.72900  0.30930  0.03267  1.0000
  S   S211      1.0  0.73648  0.21318  0.12056  1.0000
  H   H1209     1.0  0.61633  0.18156  0.33822  1.0000
  H   H1210     1.0  0.60716  0.27837  0.13565  1.0000
  H   H1211     1.0  0.57383  0.21722  0.21521  1.0000
  S   S212      1.0  0.53498  0.23777  0.24835  1.0000
  H   H1212     1.0  0.67762  0.17018  0.35211  1.0000
  C   C710      1.0  0.62101  0.13945  0.37649  1.0000
  C   C711      1.0  0.66237  0.18049  0.34605  1.0000
  H   H1213     1.0  0.67928  0.22142  0.24948  1.0000
  H   H1214     1.0  0.66580  0.19935  0.24289  1.0000
  H   H1215     1.0  0.65689  0.27329  0.31155  1.0000
  H   H1216     1.0  0.74695  0.14125  0.18429  1.0000
  C   C712      1.0  0.66442  0.17719  0.32107  1.0000
  C   C713      1.0  0.72793  0.22850  0.23468  1.0000
  H   H1217     1.0  0.74657  0.22623  0.23052  1.0000
  H   H1218     1.0  0.62582  0.20575  0.34364  1.0000
  H   H1219     1.0  0.68500  0.29089  0.49450  1.0000
  N   N52       1.0  0.71441  0.19317  0.22527  1.0000
  H   H1220     1.0  0.65415  0.31209  0.34045  1.0000
  H   H1221     1.0  0.72881  0.21985  0.20200  1.0000
  H   H1222     1.0  0.73440  0.16064  0.22157  1.0000
  C   C714      1.0  0.73934  0.12177  0.33146  1.0000
  C   C715      1.0  0.74452  0.31892  0.15180  1.0000
  C   C716      1.0  0.66663  0.27129  0.29468  1.0000
  H   H1223     1.0  0.64891  0.18379  0.31355  1.0000
  H   H1224     1.0  0.71228  0.20818  0.17651  1.0000
  C   C717      1.0  0.74610  0.24214  0.47947  1.0000
  H   H1225     1.0  0.67076  0.19922  0.27083  1.0000
  C   C718      1.0  0.72926  0.20129  0.49319  1.0000
  S   S213      1.0  0.71753  0.19959  0.45171  1.0000
  C   C719      1.0  0.64046  0.14978  0.36082  1.0000
  C   C720      1.0  0.67450  0.25511  0.47729  1.0000
  C   C721      1.0  0.73340  0.33429  0.19411  1.0000
  C   C722      1.0  0.71203  0.24505  0.00304  1.0000
  N   N53       1.0  0.57744  0.25990  0.18265  1.0000
  C   C723      1.0  0.56331  0.24108  0.18604  1.0000
  C   C724      1.0  0.56287  0.28141  0.17450  1.0000
  C   C725      1.0  0.58349  0.26147  0.20542  1.0000
  C   C726      1.0  0.59827  0.25425  0.16601  1.0000
  C   C727      1.0  0.57395  0.21769  0.19685  1.0000
  C   C728      1.0  0.55363  0.28161  0.15227  1.0000
  C   C729      1.0  0.59632  0.28085  0.20666  1.0000
  H   H1226     1.0  0.54689  0.24549  0.19681  1.0000
  H   H1227     1.0  0.55908  0.23841  0.16964  1.0000
  H   H1228     1.0  0.57170  0.29631  0.17191  1.0000
  H   H1229     1.0  0.54815  0.28514  0.18770  1.0000
  H   H1230     1.0  0.56804  0.26298  0.21820  1.0000
  H   H1231     1.0  0.59431  0.24583  0.21176  1.0000
  H   H1232     1.0  0.61075  0.24161  0.17452  1.0000
  H   H1233     1.0  0.68832  0.26464  0.46867  1.0000
  H   H1234     1.0  0.65646  0.31315  0.30125  1.0000
  H   H1235     1.0  0.64450  0.19738  0.38363  1.0000
  H   H1236     1.0  0.59126  0.21245  0.18855  1.0000
  H   H1237     1.0  0.53976  0.27129  0.15504  1.0000
  H   H1238     1.0  0.60212  0.20627  0.37967  1.0000
  H   H1239     1.0  0.68608  0.25496  0.02984  1.0000
  H   H1240     1.0  0.61355  0.27856  0.19716  1.0000
  H   H1241     1.0  0.59843  0.28046  0.22458  1.0000
  H   H1242     1.0  0.58717  0.29776  0.20135  1.0000
  H   H1243     1.0  0.73310  0.15951  0.36878  1.0000
  C   C730      1.0  0.73254  0.15310  0.35332  1.0000
  C   C731      1.0  0.74449  0.29738  0.03551  1.0000
  H   H1244     1.0  0.69814  0.26711  0.30690  1.0000
  H   H1245     1.0  0.72157  0.24689  0.23274  1.0000
  H   H1246     1.0  0.71153  0.24771  0.05908  1.0000
  H   H1247     1.0  0.67882  0.16842  0.38785  1.0000
  H   H1248     1.0  0.58608  0.20302  0.35879  1.0000
  C   C732      1.0  0.74097  0.23676  0.03634  1.0000
  H   H1249     1.0  0.70152  0.22843  0.21487  1.0000
  S   S214      1.0  0.73175  0.25114  0.15462  1.0000
  C   C733      1.0  0.67125  0.30620  0.33193  1.0000
  H   H1250     1.0  0.72915  0.12986  0.29841  1.0000
  H   H1251     1.0  0.71375  0.29492  0.31810  1.0000
  C   C734      1.0  0.71757  0.21760  0.21849  1.0000
  Fe  Fe106     1.0  0.74753  0.23980  0.09225  1.0000
  Fe  Fe107     1.0  0.73690  0.24949  0.37717  1.0000
  H   H1252     1.0  0.56691  0.27569  0.13881  1.0000
  S   S215      1.0  0.72603  0.34319  0.22081  1.0000
  H   H1253     1.0  0.73571  0.27713  0.28368  1.0000
  H   H1254     1.0  0.74645  0.00903  0.37596  1.0000
  C   C735      1.0  0.67372  0.31564  0.25519  1.0000
  C   C736      1.0  0.72931  0.21176  0.47063  1.0000
  C   C737      1.0  0.62135  0.18900  0.35181  1.0000
  H   H1255     1.0  0.60732  0.28949  0.16140  1.0000
  C   C738      1.0  0.69050  0.27768  0.29243  1.0000
  H   H1256     1.0  0.60562  0.14279  0.36818  1.0000
  C   C739      1.0  0.70121  0.18853  0.24858  1.0000
  C   C740      1.0  0.72925  0.30877  0.16871  1.0000
  H   H1257     1.0  0.63873  0.14708  0.34350  1.0000
  H   H1258     1.0  0.74652  0.11623  0.20436  1.0000
  C   C741      1.0  0.72347  0.15914  0.31520  1.0000
  C   C742      1.0  0.61065  0.27404  0.15339  1.0000
  H   H1259     1.0  0.68443  0.19773  0.20905  1.0000
  H   H1260     1.0  0.59391  0.17906  0.37886  1.0000
  C   C743      1.0  0.72433  0.16760  0.33506  1.0000
  H   H1261     1.0  0.65666  0.13900  0.36393  1.0000
  C   C744      1.0  0.73741  0.30521  0.35390  1.0000
  C   C745      1.0  0.71359  0.30407  0.30056  1.0000
  Fe  Fe108     1.0  0.74431  0.04712  0.26810  1.0000
  H   H1262     1.0  0.67789  0.18637  0.31097  1.0000
  H   H1263     1.0  0.65743  0.32224  0.26463  1.0000
  H   H1264     1.0  0.52389  0.20233  0.28550  1.0000
  H   H1265     1.0  0.74681  0.11901  0.36544  1.0000
  Fe  Fe109     1.0  0.74764  0.36480  0.23179  1.0000
  H   H1266     1.0  0.71463  0.32203  0.30160  1.0000
  C   C746      1.0  0.70374  0.24882  0.02538  1.0000
  S   S216      1.0  0.73785  0.36538  0.31346  1.0000
  Fe  Fe110     1.0  0.74362  0.27470  0.12403  1.0000
  H   H1267     1.0  0.68334  0.31341  0.33946  1.0000
  C   C747      1.0  0.71201  0.19015  0.18358  1.0000
  H   H1268     1.0  0.73833  0.28275  0.04721  1.0000
  H   H1269     1.0  0.73818  0.03196  0.31589  1.0000
  C   C748      1.0  0.72409  0.32697  0.06882  1.0000
  C   C749      1.0  0.72369  0.31645  0.18978  1.0000
  H   H1270     1.0  0.69679  0.33234  0.26738  1.0000
  H   H1271     1.0  0.65667  0.28094  0.28166  1.0000
  H   H1272     1.0  0.66807  0.25318  0.29290  1.0000
  H   H1273     1.0  0.72274  0.18545  0.49856  1.0000
  C   C750      1.0  0.67803  0.20314  0.25279  1.0000
  H   H1274     1.0  0.67307  0.29901  0.25030  1.0000
  H   H1275     1.0  0.71443  0.02898  0.36521  1.0000
  H   H1276     1.0  0.71052  0.19069  0.26205  1.0000
  H   H1277     1.0  0.69796  0.16946  0.21331  1.0000
  H   H1278     1.0  0.71705  0.17023  0.30107  1.0000
  S   S217      1.0  0.73224  0.39223  0.25266  1.0000
  C   C751      1.0  0.72107  0.03832  0.34876  1.0000
  C   C752      1.0  0.51235  0.22197  0.25551  1.0000
  H   H1279     1.0  0.71876  0.33375  0.08513  1.0000
  C   C753      1.0  0.74613  0.33776  0.32635  1.0000
  C   C754      1.0  0.73797  0.23212  0.46381  1.0000
  H   H1280     1.0  0.70629  0.04669  0.34042  1.0000
  H   H1281     1.0  0.72580  0.29728  0.36716  1.0000
  C   C755      1.0  0.73124  0.32739  0.34359  1.0000
  S   S218      1.0  0.73275  0.01248  0.27762  1.0000
  H   H1282     1.0  0.73914  0.34097  0.01638  1.0000
  H   H1283     1.0  0.72178  0.34128  0.05511  1.0000
  H   H1284     1.0  0.74811  0.30073  0.08201  1.0000
  C   C756      1.0  0.74854  0.34464  0.17719  1.0000
  H   H1285     1.0  0.74848  0.18399  0.20869  1.0000
  Fe  Fe111     1.0  0.68561  0.25894  0.90048  1.0000
  S   S219      1.0  0.71866  0.24707  0.88082  1.0000
  S   S220      1.0  0.65814  0.27832  0.88099  1.0000
  Fe  Fe112     1.0  0.70457  0.24741  0.94564  1.0000
  H   H1286     1.0  0.62492  0.38158  0.81988  1.0000
  S   S221      1.0  0.69334  0.25094  0.98271  1.0000
  Fe  Fe113     1.0  0.73846  0.14054  0.78831  1.0000
  H   H1287     1.0  0.73981  0.27943  0.75742  1.0000
  H   H1288     1.0  0.74087  0.46148  0.82038  1.0000
  H   H1289     1.0  0.71209  0.26133  0.77453  1.0000
  S   S222      1.0  0.70028  0.27900  0.92054  1.0000
  S   S223      1.0  0.68651  0.22827  0.92719  1.0000
  Fe  Fe114     1.0  0.61483  0.25412  0.73107  1.0000
  S   S224      1.0  0.59382  0.28836  0.72556  1.0000
  S   S225      1.0  0.63241  0.22834  0.70900  1.0000
  Fe  Fe115     1.0  0.61219  0.25370  0.78133  1.0000
  S   S226      1.0  0.59117  0.28771  0.78062  1.0000
  S   S227      1.0  0.62499  0.23018  0.81081  1.0000
  Fe  Fe116     1.0  0.57172  0.27588  0.75748  1.0000
  Fe  Fe117     1.0  0.61463  0.29764  0.74910  1.0000
  S   S228      1.0  0.62602  0.33183  0.74446  1.0000
  S   S229      1.0  0.59099  0.24096  0.76091  1.0000
  S   S230      1.0  0.63733  0.26453  0.75187  1.0000
  H   H1290     1.0  0.69867  0.02266  0.74285  1.0000
  N   N54       1.0  0.55165  0.23434  0.83368  1.0000
  C   C757      1.0  0.69961  0.25342  0.69397  1.0000
  Fe  Fe118     1.0  0.73744  0.42167  0.75979  1.0000
  C   C758      1.0  0.71982  0.03802  0.71241  1.0000
  Fe  Fe119     1.0  0.73588  0.37255  0.75457  1.0000
  S   S231      1.0  0.72810  0.34315  0.74019  1.0000
  H   H1291     1.0  0.69744  0.33728  0.81292  1.0000
  S   S232      1.0  0.71158  0.39817  0.77259  1.0000
  C   C759      1.0  0.70319  0.29672  0.62467  1.0000
  C   C760      1.0  0.63345  0.37424  0.83487  1.0000
  S   S233      1.0  0.73308  0.22991  0.62527  1.0000
  H   H1292     1.0  0.66243  0.28170  0.70306  1.0000
  H   H1293     1.0  0.67651  0.24977  0.78822  1.0000
  S   S234      1.0  0.73042  0.26498  0.57806  1.0000
  H   H1294     1.0  0.69693  0.35288  0.78558  1.0000
  H   H1295     1.0  0.71786  0.31493  0.89647  1.0000
  Fe  Fe120     1.0  0.70953  0.24026  0.59941  1.0000
  S   S235      1.0  0.67316  0.25523  0.60676  1.0000
  H   H1296     1.0  0.68871  0.05798  0.75857  1.0000
  S   S236      1.0  0.72399  0.21206  0.57909  1.0000
  C   C761      1.0  0.70327  0.26903  0.78948  1.0000
  C   C762      1.0  0.62894  0.34129  0.80282  1.0000
  C   C763      1.0  0.58173  0.22153  0.86067  1.0000
  C   C764      1.0  0.73713  0.43368  0.84717  1.0000
  H   H1297     1.0  0.72452  0.26296  0.66550  1.0000
  H   H1298     1.0  0.64840  0.28400  0.50632  1.0000
  S   S237      1.0  0.72377  0.11378  0.77687  1.0000
  C   C765      1.0  0.73947  0.15871  0.86577  1.0000
  C   C766      1.0  0.73121  0.16985  0.65349  1.0000
  H   H1299     1.0  0.67176  0.42993  0.84759  1.0000
  H   H1300     1.0  0.58142  0.24958  0.83357  1.0000
  C   C767      1.0  0.69270  0.27799  0.50745  1.0000
  S   S238      1.0  0.72683  0.45868  0.74689  1.0000
  H   H1301     1.0  0.68832  0.02354  0.71634  1.0000
  H   H1302     1.0  0.72201  0.18298  0.64275  1.0000
  H   H1303     1.0  0.69564  0.27048  0.83577  1.0000
  H   H1304     1.0  0.73089  0.46892  0.84776  1.0000
  C   C768      1.0  0.66165  0.24785  0.63511  1.0000
  C   C769      1.0  0.67130  0.22852  0.64807  1.0000
  C   C770      1.0  0.66204  0.22268  0.67068  1.0000
  C   C771      1.0  0.64357  0.23654  0.68069  1.0000
  C   C772      1.0  0.63410  0.25611  0.66787  1.0000
  C   C773      1.0  0.64287  0.26151  0.64493  1.0000
  H   H1305     1.0  0.68555  0.21771  0.64051  1.0000
  H   H1306     1.0  0.66930  0.20738  0.68038  1.0000
  H   H1307     1.0  0.61966  0.26671  0.67543  1.0000
  H   H1308     1.0  0.63529  0.27642  0.63488  1.0000
  C   C774      1.0  0.65450  0.33452  0.74344  1.0000
  C   C775      1.0  0.66032  0.35606  0.74244  1.0000
  C   C776      1.0  0.68283  0.35888  0.74179  1.0000
  C   C777      1.0  0.69969  0.34018  0.74163  1.0000
  C   C778      1.0  0.69392  0.31865  0.74252  1.0000
  C   C779      1.0  0.67134  0.31575  0.74377  1.0000
  H   H1309     1.0  0.64736  0.37065  0.74213  1.0000
  H   H1310     1.0  0.68718  0.37558  0.74089  1.0000
  H   H1311     1.0  0.70696  0.30419  0.74226  1.0000
  H   H1312     1.0  0.66701  0.29911  0.74456  1.0000
  H   H1313     1.0  0.73663  0.20350  0.52639  1.0000
  H   H1314     1.0  0.59197  0.22886  0.87032  1.0000
  H   H1315     1.0  0.67118  0.43407  0.87609  1.0000
  H   H1316     1.0  0.70016  0.26184  0.70858  1.0000
  C   C780      1.0  0.72112  0.17140  0.83239  1.0000
  C   C781      1.0  0.70984  0.19034  0.84197  1.0000
  C   C782      1.0  0.71374  0.19375  0.86316  1.0000
  C   C783      1.0  0.73509  0.48044  0.75824  1.0000
  C   C784      1.0  0.70607  0.26743  0.67073  1.0000
  H   H1317     1.0  0.69795  0.20232  0.83304  1.0000
  H   H1318     1.0  0.70479  0.20824  0.87054  1.0000
  C   C785      1.0  0.64843  0.26420  0.86243  1.0000
  C   C786      1.0  0.65603  0.24138  0.86100  1.0000
  C   C787      1.0  0.64834  0.23082  0.84546  1.0000
  C   C788      1.0  0.63358  0.24325  0.83091  1.0000
  C   C789      1.0  0.62595  0.26604  0.83242  1.0000
  C   C790      1.0  0.63309  0.27634  0.84841  1.0000
  H   H1319     1.0  0.66763  0.23184  0.87202  1.0000
  H   H1320     1.0  0.65419  0.21313  0.84444  1.0000
  H   H1321     1.0  0.61440  0.27567  0.82145  1.0000
  H   H1322     1.0  0.62667  0.29373  0.85001  1.0000
  H   H1323     1.0  0.69411  0.28547  0.78233  1.0000
  C   C791      1.0  0.72654  0.32330  0.88130  1.0000
  H   H1324     1.0  0.65211  0.32026  0.82363  1.0000
  C   C792      1.0  0.55056  0.20911  0.80335  1.0000
  C   C793      1.0  0.71649  0.34422  0.87112  1.0000
  H   H1325     1.0  0.69412  0.46362  0.86602  1.0000
  C   C794      1.0  0.70681  0.05801  0.75858  1.0000
  C   C795      1.0  0.73386  0.28996  0.79152  1.0000
  H   H1326     1.0  0.71984  0.07405  0.67843  1.0000
  H   H1327     1.0  0.68145  0.09900  0.73145  1.0000
  H   H1328     1.0  0.71077  0.30403  0.51292  1.0000
  C   C796      1.0  0.73265  0.14461  0.68909  1.0000
  C   C797      1.0  0.74533  0.23211  0.50217  1.0000
  H   H1329     1.0  0.55689  0.26042  0.80510  1.0000
  H   H1330     1.0  0.67040  0.21618  0.54262  1.0000
  C   C798      1.0  0.52013  0.25474  0.74230  1.0000
  H   H1331     1.0  0.63956  0.35478  0.87869  1.0000
  H   H1332     1.0  0.70687  0.27834  0.62407  1.0000
  H   H1333     1.0  0.68281  0.49076  0.81599  1.0000
  H   H1334     1.0  0.57006  0.20090  0.83035  1.0000
  H   H1335     1.0  0.61482  0.35542  0.80348  1.0000
  C   C799      1.0  0.65888  0.29773  0.69176  1.0000
  H   H1336     1.0  0.62694  0.40669  0.84709  1.0000
  N   N55       1.0  0.65131  0.35473  0.82944  1.0000
  H   H1337     1.0  0.65986  0.09662  0.71582  1.0000
  C   C800      1.0  0.68526  0.25426  0.80112  1.0000
  H   H1338     1.0  0.65198  0.23793  0.55695  1.0000
  H   H1339     1.0  0.71302  0.30497  0.60928  1.0000
  C   C801      1.0  0.68182  0.43455  0.85925  1.0000
  H   H1340     1.0  0.71212  0.00388  0.72356  1.0000
  S   S239      1.0  0.71678  0.16854  0.80524  1.0000
  H   H1341     1.0  0.67921  0.33158  0.79420  1.0000
  S   S240      1.0  0.73934  0.23514  0.92892  1.0000
  H   H1342     1.0  0.70746  0.06859  0.77165  1.0000
  H   H1343     1.0  0.56218  0.19737  0.79302  1.0000
  C   C802      1.0  0.71918  0.06816  0.73578  1.0000
  H   H1344     1.0  0.72350  0.24249  0.82876  1.0000
  C   C803      1.0  0.73706  0.21153  0.50899  1.0000
  C   C804      1.0  0.71799  0.29280  0.83937  1.0000
  H   H1345     1.0  0.57916  0.22261  0.80897  1.0000
  C   C805      1.0  0.67393  0.29869  0.66854  1.0000
  C   C806      1.0  0.68797  0.06941  0.71326  1.0000
  H   H1346     1.0  0.74550  0.29370  0.80223  1.0000
  H   H1347     1.0  0.68274  0.24834  0.69528  1.0000
  H   H1348     1.0  0.66969  0.31625  0.65983  1.0000
  H   H1349     1.0  0.66783  0.28768  0.65875  1.0000
  H   H1350     1.0  0.73798  0.28010  0.69096  1.0000
  H   H1351     1.0  0.74141  0.23391  0.98035  1.0000
  C   C807      1.0  0.72526  0.07624  0.69450  1.0000
  C   C808      1.0  0.71044  0.30293  0.64577  1.0000
  H   H1352     1.0  0.70133  0.32185  0.68352  1.0000
  H   H1353     1.0  0.67606  0.22273  0.56845  1.0000
  Fe  Fe121     1.0  0.72112  0.21808  0.90888  1.0000
  H   H1354     1.0  0.54368  0.22325  0.79111  1.0000
  Fe  Fe122     1.0  0.73163  0.38613  0.80118  1.0000
  S   S241      1.0  0.53367  0.28360  0.76653  1.0000
  H   H1355     1.0  0.69248  0.23836  0.81086  1.0000
  H   H1356     1.0  0.52028  0.27158  0.84534  1.0000
  H   H1357     1.0  0.67550  0.32968  0.84595  1.0000
  H   H1358     1.0  0.70543  0.42897  0.82040  1.0000
  H   H1359     1.0  0.59387  0.21025  0.85027  1.0000
  N   N56       1.0  0.71925  0.27290  0.80445  1.0000
  N   N57       1.0  0.66118  0.17627  0.75502  1.0000
  C   C809      1.0  0.66969  0.17598  0.73013  1.0000
  C   C810      1.0  0.66564  0.19806  0.76098  1.0000
  C   C811      1.0  0.63616  0.17541  0.75877  1.0000
  C   C812      1.0  0.67363  0.15588  0.76791  1.0000
  C   C813      1.0  0.66178  0.15819  0.71899  1.0000
  C   C814      1.0  0.69020  0.20276  0.75509  1.0000
  C   C815      1.0  0.62217  0.18451  0.77986  1.0000
  C   C816      1.0  0.66790  0.15238  0.79389  1.0000
  H   H1360     1.0  0.66467  0.19263  0.72017  1.0000
  H   H1361     1.0  0.68842  0.17321  0.72697  1.0000
  H   H1362     1.0  0.66051  0.19924  0.77924  1.0000
  H   H1363     1.0  0.65513  0.21262  0.75211  1.0000
  H   H1364     1.0  0.62829  0.18576  0.74429  1.0000
  H   H1365     1.0  0.63283  0.15784  0.75935  1.0000
  H   H1366     1.0  0.67052  0.14015  0.76271  1.0000
  H   H1367     1.0  0.69218  0.15513  0.76343  1.0000
  H   H1368     1.0  0.66625  0.14082  0.72755  1.0000
  H   H1369     1.0  0.64347  0.16172  0.71812  1.0000
  H   H1370     1.0  0.67026  0.15882  0.70124  1.0000
  H   H1371     1.0  0.69170  0.21797  0.76229  1.0000
  H   H1372     1.0  0.70214  0.18872  0.76242  1.0000
  H   H1373     1.0  0.69530  0.20639  0.73653  1.0000
  H   H1374     1.0  0.60457  0.18130  0.78116  1.0000
  H   H1375     1.0  0.62152  0.20300  0.77815  1.0000
  H   H1376     1.0  0.62823  0.17666  0.79592  1.0000
  H   H1377     1.0  0.65279  0.14383  0.79955  1.0000
  H   H1378     1.0  0.66585  0.16810  0.80137  1.0000
  H   H1379     1.0  0.68226  0.14156  0.80126  1.0000
  N   N58       1.0  0.71277  0.06276  0.71455  1.0000
  N   N59       1.0  0.67678  0.26135  0.51819  1.0000
  H   H1380     1.0  0.57036  0.21155  0.87314  1.0000
  H   H1381     1.0  0.64059  0.26087  0.52551  1.0000
  H   H1382     1.0  0.69860  0.26017  0.65856  1.0000
  C   C817      1.0  0.56389  0.21664  0.81948  1.0000
  H   H1383     1.0  0.50833  0.23413  0.72237  1.0000
  C   C818      1.0  0.68165  0.45239  0.80236  1.0000
  H   H1384     1.0  0.69412  0.23362  0.50085  1.0000
  H   H1385     1.0  0.71499  0.04065  0.76415  1.0000
  H   H1386     1.0  0.66017  0.31211  0.70034  1.0000
  H   H1387     1.0  0.70002  0.35152  0.87845  1.0000
  H   H1388     1.0  0.66643  0.45551  0.81492  1.0000
  S   S242      1.0  0.73530  0.18321  0.90063  1.0000
  C   C819      1.0  0.67839  0.09425  0.71549  1.0000
  C   C820      1.0  0.53253  0.27587  0.83013  1.0000
  C   C821      1.0  0.54303  0.25515  0.81839  1.0000
  H   H1389     1.0  0.67226  0.26371  0.81246  1.0000
  C   C822      1.0  0.56870  0.24091  0.84587  1.0000
  Fe  Fe123     1.0  0.74671  0.23625  0.55939  1.0000
  H   H1390     1.0  0.61987  0.36849  0.84826  1.0000
  H   H1391     1.0  0.67672  0.37568  0.81368  1.0000
  H   H1392     1.0  0.69652  0.42131  0.86109  1.0000
  C   C823      1.0  0.68814  0.45854  0.85150  1.0000
  H   H1393     1.0  0.73629  0.03172  0.71843  1.0000
  H   H1394     1.0  0.53900  0.20735  0.85813  1.0000
  C   C824      1.0  0.73577  0.15542  0.84438  1.0000
  H   H1395     1.0  0.65585  0.28248  0.55549  1.0000
  H   H1396     1.0  0.72250  0.03542  0.69432  1.0000
  C   C825      1.0  0.64955  0.33959  0.87222  1.0000
  C   C826      1.0  0.70134  0.29082  0.52333  1.0000
  C   C827      1.0  0.53331  0.22516  0.85104  1.0000
  H   H1397     1.0  0.62881  0.28871  0.54778  1.0000
  C   C828      1.0  0.72879  0.17812  0.87498  1.0000
  C   C829      1.0  0.51416  0.26856  0.75921  1.0000
  C   C830      1.0  0.66966  0.23027  0.55231  1.0000
  C   C831      1.0  0.70630  0.30316  0.68631  1.0000
  H   H1398     1.0  0.53730  0.25241  0.73383  1.0000
  S   S243      1.0  0.71387  0.37991  0.83681  1.0000
  H   H1399     1.0  0.69198  0.29692  0.81843  1.0000
  H   H1400     1.0  0.71205  0.23781  0.69589  1.0000
  H   H1401     1.0  0.67510  0.35740  0.85129  1.0000
  H   H1402     1.0  0.64116  0.34480  0.78747  1.0000
  C   C832      1.0  0.72767  0.35540  0.85144  1.0000
  H   H1403     1.0  0.64101  0.29947  0.68917  1.0000
  H   H1404     1.0  0.68411  0.06594  0.69695  1.0000
  H   H1405     1.0  0.68515  0.30271  0.62340  1.0000
  S   S244      1.0  0.71908  0.13385  0.71560  1.0000
  H   H1406     1.0  0.65266  0.40301  0.82825  1.0000
  C   C833      1.0  0.66765  0.36296  0.80937  1.0000
  H   H1407     1.0  0.70396  0.16899  0.68106  1.0000
  H   H1408     1.0  0.62646  0.33201  0.83853  1.0000
  C   C834      1.0  0.66400  0.34547  0.84913  1.0000
  H   H1409     1.0  0.62180  0.32618  0.80088  1.0000
  N   N60       1.0  0.70502  0.46191  0.83031  1.0000
  H   H1410     1.0  0.68504  0.10611  0.70085  1.0000
  C   C835      1.0  0.64008  0.33619  0.82451  1.0000
  H   H1411     1.0  0.68585  0.25883  0.55205  1.0000
  H   H1412     1.0  0.56056  0.25331  0.85740  1.0000
  C   C836      1.0  0.72094  0.16179  0.67516  1.0000
  C   C837      1.0  0.70513  0.28313  0.82426  1.0000
  C   C838      1.0  0.64688  0.28846  0.54070  1.0000
  C   C839      1.0  0.50367  0.24445  0.73580  1.0000
  H   H1413     1.0  0.72136  0.09460  0.69544  1.0000
  H   H1414     1.0  0.73727  0.06213  0.73660  1.0000
  C   C840      1.0  0.64174  0.39414  0.84227  1.0000
  H   H1415     1.0  0.65874  0.37195  0.79508  1.0000
  C   C841      1.0  0.51020  0.22601  0.84325  1.0000
  C   C842      1.0  0.68450  0.24794  0.53957  1.0000
  C   C843      1.0  0.68615  0.34479  0.80026  1.0000
  H   H1416     1.0  0.70763  0.32172  0.64415  1.0000
  H   H1417     1.0  0.65069  0.38893  0.85720  1.0000
  H   H1418     1.0  0.66090  0.33157  0.88483  1.0000
  H   H1419     1.0  0.71344  0.27939  0.53337  1.0000
  N   N61       1.0  0.69906  0.29267  0.66839  1.0000
  H   H1420     1.0  0.63828  0.32722  0.87176  1.0000
  H   H1421     1.0  0.69750  0.29772  0.70337  1.0000
  H   H1422     1.0  0.71801  0.08665  0.73560  1.0000
  H   H1423     1.0  0.54571  0.28412  0.83468  1.0000
  C   C844      1.0  0.70358  0.02143  0.72467  1.0000
  H   H1424     1.0  0.70193  0.23898  0.53573  1.0000
  H   H1425     1.0  0.53717  0.19947  0.81278  1.0000
  H   H1426     1.0  0.72323  0.30635  0.78653  1.0000
  Fe  Fe124     1.0  0.73354  0.26530  0.90232  1.0000
  H   H1427     1.0  0.66478  0.23341  0.50788  1.0000
  H   H1428     1.0  0.64970  0.30603  0.53366  1.0000
  H   H1429     1.0  0.68777  0.29932  0.53481  1.0000
  H   H1430     1.0  0.71085  0.48862  0.80219  1.0000
  C   C845      1.0  0.70059  0.48616  0.81917  1.0000
  H   H1431     1.0  0.73505  0.42027  0.83778  1.0000
  H   H1432     1.0  0.67759  0.05913  0.72650  1.0000
  H   H1433     1.0  0.52981  0.23476  0.86567  1.0000
  H   H1434     1.0  0.70679  0.29576  0.85541  1.0000
  H   H1435     1.0  0.74411  0.14050  0.83726  1.0000
  H   H1436     1.0  0.74104  0.01188  0.81241  1.0000
  C   C846      1.0  0.73332  0.25138  0.81363  1.0000
  H   H1437     1.0  0.53025  0.25204  0.80878  1.0000
  C   C847      1.0  0.73486  0.23696  0.99745  1.0000
  H   H1438     1.0  0.72899  0.29785  0.64407  1.0000
  H   H1439     1.0  0.73463  0.30572  0.70277  1.0000
  C   C848      1.0  0.74172  0.23343  0.79758  1.0000
  H   H1440     1.0  0.52342  0.28860  0.81810  1.0000
  Fe  Fe125     1.0  0.74138  0.12570  0.74261  1.0000
  H   H1441     1.0  0.67189  0.46981  0.84965  1.0000
  H   H1442     1.0  0.68002  0.43792  0.79406  1.0000
  C   C849      1.0  0.65288  0.27310  0.52209  1.0000
  H   H1443     1.0  0.73315  0.28115  0.84388  1.0000
  H   H1444     1.0  0.68235  0.46725  0.78886  1.0000
  H   H1445     1.0  0.72300  0.30933  0.83125  1.0000
  C   C850      1.0  0.70348  0.44709  0.81318  1.0000
  H   H1446     1.0  0.71762  0.44845  0.79899  1.0000
  C   C851      1.0  0.72874  0.45761  0.83592  1.0000
  H   H1447     1.0  0.50264  0.21087  0.85197  1.0000
  H   H1448     1.0  0.74374  0.23995  0.77933  1.0000
  H   H1449     1.0  0.73066  0.22008  0.80116  1.0000
  H   H1450     1.0  0.51051  0.22616  0.82496  1.0000
  H   H1451     1.0  0.74184  0.30669  0.67298  1.0000
  H   H1452     1.0  0.72909  0.43052  0.86502  1.0000
  C   C852      1.0  0.73168  0.29843  0.68808  1.0000
  C   C853      1.0  0.67771  0.24483  0.50189  1.0000
  C   C854      1.0  0.74780  0.31352  0.87197  1.0000
  H   H1453     1.0  0.74823  0.25531  0.81975  1.0000
  C   C855      1.0  0.74807  0.01308  0.79468  1.0000
  C   C856      1.0  0.69484  0.76678  0.18670  1.0000
  C   C857      1.0  0.68773  0.98313  0.19807  1.0000
  H   H1454     1.0  0.72854  0.81309  0.14700  1.0000
  S   S245      1.0  0.71699  0.88223  0.26317  1.0000
  S   S246      1.0  0.72668  0.83382  0.31479  1.0000
  C   C858      1.0  0.70488  0.94158  0.22668  1.0000
  C   C859      1.0  0.73303  0.70300  0.05520  1.0000
  H   H1455     1.0  0.51506  0.82091  0.30065  1.0000
  H   H1456     1.0  0.70312  0.98578  0.20399  1.0000
  Fe  Fe126     1.0  0.71561  0.86151  0.23619  1.0000
  S   S247      1.0  0.68544  0.86073  0.21941  1.0000
  H   H1457     1.0  0.50504  0.68703  0.18175  1.0000
  Fe  Fe127     1.0  0.58389  0.73850  0.22507  1.0000
  S   S248      1.0  0.60255  0.73080  0.25501  1.0000
  S   S249      1.0  0.54590  0.74268  0.23624  1.0000
  Fe  Fe128     1.0  0.62762  0.73944  0.19275  1.0000
  S   S250      1.0  0.64964  0.73134  0.21994  1.0000
  S   S251      1.0  0.64367  0.74926  0.15693  1.0000
  Fe  Fe129     1.0  0.62658  0.70628  0.23596  1.0000
  S   S252      1.0  0.63937  0.67538  0.25902  1.0000
  Fe  Fe130     1.0  0.62444  0.75626  0.23736  1.0000
  S   S253      1.0  0.63690  0.77543  0.26026  1.0000
  S   S254      1.0  0.60647  0.71168  0.20699  1.0000
  S   S255      1.0  0.60381  0.76673  0.20899  1.0000
  C   C860      1.0  0.71439  0.71297  0.13646  1.0000
  C   C861      1.0  0.69982  0.70263  0.15410  1.0000
  C   C862      1.0  0.67822  0.71385  0.16087  1.0000
  C   C863      1.0  0.67089  0.73517  0.14950  1.0000
  C   C864      1.0  0.68547  0.74551  0.13189  1.0000
  C   C865      1.0  0.70730  0.73456  0.12558  1.0000
  H   H1458     1.0  0.66703  0.70576  0.17445  1.0000
  H   H1459     1.0  0.67989  0.76210  0.12325  1.0000
  H   H1460     1.0  0.71848  0.74269  0.11207  1.0000
  H   H1461     1.0  0.64011  0.71922  0.28273  1.0000
  H   H1462     1.0  0.53601  0.82135  0.23538  1.0000
  H   H1463     1.0  0.55249  0.82394  0.29367  1.0000
  H   H1464     1.0  0.66997  0.60381  0.25138  1.0000
  C   C866      1.0  0.73380  0.55534  0.21702  1.0000
  C   C867      1.0  0.51767  0.62417  0.21910  1.0000
  C   C868      1.0  0.67146  0.83735  0.23087  1.0000
  C   C869      1.0  0.65820  0.82949  0.21793  1.0000
  C   C870      1.0  0.64769  0.81028  0.22664  1.0000
  C   C871      1.0  0.65021  0.79911  0.24843  1.0000
  C   C872      1.0  0.66303  0.80726  0.26151  1.0000
  C   C873      1.0  0.67372  0.82625  0.25273  1.0000
  H   H1465     1.0  0.65626  0.83814  0.20108  1.0000
  H   H1466     1.0  0.63741  0.80436  0.21665  1.0000
  H   H1467     1.0  0.66475  0.79892  0.27851  1.0000
  H   H1468     1.0  0.68345  0.83249  0.26305  1.0000
  N   N62       1.0  0.71707  0.74511  0.04241  1.0000
  C   C874      1.0  0.72699  0.54347  0.24124  1.0000
  C   C875      1.0  0.70699  0.63746  0.23204  1.0000
  C   C876      1.0  0.69941  0.63498  0.25529  1.0000
  C   C877      1.0  0.67849  0.64659  0.26347  1.0000
  C   C878      1.0  0.66562  0.66138  0.24853  1.0000
  C   C879      1.0  0.67369  0.66461  0.22541  1.0000
  C   C880      1.0  0.69420  0.65237  0.21714  1.0000
  H   H1469     1.0  0.70925  0.62353  0.26686  1.0000
  H   H1470     1.0  0.67218  0.64395  0.28137  1.0000
  H   H1471     1.0  0.66378  0.67597  0.21382  1.0000
  H   H1472     1.0  0.69998  0.65428  0.19913  1.0000
  H   H1473     1.0  0.70069  0.80711  0.14595  1.0000
  C   C881      1.0  0.51253  0.72969  0.18792  1.0000
  C   C882      1.0  0.52983  0.73313  0.19915  1.0000
  C   C883      1.0  0.52491  0.73764  0.22146  1.0000
  C   C884      1.0  0.72533  0.77695  0.15567  1.0000
  H   H1474     1.0  0.73997  0.79416  0.04424  1.0000
  H   H1475     1.0  0.51647  0.72648  0.17056  1.0000
  H   H1476     1.0  0.54691  0.73259  0.19046  1.0000
  H   H1477     1.0  0.72908  0.79687  0.35062  1.0000
  C   C885      1.0  0.71137  0.51964  0.28676  1.0000
  N   N63       1.0  0.68764  0.71331  0.28735  1.0000
  C   C886      1.0  0.66716  0.72666  0.29923  1.0000
  C   C887      1.0  0.70796  0.72273  0.29086  1.0000
  C   C888      1.0  0.68853  0.68892  0.29827  1.0000
  C   C889      1.0  0.68495  0.71575  0.26273  1.0000
  C   C890      1.0  0.64447  0.71829  0.29990  1.0000
  H   H1478     1.0  0.71438  0.55479  0.28391  1.0000
  H   H1479     1.0  0.72394  0.71286  0.28408  1.0000
  H   H1480     1.0  0.58236  0.79378  0.29687  1.0000
  H   H1481     1.0  0.66922  0.72706  0.31709  1.0000
  H   H1482     1.0  0.66487  0.74459  0.29111  1.0000
  C   C891      1.0  0.74226  0.98753  0.26521  1.0000
  C   C892      1.0  0.70518  0.70622  0.24637  1.0000
  H   H1483     1.0  0.68305  0.68782  0.31690  1.0000
  H   H1484     1.0  0.67645  0.68057  0.29189  1.0000
  H   H1485     1.0  0.67091  0.70703  0.26083  1.0000
  H   H1486     1.0  0.67938  0.73365  0.25576  1.0000
  H   H1487     1.0  0.64406  0.70090  0.30908  1.0000
  H   H1488     1.0  0.63088  0.72949  0.30899  1.0000
  H   H1489     1.0  0.57670  0.82831  0.24029  1.0000
  H   H1490     1.0  0.57068  0.75697  0.31118  1.0000
  H   H1491     1.0  0.70520  0.68591  0.16256  1.0000
  H   H1492     1.0  0.71249  0.90536  0.17070  1.0000
  H   H1493     1.0  0.71444  0.80891  0.22160  1.0000
  H   H1494     1.0  0.72986  0.52501  0.24047  1.0000
  H   H1495     1.0  0.53034  0.64100  0.16959  1.0000
  H   H1496     1.0  0.73980  0.54630  0.25122  1.0000
  H   H1497     1.0  0.56926  0.77758  0.24543  1.0000
  H   H1498     1.0  0.53753  0.79619  0.22311  1.0000
  H   H1499     1.0  0.51237  0.82131  0.27200  1.0000
  H   H1500     1.0  0.67796  0.92361  0.24680  1.0000
  H   H1501     1.0  0.52207  0.79524  0.28915  1.0000
  H   H1502     1.0  0.72767  0.81412  0.46611  1.0000
  C   C893      1.0  0.72018  0.79377  0.19098  1.0000
  H   H1503     1.0  0.68424  0.75568  0.08137  1.0000
  N   N64       1.0  0.71818  0.77321  0.18100  1.0000
  H   H1504     1.0  0.67065  0.53933  0.25797  1.0000
  H   H1505     1.0  0.73147  0.97418  0.17606  1.0000
  C   C894      1.0  0.68252  0.94093  0.24291  1.0000
  H   H1506     1.0  0.70427  0.71582  0.22916  1.0000
  H   H1507     1.0  0.66676  0.73605  0.07836  1.0000
  C   C895      1.0  0.71835  0.76827  0.04771  1.0000
  C   C896      1.0  0.68443  0.73954  0.07512  1.0000
  C   C897      1.0  0.69525  0.91186  0.17838  1.0000
  H   H1508     1.0  0.69051  0.76070  0.20506  1.0000
  N   N65       1.0  0.70347  0.55065  0.25278  1.0000
  H   H1509     1.0  0.72286  0.70980  0.01389  1.0000
  C   C898      1.0  0.69528  0.91829  0.20195  1.0000
  C   C899      1.0  0.70347  0.54467  0.27803  1.0000
  N   N66       1.0  0.70374  0.94020  0.20229  1.0000
  C   C900      1.0  0.73930  0.95953  0.18712  1.0000
  H   H1510     1.0  0.70419  0.78083  0.04177  1.0000
  H   H1511     1.0  0.69763  0.78726  0.22335  1.0000
  C   C901      1.0  0.68804  0.95948  0.19156  1.0000
  H   H1512     1.0  0.72754  0.78042  0.22563  1.0000
  H   H1513     1.0  0.66430  0.54039  0.22148  1.0000
  H   H1514     1.0  0.52371  0.66885  0.19802  1.0000
  H   H1515     1.0  0.73763  0.79796  0.18624  1.0000
  C   C902      1.0  0.71640  0.72705  0.00642  1.0000
  H   H1516     1.0  0.68636  0.54885  0.28746  1.0000
  C   C903      1.0  0.50256  0.73850  0.23242  1.0000
  H   H1517     1.0  0.69855  0.58220  0.22945  1.0000
  H   H1518     1.0  0.71864  0.76504  0.14746  1.0000
  H   H1519     1.0  0.53073  0.63536  0.21543  1.0000
  H   H1520     1.0  0.67036  0.95591  0.19608  1.0000
  C   C904      1.0  0.73338  0.72831  0.05522  1.0000
  H   H1521     1.0  0.67670  0.80183  0.18149  1.0000
  C   C905      1.0  0.56020  0.76958  0.30028  1.0000
  C   C906      1.0  0.72338  0.74559  0.01714  1.0000
  H   H1522     1.0  0.70828  0.75056  0.26198  1.0000
  H   H1523     1.0  0.65942  0.78059  0.18962  1.0000
  C   C907      1.0  0.52366  0.65916  0.16581  1.0000
  H   H1524     1.0  0.69176  0.96101  0.17277  1.0000
  H   H1525     1.0  0.72558  0.75201  0.28254  1.0000
  C   C908      1.0  0.52309  0.81348  0.28519  1.0000
  H   H1526     1.0  0.70907  0.65589  0.30218  1.0000
  H   H1527     1.0  0.72171  0.70808  0.25037  1.0000
  C   C909      1.0  0.67343  0.58563  0.25831  1.0000
  H   H1528     1.0  0.71866  0.96889  0.28835  1.0000
  C   C910      1.0  0.71153  0.67368  0.29568  1.0000
  H   H1529     1.0  0.51165  0.62176  0.23759  1.0000
  H   H1530     1.0  0.74186  0.74501  0.01222  1.0000
  Fe  Fe131     1.0  0.73664  0.85045  0.27927  1.0000
  H   H1531     1.0  0.72304  0.67806  0.30610  1.0000
  C   C911      1.0  0.69724  0.57594  0.24783  1.0000
  H   H1532     1.0  0.67201  0.58469  0.27692  1.0000
  C   C912      1.0  0.70920  0.74759  0.28038  1.0000
  H   H1533     1.0  0.72350  0.80032  0.12440  1.0000
  H   H1534     1.0  0.60690  0.81534  0.27763  1.0000
  H   H1535     1.0  0.71174  0.51777  0.30526  1.0000
  H   H1536     1.0  0.56142  0.81060  0.21779  1.0000
  H   H1537     1.0  0.73370  0.77436  0.42433  1.0000
  H   H1538     1.0  0.72077  0.72346  0.18653  1.0000
  C   C913      1.0  0.54713  0.81983  0.27835  1.0000
  H   H1539     1.0  0.68754  0.92598  0.16670  1.0000
  S   S256      1.0  0.73257  0.82949  0.25372  1.0000
  C   C914      1.0  0.74447  0.80413  0.34843  1.0000
  H   H1540     1.0  0.68142  0.56175  0.21461  1.0000
  H   H1541     1.0  0.52652  0.60770  0.21441  1.0000
  H   H1542     1.0  0.69974  0.50840  0.28429  1.0000
  C   C915      1.0  0.68159  0.54376  0.22178  1.0000
  H   H1543     1.0  0.73635  0.57295  0.21716  1.0000
  H   H1544     1.0  0.67381  0.78425  0.16110  1.0000
  H   H1545     1.0  0.68520  0.89784  0.18028  1.0000
  H   H1546     1.0  0.51320  0.66200  0.15202  1.0000
  H   H1547     1.0  0.73823  0.92386  0.19664  1.0000
  H   H1548     1.0  0.67765  0.91851  0.21068  1.0000
  H   H1549     1.0  0.55255  0.75975  0.29056  1.0000
  H   H1550     1.0  0.50107  0.62353  0.19038  1.0000
  H   H1551     1.0  0.70879  0.72128  0.30931  1.0000
  C   C916      1.0  0.58341  0.81508  0.25354  1.0000
  H   H1552     1.0  0.74036  0.96425  0.20368  1.0000
  C   C917      1.0  0.57546  0.78555  0.28506  1.0000
  C   C918      1.0  0.73907  0.94792  0.26500  1.0000
  C   C919      1.0  0.59610  0.82735  0.26662  1.0000
  C   C920      1.0  0.69304  0.74083  0.04958  1.0000
  H   H1553     1.0  0.54525  0.83601  0.26652  1.0000
  H   H1554     1.0  0.54215  0.78155  0.26049  1.0000
  H   H1555     1.0  0.59621  0.80322  0.24424  1.0000
  C   C921      1.0  0.73635  0.73133  0.18156  1.0000
  H   H1556     1.0  0.69429  0.72553  0.08517  1.0000
  C   C922      1.0  0.72718  0.93887  0.18917  1.0000
  H   H1557     1.0  0.59001  0.77464  0.27678  1.0000
  S   S257      1.0  0.73164  0.62114  0.22102  1.0000
  C   C923      1.0  0.51088  0.66885  0.18708  1.0000
  H   H1558     1.0  0.53835  0.66821  0.15916  1.0000
  S   S258      1.0  0.74116  0.69844  0.12799  1.0000
  H   H1559     1.0  0.60767  0.83731  0.25427  1.0000
  H   H1560     1.0  0.58460  0.83933  0.27670  1.0000
  H   H1561     1.0  0.69355  0.53314  0.21052  1.0000
  C   C924      1.0  0.54727  0.80593  0.23094  1.0000
  H   H1562     1.0  0.71709  0.92735  0.23355  1.0000
  H   H1563     1.0  0.72715  0.93649  0.17140  1.0000
  H   H1564     1.0  0.68463  0.94570  0.25926  1.0000
  C   C925      1.0  0.55599  0.79090  0.25176  1.0000
  H   H1565     1.0  0.69300  0.51952  0.24862  1.0000
  H   H1566     1.0  0.71640  0.69872  0.05413  1.0000
  C   C926      1.0  0.71454  0.79203  0.21691  1.0000
  H   H1567     1.0  0.69598  0.75942  0.28906  1.0000
  H   H1568     1.0  0.74261  0.82645  0.48316  1.0000
  H   H1569     1.0  0.71154  0.95685  0.22866  1.0000
  C   C927      1.0  0.68686  0.53798  0.24629  1.0000
  H   H1570     1.0  0.54722  0.77875  0.31190  1.0000
  C   C928      1.0  0.71886  0.80080  0.14287  1.0000
  C   C929      1.0  0.67539  0.78454  0.17903  1.0000
  H   H1571     1.0  0.68148  0.75419  0.04049  1.0000
  C   C930      1.0  0.73425  0.75380  0.19102  1.0000
  H   H1572     1.0  0.70933  0.80904  0.18402  1.0000
  H   H1573     1.0  0.69015  0.72489  0.04476  1.0000
  H   H1574     1.0  0.71657  0.76827  0.06630  1.0000
  H   H1575     1.0  0.74087  0.73325  0.16292  1.0000
  H   H1576     1.0  0.69393  0.75189  0.17868  1.0000
  N   N67       1.0  0.56489  0.80286  0.26747  1.0000
  H   H1577     1.0  0.66847  0.95284  0.23628  1.0000
  H   H1578     1.0  0.70949  0.58449  0.25375  1.0000
  H   H1579     1.0  0.72928  0.74969  0.20959  1.0000
  H   H1580     1.0  0.73439  0.77826  0.46351  1.0000
  H   H1581     1.0  0.70470  0.68819  0.24549  1.0000
  H   H1582     1.0  0.71571  0.76184  0.00799  1.0000
  H   H1583     1.0  0.70531  0.90390  0.21155  1.0000
  H   H1584     1.0  0.66015  0.57744  0.25395  1.0000
  H   H1585     1.0  0.73106  0.93319  0.27206  1.0000
  C   C931      1.0  0.73207  0.96819  0.27419  1.0000
  H   H1586     1.0  0.72867  0.51368  0.27902  1.0000
  C   C932      1.0  0.74186  0.82338  0.46577  1.0000
  H   H1587     1.0  0.73143  0.73095  0.07322  1.0000
  H   H1588     1.0  0.71975  0.67403  0.27796  1.0000
  H   H1589     1.0  0.72167  0.55524  0.20545  1.0000
  H   H1590     1.0  0.74397  0.77321  0.15149  1.0000
  S   S259      1.0  0.74754  0.87082  0.21508  1.0000
  C   C933      1.0  0.74020  0.77826  0.03743  1.0000
  H   H1591     1.0  0.69790  0.72900  0.00692  1.0000
  H   H1592     1.0  0.74141  0.76005  0.49845  1.0000
  H   H1593     1.0  0.74370  0.98578  0.36304  1.0000
  H   H1594     1.0  0.73510  0.65301  0.17171  1.0000
  H   H1595     1.0  0.67295  0.98724  0.21094  1.0000
  H   H1596     1.0  0.50869  0.65943  0.24096  1.0000
  H   H1597     1.0  0.74164  0.78265  0.01875  1.0000
  H   H1598     1.0  0.73756  0.69340  0.07154  1.0000
  H   H1599     1.0  0.73841  0.80217  0.42613  1.0000
  H   H1600     1.0  0.73758  0.83985  0.45511  1.0000
  C   C934      1.0  0.74791  0.82258  0.33157  1.0000
  H   H1601     1.0  0.50604  0.68790  0.22583  1.0000
  H   H1602     1.0  0.68538  0.99608  0.18301  1.0000
  H   H1603     1.0  0.74339  0.98021  0.31754  1.0000
  C   C935      1.0  0.74602  0.78415  0.42825  1.0000
  H   H1604     1.0  0.74552  0.69658  0.04134  1.0000
  H   H1605     1.0  0.49858  0.74203  0.24966  1.0000
  C   C936      1.0  0.74041  0.84942  0.83745  1.0000
  C   C937      1.0  0.59582  0.70177  0.71131  1.0000
  S   S260      1.0  0.72294  0.92002  0.76564  1.0000
  H   H1606     1.0  0.70447  0.75304  0.68836  1.0000
  C   C938      1.0  0.70158  0.80780  0.84056  1.0000
  S   S261      1.0  0.70018  0.63553  0.73630  1.0000
  C   C939      1.0  0.61641  0.71839  0.77490  1.0000
  H   H1607     1.0  0.58271  0.73096  0.76897  1.0000
  H   H1608     1.0  0.73557  0.76334  0.62573  1.0000
  C   C940      1.0  0.71903  0.76030  0.63405  1.0000
  H   H1609     1.0  0.56721  0.68167  0.74630  1.0000
  H   H1610     1.0  0.60131  0.71301  0.69557  1.0000
  C   C941      1.0  0.67379  0.78524  0.81783  1.0000
  H   H1611     1.0  0.73186  0.70652  0.80677  1.0000
  C   C942      1.0  0.53064  0.83074  0.73774  1.0000
  Fe  Fe132     1.0  0.63688  0.80973  0.74067  1.0000
  S   S262      1.0  0.61604  0.81270  0.71272  1.0000
  S   S263      1.0  0.64414  0.83654  0.75891  1.0000
  Fe  Fe133     1.0  0.65057  0.75897  0.74213  1.0000
  S   S264      1.0  0.63180  0.75707  0.71376  1.0000
  S   S265      1.0  0.67355  0.73364  0.76252  1.0000
  Fe  Fe134     1.0  0.64513  0.78916  0.69744  1.0000
  S   S266      1.0  0.66266  0.79698  0.66196  1.0000
  Fe  Fe135     1.0  0.60386  0.78049  0.73109  1.0000
  S   S267      1.0  0.56775  0.77334  0.74204  1.0000
  S   S268      1.0  0.66644  0.78864  0.72412  1.0000
  S   S269      1.0  0.62204  0.77990  0.76067  1.0000
  H   H1612     1.0  0.72364  0.72884  0.98821  1.0000
  H   H1613     1.0  0.50500  0.83215  0.67858  1.0000
  C   C943      1.0  0.54757  0.77359  0.72409  1.0000
  C   C944      1.0  0.52568  0.76984  0.73395  1.0000
  H   H1614     1.0  0.69820  0.76277  0.78502  1.0000
  C   C945      1.0  0.60461  0.66335  0.78138  1.0000
  C   C946      1.0  0.53589  0.77791  0.68697  1.0000
  C   C947      1.0  0.55267  0.77751  0.70052  1.0000
  H   H1615     1.0  0.52161  0.76669  0.75218  1.0000
  C   C948      1.0  0.72820  0.77030  0.71278  1.0000
  H   H1616     1.0  0.53991  0.78112  0.66873  1.0000
  H   H1617     1.0  0.56947  0.78037  0.69269  1.0000
  C   C949      1.0  0.68182  0.77448  0.65230  1.0000
  C   C950      1.0  0.67609  0.75270  0.65599  1.0000
  C   C951      1.0  0.69168  0.73484  0.64831  1.0000
  C   C952      1.0  0.70318  0.77832  0.64105  1.0000
  H   H1618     1.0  0.65953  0.74973  0.66443  1.0000
  H   H1619     1.0  0.68707  0.71808  0.65095  1.0000
  H   H1620     1.0  0.70510  0.74976  0.81210  1.0000
  S   S270      1.0  0.73797  0.87231  0.72580  1.0000
  H   H1621     1.0  0.50549  0.87965  0.73818  1.0000
  H   H1622     1.0  0.70075  0.66532  0.63892  1.0000
  Fe  Fe136     1.0  0.73752  0.90272  0.79690  1.0000
  N   N68       1.0  0.59180  0.69964  0.75483  1.0000
  H   H1623     1.0  0.70899  0.77180  0.84067  1.0000
  H   H1624     1.0  0.71328  0.80835  0.85261  1.0000
  H   H1625     1.0  0.52937  0.81479  0.74963  1.0000
  C   C953      1.0  0.54999  0.71488  0.75181  1.0000
  C   C954      1.0  0.74736  0.99543  0.78260  1.0000
  C   C955      1.0  0.69236  0.66264  0.74384  1.0000
  C   C956      1.0  0.70328  0.66952  0.75943  1.0000
  C   C957      1.0  0.69714  0.69129  0.76526  1.0000
  C   C958      1.0  0.68028  0.70634  0.75530  1.0000
  C   C959      1.0  0.66947  0.69958  0.73953  1.0000
  C   C960      1.0  0.67542  0.67765  0.73390  1.0000
  H   H1626     1.0  0.71631  0.65796  0.76723  1.0000
  H   H1627     1.0  0.70550  0.69645  0.77751  1.0000
  H   H1628     1.0  0.65682  0.71131  0.73144  1.0000
  H   H1629     1.0  0.66716  0.67242  0.72163  1.0000
  H   H1630     1.0  0.74214  0.66544  0.62784  1.0000
  C   C961      1.0  0.71168  0.86287  0.73488  1.0000
  C   C962      1.0  0.69879  0.86760  0.75537  1.0000
  C   C963      1.0  0.67794  0.85976  0.76240  1.0000
  C   C964      1.0  0.66996  0.84691  0.74915  1.0000
  C   C965      1.0  0.68286  0.84223  0.72863  1.0000
  C   C966      1.0  0.70367  0.85014  0.72155  1.0000
  H   H1631     1.0  0.70482  0.87730  0.76586  1.0000
  H   H1632     1.0  0.66802  0.86359  0.77822  1.0000
  H   H1633     1.0  0.67654  0.83312  0.71784  1.0000
  H   H1634     1.0  0.71336  0.84675  0.70551  1.0000
  H   H1635     1.0  0.58803  0.65728  0.78536  1.0000
  C   C967      1.0  0.70335  0.66428  0.65680  1.0000
  N   N69       1.0  0.69826  0.78625  0.80831  1.0000
  H   H1636     1.0  0.58969  0.72999  0.72999  1.0000
  H   H1637     1.0  0.68661  0.82086  0.79511  1.0000
  H   H1638     1.0  0.61685  0.71416  0.72956  1.0000
  H   H1639     1.0  0.73701  0.80472  0.78957  1.0000
  Fe  Fe137     1.0  0.73116  0.61779  0.75096  1.0000
  C   C968      1.0  0.56813  0.69445  0.75714  1.0000
  C   C969      1.0  0.65868  0.78108  0.80137  1.0000
  S   S271      1.0  0.71767  0.89288  0.83067  1.0000
  H   H1640     1.0  0.53340  0.70895  0.75385  1.0000
  H   H1641     1.0  0.61764  0.64813  0.78150  1.0000
  H   H1642     1.0  0.60699  0.67235  0.79504  1.0000
  H   H1643     1.0  0.70758  0.79520  0.63804  1.0000
  H   H1644     1.0  0.56251  0.68665  0.77473  1.0000
  H   H1645     1.0  0.62477  0.72708  0.75898  1.0000
  H   H1646     1.0  0.66571  0.80134  0.82402  1.0000
  H   H1647     1.0  0.69765  0.52120  0.82429  1.0000
  H   H1648     1.0  0.69514  0.80294  0.77414  1.0000
  H   H1649     1.0  0.58490  0.70661  0.78952  1.0000
  H   H1650     1.0  0.54849  0.82960  0.72960  1.0000
  H   H1651     1.0  0.70073  0.82405  0.82899  1.0000
  H   H1652     1.0  0.67221  0.77179  0.83279  1.0000
  H   H1653     1.0  0.62550  0.68072  0.75378  1.0000
  C   C970      1.0  0.59276  0.71401  0.77255  1.0000
  H   H1654     1.0  0.54828  0.72734  0.76362  1.0000
  H   H1655     1.0  0.52094  0.84671  0.70560  1.0000
  C   C971      1.0  0.73747  0.73050  0.72931  1.0000
  H   H1656     1.0  0.55313  0.72348  0.73417  1.0000
  H   H1657     1.0  0.73528  0.77382  0.77243  1.0000
  H   H1658     1.0  0.71437  0.62931  0.65556  1.0000
  H   H1659     1.0  0.60649  0.68515  0.71048  1.0000
  C   C972      1.0  0.51388  0.77456  0.69684  1.0000
  H   H1660     1.0  0.72315  0.50475  0.83130  1.0000
  C   C973      1.0  0.60763  0.67774  0.75779  1.0000
  H   H1661     1.0  0.73533  0.78687  0.67717  1.0000
  H   H1662     1.0  0.52038  0.81722  0.71175  1.0000
  H   H1663     1.0  0.62752  0.70276  0.78058  1.0000
  C   C974      1.0  0.59876  0.71241  0.73181  1.0000
  H   H1664     1.0  0.57805  0.70020  0.71090  1.0000
  Fe  Fe138     1.0  0.74720  0.89343  0.74912  1.0000
  C   C975      1.0  0.51547  0.83315  0.71924  1.0000
  H   H1665     1.0  0.60578  0.66667  0.74557  1.0000
  C   C976      1.0  0.70748  0.76462  0.79875  1.0000
  C   C977      1.0  0.71021  0.78730  0.82792  1.0000
  H   H1666     1.0  0.73648  0.59645  0.66067  1.0000
  C   C978      1.0  0.50891  0.77029  0.72043  1.0000
  H   H1667     1.0  0.66096  0.79201  0.78479  1.0000
  H   H1668     1.0  0.72852  0.78717  0.82288  1.0000
  H   H1669     1.0  0.71304  0.63633  0.68261  1.0000
  H   H1670     1.0  0.68490  0.80635  0.85089  1.0000
  H   H1671     1.0  0.70995  0.67965  0.65847  1.0000
  H   H1672     1.0  0.64075  0.78493  0.80878  1.0000
  H   H1673     1.0  0.69252  0.71669  0.69422  1.0000
  H   H1674     1.0  0.72308  0.53771  0.75708  1.0000
  H   H1675     1.0  0.66151  0.76310  0.79882  1.0000
  H   H1676     1.0  0.72926  0.88690  0.87509  1.0000
  H   H1677     1.0  0.73707  0.74456  0.78346  1.0000
  C   C979      1.0  0.73221  0.86962  0.84635  1.0000
  H   H1678     1.0  0.73524  0.79010  0.50006  1.0000
  H   H1679     1.0  0.52724  0.84518  0.74726  1.0000
  C   C980      1.0  0.71330  0.73852  0.63770  1.0000
  H   H1680     1.0  0.71418  0.77272  0.72696  1.0000
  C   C981      1.0  0.73091  0.52052  0.76161  1.0000
  S   S272      1.0  0.73303  0.71539  0.63017  1.0000
  H   H1681     1.0  0.74386  0.76299  0.80016  1.0000
  C   C982      1.0  0.69955  0.80656  0.79014  1.0000
  H   H1682     1.0  0.68682  0.66493  0.66788  1.0000
  C   C983      1.0  0.71868  0.64224  0.66440  1.0000
  S   S273      1.0  0.73336  0.60470  0.78771  1.0000
  H   H1683     1.0  0.74247  0.74803  0.67208  1.0000
  H   H1684     1.0  0.72354  0.73303  0.74360  1.0000
  C   C984      1.0  0.72285  0.78860  0.69257  1.0000
  C   C985      1.0  0.73561  0.87139  0.86815  1.0000
  H   H1685     1.0  0.73971  0.98082  0.79100  1.0000
  H   H1686     1.0  0.71362  0.50667  0.74008  1.0000
  H   H1687     1.0  0.69621  0.74465  0.71757  1.0000
  H   H1688     1.0  0.72068  0.83227  0.79101  1.0000
  H   H1689     1.0  0.61480  0.72970  0.78786  1.0000
  H   H1690     1.0  0.72297  0.80548  0.69721  1.0000
  C   C986      1.0  0.73241  0.76178  0.78820  1.0000
  H   H1691     1.0  0.73896  0.71257  0.72693  1.0000
  C   C987      1.0  0.72218  0.81613  0.78418  1.0000
  H   H1692     1.0  0.73748  0.84789  0.82073  1.0000
  C   C988      1.0  0.72554  0.50291  0.75204  1.0000
  C   C989      1.0  0.70947  0.71753  0.69818  1.0000
  H   H1693     1.0  0.72063  0.66855  0.69653  1.0000
  C   C990      1.0  0.70986  0.74146  0.70330  1.0000
  H   H1694     1.0  0.71205  0.70438  0.71289  1.0000
  H   H1695     1.0  0.70582  0.78882  0.68833  1.0000
  H   H1696     1.0  0.74271  0.77473  0.71891  1.0000
  H   H1697     1.0  0.72172  0.71340  0.68321  1.0000
  H   H1698     1.0  0.72590  0.82062  0.76551  1.0000
  N   N70       1.0  0.73196  0.74618  0.70819  1.0000
  C   C991      1.0  0.74765  0.85339  0.88082  1.0000
  C   C992      1.0  0.73890  0.66227  0.69534  1.0000
  H   H1699     1.0  0.69690  0.50189  0.85025  1.0000
  C   C993      1.0  0.70486  0.50427  0.83232  1.0000
  C   C994      1.0  0.74823  0.77504  0.50122  1.0000
  H   H1700     1.0  0.74131  0.64560  0.70587  1.0000
  H   H1701     1.0  0.74418  0.63666  0.62539  1.0000
  N   N71       1.0  0.74361  0.64315  0.65965  1.0000
  S   S274      1.0  0.74718  0.58518  0.73876  1.0000
  C   C995      1.0  0.74559  0.69512  0.81350  1.0000
  H   H1702     1.0  0.74582  0.67828  0.66098  1.0000
  H   H1703     1.0  0.74590  0.67025  0.79165  1.0000
  S   S275      1.0  0.74671  0.75437  0.89627  1.0000
  S   S276      1.0  0.74583  0.72696  0.84091  1.0000
  H   H1704     1.0  0.74675  0.67405  0.70264  1.0000
  C   C996      1.0  0.74572  0.51573  0.77765  1.0000
  H   H1705     1.0  0.74780  0.52318  0.70972  1.0000
  H   H1706     1.0  0.76690  0.22663  0.00959  1.0000
  C   C997      1.0  0.84448  0.27977  0.18958  1.0000
  H   H1707     1.0  0.80390  0.04269  0.33806  1.0000
  H   H1708     1.0  0.78484  0.10114  0.19013  1.0000
  H   H1709     1.0  0.80938  0.44016  0.28228  1.0000
  H   H1710     1.0  0.74969  0.35913  0.03161  1.0000
  H   H1711     1.0  0.95619  0.26586  0.32837  1.0000
  S   S277      1.0  0.80913  0.08950  0.22682  1.0000
  H   H1712     1.0  0.77008  0.15971  0.15622  1.0000
  Fe  Fe139     1.0  0.91852  0.19657  0.23967  1.0000
  S   S278      1.0  0.89332  0.19584  0.27139  1.0000
  S   S279      1.0  0.95480  0.18337  0.24497  1.0000
  Fe  Fe140     1.0  0.88193  0.21290  0.21014  1.0000
  S   S280      1.0  0.85408  0.21380  0.23925  1.0000
  S   S281      1.0  0.87211  0.22455  0.17551  1.0000
  Fe  Fe141     1.0  0.87699  0.22905  0.25527  1.0000
  S   S282      1.0  0.86036  0.25457  0.27794  1.0000
  Fe  Fe142     1.0  0.87221  0.18043  0.25300  1.0000
  S   S283      1.0  0.85113  0.15494  0.27376  1.0000
  S   S284      1.0  0.90374  0.23142  0.22489  1.0000
  S   S285      1.0  0.89863  0.17807  0.22245  1.0000
  Fe  Fe143     1.0  0.77673  0.08090  0.24790  1.0000
  H   H1713     1.0  0.76447  0.13811  0.14268  1.0000
  Fe  Fe144     1.0  0.79477  0.36628  0.24138  1.0000
  H   H1714     1.0  0.80895  0.12756  0.19143  1.0000
  S   S286      1.0  0.83132  0.35376  0.23075  1.0000
  H   H1715     1.0  0.79799  0.10319  0.13949  1.0000
  H   H1716     1.0  0.79111  0.29600  0.23584  1.0000
  H   H1717     1.0  0.81557  0.20828  0.27985  1.0000
  C   C998      1.0  0.80779  0.11164  0.14865  1.0000
  C   C999      1.0  0.84581  0.21770  0.17312  1.0000
  C   C1000     1.0  0.83506  0.20265  0.18989  1.0000
  C   C1001     1.0  0.81364  0.19814  0.18812  1.0000
  C   C1002     1.0  0.80299  0.20845  0.16946  1.0000
  C   C1003     1.0  0.81386  0.22325  0.15258  1.0000
  C   C1004     1.0  0.83525  0.22780  0.15437  1.0000
  H   H1718     1.0  0.84344  0.19407  0.20397  1.0000
  H   H1719     1.0  0.80552  0.18636  0.20108  1.0000
  H   H1720     1.0  0.80601  0.23097  0.13797  1.0000
  H   H1721     1.0  0.84359  0.23927  0.14125  1.0000
  C   C1005     1.0  0.85231  0.28186  0.26431  1.0000
  C   C1006     1.0  0.86449  0.29042  0.24386  1.0000
  C   C1007     1.0  0.85821  0.31270  0.23378  1.0000
  C   C1008     1.0  0.83942  0.32618  0.24381  1.0000
  C   C1009     1.0  0.82716  0.31748  0.26410  1.0000
  C   C1010     1.0  0.83377  0.29545  0.27448  1.0000
  H   H1722     1.0  0.87883  0.27999  0.23595  1.0000
  H   H1723     1.0  0.86769  0.31939  0.21803  1.0000
  H   H1724     1.0  0.81292  0.32790  0.27215  1.0000
  H   H1725     1.0  0.82446  0.28894  0.29041  1.0000
  C   C1011     1.0  0.82127  0.10750  0.23967  1.0000
  C   C1012     1.0  0.81457  0.10936  0.26259  1.0000
  C   C1013     1.0  0.82408  0.12377  0.27281  1.0000
  C   C1014     1.0  0.83994  0.13690  0.26012  1.0000
  C   C1015     1.0  0.84660  0.13521  0.23713  1.0000
  C   C1016     1.0  0.83754  0.12024  0.22702  1.0000
  H   H1726     1.0  0.80239  0.09931  0.27262  1.0000
  H   H1727     1.0  0.81917  0.12463  0.29068  1.0000
  H   H1728     1.0  0.85902  0.14510  0.22728  1.0000
  H   H1729     1.0  0.84319  0.11853  0.20944  1.0000
  H   H1730     1.0  0.79968  0.33943  0.18282  1.0000
  H   H1731     1.0  0.84350  0.26931  0.17661  1.0000
  S   S287      1.0  0.77536  0.38394  0.21357  1.0000
  H   H1732     1.0  0.77188  0.00837  0.30517  1.0000
  H   H1733     1.0  0.82565  0.22526  0.29696  1.0000
  H   H1734     1.0  0.79036  0.29511  0.32544  1.0000
  H   H1735     1.0  0.77176  0.49228  0.20823  1.0000
  S   S288      1.0  0.77221  0.24943  0.11137  1.0000
  C   C1017     1.0  0.91027  0.24117  0.30702  1.0000
  H   H1736     1.0  0.81247  0.17779  0.36285  1.0000
  H   H1737     1.0  0.81921  0.12040  0.13507  1.0000
  C   C1018     1.0  0.97795  0.19864  0.23892  1.0000
  H   H1738     1.0  0.90750  0.27855  0.27550  1.0000
  C   C1019     1.0  0.79807  0.26270  0.19351  1.0000
  H   H1739     1.0  0.77338  0.26580  0.25870  1.0000
  C   C1020     1.0  0.97666  0.22032  0.22651  1.0000
  H   H1740     1.0  0.97022  0.24194  0.31489  1.0000
  H   H1741     1.0  0.84464  0.29758  0.18163  1.0000
  H   H1742     1.0  0.96140  0.22786  0.21965  1.0000
  N   N72       1.0  0.76042  0.30731  0.04626  1.0000
  H   H1743     1.0  0.80612  0.41516  0.21760  1.0000
  C   C1021     1.0  0.78432  0.26189  0.24285  1.0000
  H   H1744     1.0  0.83479  0.42159  0.28486  1.0000
  C   C1022     1.0  0.82292  0.09297  0.16213  1.0000
  H   H1745     1.0  0.80867  0.27882  0.06915  1.0000
  H   H1746     1.0  0.76972  0.47578  0.29136  1.0000
  H   H1747     1.0  0.80631  0.16207  0.12640  1.0000
  H   H1748     1.0  0.77900  0.33400  0.30648  1.0000
  C   C1023     1.0  0.95364  0.25220  0.31940  1.0000
  H   H1749     1.0  0.86100  0.27383  0.19565  1.0000
  H   H1750     1.0  0.94435  0.28438  0.25305  1.0000
  C   C1024     1.0  0.89475  0.25986  0.31891  1.0000
  C   C1025     1.0  0.82560  0.27740  0.20994  1.0000
  H   H1751     1.0  0.81845  0.32373  0.20141  1.0000
  C   C1026     1.0  0.94386  0.22874  0.28018  1.0000
  H   H1752     1.0  0.93617  0.22333  0.26692  1.0000
  H   H1753     1.0  0.75828  0.32693  0.07360  1.0000
  H   H1754     1.0  0.83566  0.08398  0.15009  1.0000
  N   N73       1.0  0.75883  0.01219  0.34005  1.0000
  H   H1755     1.0  0.91652  0.22849  0.32081  1.0000
  H   H1756     1.0  0.78128  0.33379  0.03959  1.0000
  H   H1757     1.0  0.78854  0.32925  0.21112  1.0000
  H   H1758     1.0  0.88529  0.27239  0.30714  1.0000
  N   N74       1.0  0.80183  0.28191  0.20453  1.0000
  H   H1759     1.0  0.82354  0.30034  0.48925  1.0000
  H   H1760     1.0  0.77571  0.16748  0.28324  1.0000
  N   N75       1.0  0.92913  0.24881  0.28934  1.0000
  C   C1027     1.0  0.75448  0.34595  0.02032  1.0000
  C   C1028     1.0  0.93469  0.27196  0.24919  1.0000
  C   C1029     1.0  0.77419  0.26375  0.18754  1.0000
  H   H1761     1.0  0.76543  0.18279  0.34850  1.0000
  C   C1030     1.0  0.79628  0.29420  0.06559  1.0000
  S   S289      1.0  0.75469  0.10966  0.26262  1.0000
  H   H1762     1.0  0.74980  0.29384  0.29674  1.0000
  C   C1031     1.0  0.77076  0.32606  0.03060  1.0000
  H   H1763     1.0  0.80255  0.16450  0.29212  1.0000
  C   C1032     1.0  0.94301  0.26285  0.29801  1.0000
  H   H1764     1.0  0.96046  0.23330  0.27156  1.0000
  H   H1765     1.0  0.94637  0.25811  0.24195  1.0000
  H   H1766     1.0  0.76736  0.03727  0.35775  1.0000
  H   H1767     1.0  0.76073  0.27280  0.19872  1.0000
  C   C1033     1.0  0.82657  0.43549  0.27324  1.0000
  C   C1034     1.0  0.91841  0.26328  0.27002  1.0000
  H   H1768     1.0  0.81636  0.43241  0.19171  1.0000
  H   H1769     1.0  0.93370  0.19834  0.30211  1.0000
  C   C1035     1.0  0.77379  0.30403  0.33039  1.0000
  C   C1036     1.0  0.78427  0.16844  0.29775  1.0000
  N   N76       1.0  0.84066  0.43416  0.23019  1.0000
  C   C1037     1.0  0.84229  0.41768  0.21367  1.0000
  C   C1038     1.0  0.86416  0.43381  0.23515  1.0000
  C   C1039     1.0  0.83210  0.45727  0.21859  1.0000
  C   C1040     1.0  0.82457  0.42710  0.25101  1.0000
  C   C1041     1.0  0.82056  0.41716  0.20405  1.0000
  C   C1042     1.0  0.87586  0.41061  0.24527  1.0000
  C   C1043     1.0  0.83081  0.47728  0.23151  1.0000
  H   H1770     1.0  0.80688  0.43242  0.24773  1.0000
  H   H1771     1.0  0.85556  0.42105  0.19893  1.0000
  H   H1772     1.0  0.84736  0.40004  0.22169  1.0000
  H   H1773     1.0  0.86474  0.44572  0.24688  1.0000
  H   H1774     1.0  0.87520  0.43978  0.21940  1.0000
  H   H1775     1.0  0.84263  0.46116  0.20189  1.0000
  H   H1776     1.0  0.81469  0.45791  0.21493  1.0000
  C   C1044     1.0  0.77029  0.47941  0.27317  1.0000
  H   H1777     1.0  0.82668  0.40832  0.25493  1.0000
  H   H1778     1.0  0.77969  0.17020  0.11682  1.0000
  H   H1779     1.0  0.82301  0.40240  0.19484  1.0000
  H   H1780     1.0  0.88188  0.25197  0.33159  1.0000
  H   H1781     1.0  0.88134  0.39920  0.23226  1.0000
  H   H1782     1.0  0.89128  0.41291  0.25159  1.0000
  H   H1783     1.0  0.86501  0.40224  0.25971  1.0000
  C   C1045     1.0  0.74925  0.23278  0.01407  1.0000
  C   C1046     1.0  0.77570  0.23949  0.30754  1.0000
  H   H1784     1.0  0.80952  0.26193  0.17725  1.0000
  C   C1047     1.0  0.79719  0.02792  0.33456  1.0000
  C   C1048     1.0  0.76725  0.46722  0.23779  1.0000
  H   H1785     1.0  0.80556  0.01266  0.34426  1.0000
  H   H1786     1.0  0.94281  0.24184  0.33196  1.0000
  C   C1049     1.0  0.76689  0.46263  0.26123  1.0000
  H   H1787     1.0  0.75935  0.19494  0.30994  1.0000
  S   S290      1.0  0.77651  0.20198  0.16718  1.0000
  H   H1788     1.0  0.84727  0.47926  0.23574  1.0000
  C   C1050     1.0  0.77785  0.19233  0.30443  1.0000
  H   H1789     1.0  0.80297  0.24596  0.20356  1.0000
  H   H1790     1.0  0.78303  0.31950  0.01655  1.0000
  H   H1791     1.0  0.90717  0.25381  0.26381  1.0000
  H   H1792     1.0  0.80846  0.30218  0.17163  1.0000
  N   N77       1.0  0.79212  0.12791  0.16240  1.0000
  C   C1051     1.0  0.77588  0.11439  0.17851  1.0000
  C   C1052     1.0  0.77845  0.14534  0.14723  1.0000
  C   C1053     1.0  0.80423  0.13914  0.17616  1.0000
  C   C1054     1.0  0.94875  0.20711  0.29713  1.0000
  C   C1055     1.0  0.79097  0.15562  0.12453  1.0000
  C   C1056     1.0  0.82537  0.14940  0.16407  1.0000
  C   C1057     1.0  0.78597  0.28402  0.22631  1.0000
  C   C1058     1.0  0.77132  0.03156  0.34082  1.0000
  H   H1793     1.0  0.77654  0.24983  0.23592  1.0000
  H   H1794     1.0  0.79270  0.15317  0.18349  1.0000
  H   H1795     1.0  0.99424  0.24881  0.21297  1.0000
  H   H1796     1.0  0.95740  0.26710  0.28491  1.0000
  H   H1797     1.0  0.90410  0.26854  0.32815  1.0000
  H   H1798     1.0  0.79523  0.14330  0.11233  1.0000
  H   H1799     1.0  0.83517  0.45040  0.27134  1.0000
  H   H1800     1.0  0.81321  0.08007  0.17265  1.0000
  H   H1801     1.0  0.82089  0.16693  0.15581  1.0000
  H   H1802     1.0  0.83619  0.13941  0.15171  1.0000
  C   C1059     1.0  0.79786  0.30343  0.18836  1.0000
  N   N78       1.0  0.78988  0.19738  0.32241  1.0000
  C   C1060     1.0  0.78404  0.18127  0.34367  1.0000
  H   H1803     1.0  0.79108  0.20164  0.36823  1.0000
  C   C1061     1.0  0.77919  0.28855  0.05201  1.0000
  C   C1062     1.0  0.81507  0.19383  0.31606  1.0000
  C   C1063     1.0  0.79415  0.18402  0.36460  1.0000
  C   C1064     1.0  0.76735  0.32598  0.31960  1.0000
  H   H1804     1.0  0.76668  0.16462  0.23965  1.0000
  C   C1065     1.0  0.82474  0.20788  0.29418  1.0000
  H   H1805     1.0  0.82509  0.49312  0.22055  1.0000
  H   H1806     1.0  0.78983  0.16343  0.34102  1.0000
  C   C1066     1.0  0.99533  0.23208  0.22266  1.0000
  H   H1807     1.0  0.78619  0.17353  0.37971  1.0000
  H   H1808     1.0  0.77213  0.27363  0.06213  1.0000
  H   H1809     1.0  0.79397  0.22735  0.33568  1.0000
  H   H1810     1.0  0.82330  0.19826  0.32942  1.0000
  H   H1811     1.0  0.82203  0.17571  0.31553  1.0000
  H   H1812     1.0  0.92469  0.28082  0.23572  1.0000
  H   H1813     1.0  0.80098  0.25378  0.24745  1.0000
  S   S291      1.0  0.78309  0.39269  0.26422  1.0000
  H   H1814     1.0  0.80212  0.02717  0.31617  1.0000
  S   S292      1.0  0.77398  0.05654  0.28024  1.0000
  H   H1815     1.0  0.78824  0.29898  0.08228  1.0000
  H   H1816     1.0  0.89951  0.23225  0.29945  1.0000
  H   H1817     1.0  0.84205  0.19971  0.28868  1.0000
  H   H1818     1.0  0.77854  0.15521  0.31148  1.0000
  H   H1819     1.0  0.81801  0.47629  0.24682  1.0000
  H   H1820     1.0  0.78054  0.20411  0.28847  1.0000
  H   H1821     1.0  0.93337  0.27968  0.30084  1.0000
  H   H1822     1.0  0.76866  0.29174  0.22309  1.0000
  H   H1823     1.0  0.95479  0.21014  0.31236  1.0000
  H   H1824     1.0  0.77010  0.24635  0.18925  1.0000
  C   C1067     1.0  0.99809  0.18877  0.24723  1.0000
  C   C1068     1.0  0.80147  0.32498  0.19667  1.0000
  H   H1825     1.0  0.82788  0.28868  0.22172  1.0000
  H   H1826     1.0  0.82933  0.26001  0.21910  1.0000
  C   C1069     1.0  0.77128  0.48866  0.22640  1.0000
  H   H1827     1.0  0.83633  0.14987  0.17684  1.0000
  S   S293      1.0  0.76689  0.26609  0.36068  1.0000
  H   H1828     1.0  0.83222  0.09980  0.17303  1.0000
  H   H1829     1.0  0.96214  0.19517  0.28877  1.0000
  H   H1830     1.0  0.78029  0.30638  0.18462  1.0000
  H   H1831     1.0  0.80596  0.30750  0.05596  1.0000
  C   C1070     1.0  0.78155  0.22118  0.32753  1.0000
  H   H1832     1.0  0.76567  0.34507  0.14292  1.0000
  H   H1833     1.0  0.76703  0.10520  0.16910  1.0000
  S   S294      1.0  0.75990  0.23294  0.05627  1.0000
  S   S295      1.0  0.76300  0.44664  0.22211  1.0000
  S   S296      1.0  0.75204  0.30920  0.12540  1.0000
  H   H1834     1.0  0.77326  0.27202  0.16981  1.0000
  H   H1835     1.0  0.78940  0.24010  0.29309  1.0000
  C   C1071     1.0  0.75776  0.12787  0.19397  1.0000
  S   S297      1.0  0.76831  0.34482  0.25756  1.0000
  H   H1836     1.0  0.75587  0.35860  0.18035  1.0000
  H   H1837     1.0  0.76375  0.44623  0.27020  1.0000
  Fe  Fe145     1.0  0.76222  0.40968  0.23726  1.0000
  H   H1838     1.0  0.78920  0.28253  0.03651  1.0000
  S   S298      1.0  0.74922  0.09319  0.32902  1.0000
  H   H1839     1.0  0.76565  0.04669  0.32891  1.0000
  H   H1840     1.0  0.76293  0.35356  0.00376  1.0000
  H   H1841     1.0  0.77255  0.25628  0.31333  1.0000
  C   C1072     1.0  0.75407  0.28945  0.01248  1.0000
  H   H1842     1.0  0.76585  0.22171  0.34000  1.0000
  C   C1073     1.0  0.75399  0.33702  0.15600  1.0000
  H   H1843     1.0  0.76540  0.13504  0.20599  1.0000
  H   H1844     1.0  0.75208  0.18993  0.24945  1.0000
  H   H1845     1.0  0.76760  0.27480  0.01401  1.0000
  H   H1846     1.0  0.75996  0.23717  0.30187  1.0000
  Fe  Fe146     1.0  0.75442  0.37301  0.27760  1.0000
  Fe  Fe147     1.0  0.75857  0.22525  0.14063  1.0000
  H   H1847     1.0  0.76764  0.00114  0.23993  1.0000
  S   S299      1.0  0.74895  0.06949  0.23437  1.0000
  C   C1074     1.0  0.75880  0.29362  0.34750  1.0000
  H   H1848     1.0  0.75265  0.25796  0.47399  1.0000
  C   C1075     1.0  0.74967  0.17407  0.24425  1.0000
  Fe  Fe148     1.0  0.74953  0.08472  0.29407  1.0000
  H   H1849     1.0  0.76008  0.30323  0.99964  1.0000
  C   C1076     1.0  0.74867  0.31527  0.06814  1.0000
  H   H1850     1.0  0.81860  0.31383  0.53531  1.0000
  S   S300      1.0  0.75411  0.24637  0.52149  1.0000
  Fe  Fe149     1.0  0.87682  0.28867  0.70508  1.0000
  S   S301      1.0  0.89983  0.26893  0.68018  1.0000
  S   S302      1.0  0.87705  0.32606  0.69977  1.0000
  Fe  Fe150     1.0  0.86112  0.24695  0.73389  1.0000
  S   S303      1.0  0.88338  0.22384  0.71148  1.0000
  S   S304      1.0  0.83519  0.23529  0.76302  1.0000
  Fe  Fe151     1.0  0.90993  0.24574  0.71092  1.0000
  S   S305      1.0  0.94707  0.23198  0.71059  1.0000
  Fe  Fe152     1.0  0.87131  0.24922  0.68297  1.0000
  S   S306      1.0  0.86209  0.23656  0.65324  1.0000
  S   S307      1.0  0.88860  0.26682  0.73580  1.0000
  S   S308      1.0  0.84734  0.27101  0.70540  1.0000
  H   H1851     1.0  0.80303  0.35529  0.73857  1.0000
  H   H1852     1.0  0.81554  0.32240  0.83461  1.0000
  H   H1853     1.0  0.79594  0.15134  0.80893  1.0000
  C   C1077     1.0  0.75555  0.49333  0.78357  1.0000
  Fe  Fe153     1.0  0.78390  0.12859  0.76103  1.0000
  H   H1854     1.0  0.94022  0.30737  0.73671  1.0000
  S   S309      1.0  0.81907  0.13735  0.75359  1.0000
  H   H1855     1.0  0.80325  0.23923  0.60712  1.0000
  H   H1856     1.0  0.80836  0.48503  0.73209  1.0000
  H   H1857     1.0  0.79252  0.29097  0.64956  1.0000
  C   C1078     1.0  0.81461  0.33305  0.81798  1.0000
  S   S310      1.0  0.76946  0.11703  0.79683  1.0000
  S   S311      1.0  0.77310  0.10122  0.74613  1.0000
  C   C1079     1.0  0.79530  0.26597  0.62754  1.0000
  S   S312      1.0  0.81316  0.37966  0.77218  1.0000
  H   H1858     1.0  0.79572  0.24993  0.53995  1.0000
  H   H1859     1.0  0.78196  0.20132  0.71656  1.0000
  C   C1080     1.0  0.96598  0.24444  0.72208  1.0000
  C   C1081     1.0  0.98887  0.24193  0.71281  1.0000
  H   H1860     1.0  0.83963  0.29702  0.56387  1.0000
  H   H1861     1.0  0.83345  0.26263  0.80468  1.0000
  C   C1082     1.0  0.97418  0.26707  0.74832  1.0000
  C   C1083     1.0  0.95873  0.25690  0.74003  1.0000
  H   H1862     1.0  0.76320  0.29139  0.53214  1.0000
  H   H1863     1.0  0.85212  0.30748  0.81701  1.0000
  H   H1864     1.0  0.96842  0.27674  0.76216  1.0000
  H   H1865     1.0  0.94124  0.25863  0.74754  1.0000
  C   C1084     1.0  0.83691  0.24904  0.64278  1.0000
  C   C1085     1.0  0.82978  0.23931  0.62636  1.0000
  C   C1086     1.0  0.80877  0.24730  0.61929  1.0000
  H   H1866     1.0  0.99466  0.23217  0.69902  1.0000
  C   C1087     1.0  0.74917  0.28350  0.76997  1.0000
  C   C1088     1.0  0.82339  0.26768  0.65116  1.0000
  H   H1867     1.0  0.84039  0.22527  0.61933  1.0000
  H   H1868     1.0  0.77910  0.46608  0.72260  1.0000
  H   H1869     1.0  0.94133  0.33590  0.65034  1.0000
  H   H1870     1.0  0.82891  0.27558  0.66350  1.0000
  C   C1089     1.0  0.83049  0.20793  0.76118  1.0000
  C   C1090     1.0  0.80860  0.20236  0.76581  1.0000
  C   C1091     1.0  0.80484  0.18055  0.76404  1.0000
  C   C1092     1.0  0.82302  0.16420  0.75796  1.0000
  C   C1093     1.0  0.84490  0.16963  0.75410  1.0000
  C   C1094     1.0  0.84861  0.19147  0.75550  1.0000
  H   H1871     1.0  0.79454  0.21501  0.77029  1.0000
  H   H1872     1.0  0.78792  0.17645  0.76718  1.0000
  H   H1873     1.0  0.85903  0.15704  0.74951  1.0000
  H   H1874     1.0  0.86559  0.19544  0.75248  1.0000
  C   C1095     1.0  0.83028  0.36479  0.75167  1.0000
  C   C1096     1.0  0.82109  0.35402  0.73746  1.0000
  C   C1097     1.0  0.83540  0.34154  0.72177  1.0000
  C   C1098     1.0  0.85880  0.34018  0.72014  1.0000
  C   C1099     1.0  0.86784  0.35105  0.73429  1.0000
  C   C1100     1.0  0.85363  0.36305  0.75022  1.0000
  H   H1875     1.0  0.83739  0.19806  0.65123  1.0000
  H   H1876     1.0  0.82838  0.33337  0.71062  1.0000
  H   H1877     1.0  0.88587  0.35031  0.73287  1.0000
  C   C1101     1.0  0.83231  0.28203  0.57323  1.0000
  C   C1102     1.0  0.79748  0.15301  0.82656  1.0000
  H   H1878     1.0  0.82934  0.34232  0.81318  1.0000
  H   H1879     1.0  0.75848  0.22454  0.80129  1.0000
  H   H1880     1.0  0.75748  0.29828  0.76149  1.0000
  H   H1881     1.0  0.83875  0.29355  0.52204  1.0000
  C   C1103     1.0  0.77205  0.21854  0.85594  1.0000
  C   C1104     1.0  0.75945  0.32537  0.85308  1.0000
  S   S313      1.0  0.75398  0.15391  0.75353  1.0000
  H   H1882     1.0  0.80396  0.28543  0.84273  1.0000
  H   H1883     1.0  0.84163  0.26054  0.54788  1.0000
  H   H1884     1.0  0.83490  0.16220  0.84592  1.0000
  C   C1105     1.0  0.80276  0.27634  0.64329  1.0000
  H   H1885     1.0  0.83401  0.28421  0.84109  1.0000
  C   C1106     1.0  0.80442  0.26300  0.52825  1.0000
  H   H1886     1.0  0.85805  0.31838  0.78815  1.0000
  H   H1887     1.0  0.78139  0.27527  0.56771  1.0000
  C   C1107     1.0  0.93052  0.30921  0.72248  1.0000
  H   H1888     1.0  0.80027  0.16704  0.71191  1.0000
  H   H1889     1.0  0.77312  0.31798  0.53279  1.0000
  C   C1108     1.0  0.82550  0.26782  0.55732  1.0000
  C   C1109     1.0  0.74949  0.34634  0.84296  1.0000
  H   H1890     1.0  0.77375  0.04858  0.75254  1.0000
  C   C1110     1.0  0.82272  0.27823  0.80978  1.0000
  N   N79       1.0  0.83015  0.29925  0.79553  1.0000
  H   H1891     1.0  0.79139  0.30139  0.56587  1.0000
  H   H1892     1.0  0.77601  0.31814  0.84612  1.0000
  H   H1893     1.0  0.96940  0.35659  0.67718  1.0000
  S   S314      1.0  0.77375  0.22591  0.58169  1.0000
  H   H1894     1.0  0.93281  0.35996  0.66537  1.0000
  S   S315      1.0  0.75578  0.05520  0.79904  1.0000
  H   H1895     1.0  0.81837  0.25320  0.56811  1.0000
  H   H1896     1.0  0.86876  0.17452  0.70497  1.0000
  Fe  Fe154     1.0  0.75522  0.25243  0.60221  1.0000
  C   C1111     1.0  0.82490  0.25038  0.51450  1.0000
  S   S316      1.0  0.75970  0.28621  0.88287  1.0000
  H   H1897     1.0  0.75992  0.21344  0.84677  1.0000
  H   H1898     1.0  0.86846  0.26804  0.80907  1.0000
  H   H1899     1.0  0.77838  0.22984  0.70275  1.0000
  C   C1112     1.0  0.75049  0.47579  0.77370  1.0000
  H   H1900     1.0  0.80006  0.19662  0.89183  1.0000
  H   H1901     1.0  0.83310  0.20566  0.81058  1.0000
  H   H1902     1.0  0.76798  0.21258  0.87428  1.0000
  C   C1113     1.0  0.83269  0.29610  0.77098  1.0000
  H   H1903     1.0  0.79830  0.47494  0.69839  1.0000
  H   H1904     1.0  0.92529  0.32923  0.69099  1.0000
  H   H1905     1.0  0.81266  0.33221  0.78364  1.0000
  C   C1114     1.0  0.82031  0.29905  0.52617  1.0000
  H   H1906     1.0  0.84407  0.28029  0.76774  1.0000
  H   H1907     1.0  0.77271  0.01737  0.73118  1.0000
  C   C1115     1.0  0.79678  0.21047  0.84666  1.0000
  H   H1908     1.0  0.86808  0.17831  0.67532  1.0000
  H   H1909     1.0  0.80144  0.15396  0.86975  1.0000
  C   C1116     1.0  0.83846  0.18757  0.81649  1.0000
  C   C1117     1.0  0.93773  0.32741  0.70279  1.0000
  C   C1118     1.0  0.76630  0.03387  0.76094  1.0000
  H   H1910     1.0  0.77324  0.18125  0.83443  1.0000
  H   H1911     1.0  0.79803  0.16860  0.90562  1.0000
  H   H1912     1.0  0.80742  0.21714  0.85646  1.0000
  H   H1913     1.0  0.79462  0.18872  0.81287  1.0000
  C   C1119     1.0  0.82863  0.18044  0.84133  1.0000
  H   H1914     1.0  0.78041  0.49721  0.74104  1.0000
  H   H1915     1.0  0.77756  0.17440  0.87368  1.0000
  H   H1916     1.0  0.80308  0.27988  0.77008  1.0000
  H   H1917     1.0  0.75742  0.05290  0.68974  1.0000
  H   H1918     1.0  0.79963  0.34619  0.81990  1.0000
  C   C1120     1.0  0.76880  0.30187  0.54279  1.0000
  H   H1919     1.0  0.82275  0.25905  0.84354  1.0000
  C   C1121     1.0  0.81727  0.14216  0.69176  1.0000
  H   H1920     1.0  0.82937  0.18546  0.71422  1.0000
  H   H1921     1.0  0.76368  0.12204  0.69196  1.0000
  S   S317      1.0  0.75534  0.41145  0.79007  1.0000
  N   N80       1.0  0.80950  0.28016  0.54124  1.0000
  H   H1922     1.0  0.95815  0.29833  0.65064  1.0000
  H   H1923     1.0  0.79527  0.31487  0.80261  1.0000
  H   H1924     1.0  0.79833  0.31046  0.76309  1.0000
  H   H1925     1.0  0.80441  0.13080  0.69342  1.0000
  H   H1926     1.0  0.80385  0.21885  0.71401  1.0000
  H   H1927     1.0  0.86073  0.37136  0.76120  1.0000
  H   H1928     1.0  0.81812  0.28726  0.58619  1.0000
  H   H1929     1.0  0.76923  0.23728  0.85402  1.0000
  C   C1122     1.0  0.79323  0.49569  0.72584  1.0000
  C   C1123     1.0  0.96738  0.29994  0.68380  1.0000
  C   C1124     1.0  0.81253  0.31959  0.79922  1.0000
  H   H1930     1.0  0.81207  0.32623  0.49906  1.0000
  H   H1931     1.0  0.84078  0.30996  0.75990  1.0000
  H   H1932     1.0  0.88748  0.28832  0.80178  1.0000
  S   S318      1.0  0.76011  0.39710  0.73884  1.0000
  C   C1125     1.0  0.79181  0.17817  0.82971  1.0000
  S   S319      1.0  0.75415  0.35897  0.78420  1.0000
  H   H1933     1.0  0.75825  0.07566  0.70539  1.0000
  C   C1126     1.0  0.85274  0.30329  0.79981  1.0000
  H   H1934     1.0  0.85712  0.18489  0.81479  1.0000
  H   H1935     1.0  0.84117  0.16875  0.65713  1.0000
  C   C1127     1.0  0.95195  0.29367  0.66887  1.0000
  H   H1936     1.0  0.75547  0.43224  0.84765  1.0000
  H   H1937     1.0  0.82760  0.13592  0.70556  1.0000
  C   C1128     1.0  0.76569  0.01618  0.74889  1.0000
  H   H1938     1.0  0.93413  0.30109  0.67253  1.0000
  C   C1129     1.0  0.96609  0.34121  0.67127  1.0000
  H   H1939     1.0  0.82117  0.17896  0.62550  1.0000
  H   H1940     1.0  0.97225  0.34022  0.71523  1.0000
  H   H1941     1.0  0.85678  0.15482  0.69371  1.0000
  Fe  Fe155     1.0  0.74975  0.20394  0.60314  1.0000
  H   H1942     1.0  0.80579  0.27618  0.80663  1.0000
  H   H1943     1.0  0.79991  0.21959  0.82913  1.0000
  C   C1130     1.0  0.78467  0.48123  0.71142  1.0000
  H   H1944     1.0  0.83982  0.20575  0.69214  1.0000
  H   H1945     1.0  0.84542  0.27147  0.58273  1.0000
  S   S320      1.0  0.76585  0.16983  0.61815  1.0000
  H   H1946     1.0  0.82379  0.17436  0.88830  1.0000
  Fe  Fe156     1.0  0.77621  0.38540  0.77023  1.0000
  H   H1947     1.0  0.81501  0.29348  0.74351  1.0000
  C   C1131     1.0  0.80522  0.17863  0.88975  1.0000
  H   H1948     1.0  0.78865  0.16789  0.68728  1.0000
  H   H1949     1.0  0.78149  0.13551  0.65310  1.0000
  C   C1132     1.0  0.87212  0.28354  0.79739  1.0000
  H   H1950     1.0  0.81883  0.24160  0.50255  1.0000
  H   H1951     1.0  0.83394  0.17709  0.80510  1.0000
  C   C1133     1.0  0.81152  0.18254  0.64208  1.0000
  N   N81       1.0  0.81770  0.18575  0.68242  1.0000
  C   C1134     1.0  0.80099  0.20721  0.68204  1.0000
  C   C1135     1.0  0.82805  0.18369  0.65833  1.0000
  C   C1136     1.0  0.83565  0.18818  0.69587  1.0000
  C   C1137     1.0  0.80514  0.16639  0.69346  1.0000
  C   C1138     1.0  0.79090  0.21441  0.70534  1.0000
  S   S321      1.0  0.76963  0.27705  0.61753  1.0000
  C   C1139     1.0  0.85845  0.17284  0.69206  1.0000
  N   N82       1.0  0.80335  0.18534  0.84686  1.0000
  H   H1952     1.0  0.80885  0.22166  0.67185  1.0000
  H   H1953     1.0  0.78643  0.20590  0.67369  1.0000
  N   N83       1.0  0.96166  0.32297  0.69113  1.0000
  C   C1140     1.0  0.81080  0.29499  0.76180  1.0000
  H   H1954     1.0  0.79242  0.27047  0.51626  1.0000
  H   H1955     1.0  0.87640  0.27989  0.77981  1.0000
  H   H1956     1.0  0.82761  0.13998  0.67528  1.0000
  C   C1141     1.0  0.82069  0.27703  0.83565  1.0000
  C   C1142     1.0  0.79615  0.17243  0.86970  1.0000
  H   H1957     1.0  0.91264  0.31421  0.72941  1.0000
  H   H1958     1.0  0.93465  0.34387  0.70937  1.0000
  H   H1959     1.0  0.83637  0.26187  0.50442  1.0000
  H   H1960     1.0  0.83688  0.18907  0.85178  1.0000
  C   C1143     1.0  0.78815  0.28923  0.55546  1.0000
  H   H1961     1.0  0.97505  0.31049  0.72274  1.0000
  H   H1962     1.0  0.81492  0.14548  0.82879  1.0000
  H   H1963     1.0  0.78584  0.14278  0.83845  1.0000
  H   H1964     1.0  0.77002  0.49006  0.70338  1.0000
  H   H1965     1.0  0.80129  0.16880  0.64849  1.0000
  H   H1966     1.0  0.75840  0.45869  0.77821  1.0000
  C   C1144     1.0  0.76470  0.14306  0.65938  1.0000
  C   C1145     1.0  0.97690  0.32405  0.70806  1.0000
  H   H1967     1.0  0.93146  0.29272  0.71661  1.0000
  C   C1146     1.0  0.75303  0.16037  0.64549  1.0000
  Fe  Fe157     1.0  0.75640  0.09126  0.78159  1.0000
  H   H1968     1.0  0.76713  0.48954  0.79587  1.0000
  H   H1969     1.0  0.98460  0.29773  0.67408  1.0000
  C   C1147     1.0  0.75467  0.13545  0.68133  1.0000
  H   H1970     1.0  0.75401  0.30646  0.55548  1.0000
  H   H1971     1.0  0.75879  0.35561  0.82875  1.0000
  H   H1972     1.0  0.76284  0.26959  0.77406  1.0000
  H   H1973     1.0  0.98159  0.33562  0.65979  1.0000
  H   H1974     1.0  0.80035  0.19878  0.63867  1.0000
  C   C1148     1.0  0.94731  0.34968  0.65636  1.0000
  H   H1975     1.0  0.83495  0.00955  0.73961  1.0000
  H   H1976     1.0  0.83439  0.23710  0.52568  1.0000
  H   H1977     1.0  0.95391  0.36092  0.64112  1.0000
  C   C1149     1.0  0.99692  0.26514  0.73856  1.0000
  H   H1978     1.0  0.96852  0.28650  0.69860  1.0000
  H   H1979     1.0  0.95185  0.27511  0.67233  1.0000
  C   C1150     1.0  0.75695  0.03263  0.78376  1.0000
  C   C1151     1.0  0.81181  0.30773  0.50310  1.0000
  H   H1980     1.0  0.75815  0.08111  0.67564  1.0000
  H   H1981     1.0  0.75074  0.14630  0.87510  1.0000
  H   H1982     1.0  0.79451  0.30510  0.50221  1.0000
  C   C1152     1.0  0.75121  0.07085  0.69147  1.0000
  Fe  Fe158     1.0  0.80554  0.59738  0.24439  1.0000
  S   S322      1.0  0.80430  0.57575  0.27838  1.0000
  S   S323      1.0  0.83386  0.61007  0.21943  1.0000
  S   S324      1.0  0.77482  0.70839  0.34509  1.0000
  H   H1983     1.0  0.97140  0.76122  0.30903  1.0000
  Fe  Fe159     1.0  0.77484  0.60141  0.28889  1.0000
  C   C1153     1.0  0.77021  0.77822  0.48500  1.0000
  Fe  Fe160     1.0  0.77887  0.55903  0.26668  1.0000
  S   S325      1.0  0.77832  0.62449  0.25586  1.0000
  S   S326      1.0  0.78290  0.57842  0.23165  1.0000
  Fe  Fe161     1.0  0.79608  0.71609  0.42422  1.0000
  S   S327      1.0  0.77394  0.73726  0.39984  1.0000
  S   S328      1.0  0.78053  0.70864  0.46106  1.0000
  Fe  Fe162     1.0  0.83681  0.71223  0.38836  1.0000
  S   S329      1.0  0.81846  0.73360  0.36177  1.0000
  S   S330      1.0  0.87275  0.69777  0.37751  1.0000
  Fe  Fe163     1.0  0.80348  0.75571  0.38781  1.0000
  S   S331      1.0  0.80108  0.79336  0.37776  1.0000
  Fe  Fe164     1.0  0.79035  0.71354  0.37511  1.0000
  H   H1984     1.0  0.78083  0.76151  0.48730  1.0000
  S   S332      1.0  0.82469  0.73630  0.41355  1.0000
  S   S333      1.0  0.80972  0.69025  0.40054  1.0000
  Fe  Fe165     1.0  0.92758  0.66700  0.24200  1.0000
  S   S334      1.0  0.90384  0.69845  0.23280  1.0000
  S   S335      1.0  0.91647  0.63344  0.25684  1.0000
  Fe  Fe166     1.0  0.96872  0.69174  0.23544  1.0000
  S   S336      1.0  0.94822  0.72531  0.22529  1.0000
  Fe  Fe167     1.0  0.92183  0.71443  0.25365  1.0000
  S   S337      1.0  0.90260  0.73917  0.27615  1.0000
  Fe  Fe168     1.0  0.93178  0.70663  0.20492  1.0000
  S   S338      1.0  0.92293  0.72429  0.17081  1.0000
  S   S339      1.0  0.94317  0.68239  0.26534  1.0000
  S   S340      1.0  0.95460  0.67370  0.21255  1.0000
  S   S341      1.0  0.78852  0.81107  0.22055  1.0000
  C   C1154     1.0  0.84020  0.67291  0.34351  1.0000
  Fe  Fe169     1.0  0.79788  0.73881  0.07002  1.0000
  S   S342      1.0  0.79928  0.70454  0.09117  1.0000
  S   S343      1.0  0.80442  0.74760  0.03158  1.0000
  Fe  Fe170     1.0  0.78662  0.76308  0.11146  1.0000
  S   S344      1.0  0.78663  0.73109  0.13584  1.0000
  S   S345      1.0  0.77707  0.79761  0.12201  1.0000
  Fe  Fe171     1.0  0.81786  0.71844  0.11360  1.0000
  S   S346      1.0  0.84321  0.69456  0.13278  1.0000
  Fe  Fe172     1.0  0.76816  0.71965  0.11208  1.0000
  C   C1155     1.0  0.76657  0.96616  0.23770  1.0000
  S   S347      1.0  0.81941  0.75156  0.09070  1.0000
  Fe  Fe173     1.0  0.75551  0.60424  0.24532  1.0000
  C   C1156     1.0  0.80189  0.68153  0.18530  1.0000
  C   C1157     1.0  0.96741  0.72861  0.28156  1.0000
  H   H1985     1.0  0.75001  0.71914  0.18872  1.0000
  S   S348      1.0  0.77748  0.52151  0.27791  1.0000
  C   C1158     1.0  0.87196  0.65351  0.30412  1.0000
  H   H1986     1.0  0.90676  0.64962  0.30962  1.0000
  C   C1159     1.0  0.78452  0.80707  0.19350  1.0000
  C   C1160     1.0  0.79145  0.78584  0.18644  1.0000
  C   C1161     1.0  0.77518  0.82501  0.17866  1.0000
  C   C1162     1.0  0.78014  0.80077  0.14959  1.0000
  C   C1163     1.0  0.82872  0.61166  0.31539  1.0000
  H   H1987     1.0  0.82300  0.68218  0.34233  1.0000
  H   H1988     1.0  0.79872  0.77187  0.19783  1.0000
  C   C1164     1.0  0.77428  0.68111  0.33924  1.0000
  H   H1989     1.0  0.81492  0.65680  0.30707  1.0000
  C   C1165     1.0  0.90049  0.71610  0.16057  1.0000
  C   C1166     1.0  0.89305  0.72816  0.14062  1.0000
  C   C1167     1.0  0.87487  0.72233  0.13240  1.0000
  C   C1168     1.0  0.86449  0.70392  0.14371  1.0000
  C   C1169     1.0  0.87211  0.69170  0.16349  1.0000
  C   C1170     1.0  0.88984  0.69794  0.17206  1.0000
  H   H1990     1.0  0.90147  0.74196  0.13140  1.0000
  H   H1991     1.0  0.86941  0.73156  0.11690  1.0000
  H   H1992     1.0  0.86441  0.67720  0.17210  1.0000
  H   H1993     1.0  0.89564  0.68829  0.18721  1.0000
  C   C1171     1.0  0.78053  0.80457  0.36009  1.0000
  C   C1172     1.0  0.78388  0.82325  0.34342  1.0000
  C   C1173     1.0  0.96781  0.75202  0.26673  1.0000
  C   C1174     1.0  0.89120  0.64254  0.31774  1.0000
  H   H1994     1.0  0.75262  0.62659  0.17276  1.0000
  C   C1175     1.0  0.75088  0.77559  0.45268  1.0000
  H   H1995     1.0  0.79904  0.83081  0.34160  1.0000
  C   C1176     1.0  0.77412  0.50090  0.26185  1.0000
  H   H1996     1.0  0.78869  0.99178  0.32477  1.0000
  C   C1177     1.0  0.88225  0.70968  0.34982  1.0000
  C   C1178     1.0  0.87591  0.73257  0.34218  1.0000
  C   C1179     1.0  0.88281  0.74154  0.31964  1.0000
  C   C1180     1.0  0.89523  0.72755  0.30449  1.0000
  C   C1181     1.0  0.90175  0.70473  0.31219  1.0000
  C   C1182     1.0  0.89581  0.69598  0.33498  1.0000
  H   H1997     1.0  0.86605  0.74341  0.35379  1.0000
  H   H1998     1.0  0.87863  0.75935  0.31388  1.0000
  H   H1999     1.0  0.91132  0.69377  0.30073  1.0000
  H   H2000     1.0  0.90119  0.67844  0.34103  1.0000
  H   H2001     1.0  0.85940  0.61819  0.29396  1.0000
  C   C1183     1.0  0.75962  0.98641  0.24695  1.0000
  H   H2002     1.0  0.83156  0.67871  0.30092  1.0000
  H   H2003     1.0  0.82541  0.64362  0.34380  1.0000
  C   C1184     1.0  0.77785  0.66213  0.35550  1.0000
  C   C1185     1.0  0.77659  0.64065  0.35060  1.0000
  C   C1186     1.0  0.76988  0.67846  0.31789  1.0000
  H   H2004     1.0  0.87112  0.67214  0.30222  1.0000
  C   C1187     1.0  0.76468  0.81149  0.45530  1.0000
  S   S349      1.0  0.77051  0.85846  0.26186  1.0000
  C   C1188     1.0  0.85642  0.61672  0.23031  1.0000
  C   C1189     1.0  0.86499  0.60293  0.24874  1.0000
  C   C1190     1.0  0.88397  0.60779  0.25623  1.0000
  C   C1191     1.0  0.89376  0.62697  0.24602  1.0000
  C   C1192     1.0  0.88499  0.64091  0.22777  1.0000
  C   C1193     1.0  0.86655  0.63559  0.21971  1.0000
  H   H2005     1.0  0.85745  0.58814  0.25673  1.0000
  H   H2006     1.0  0.89096  0.59679  0.27013  1.0000
  H   H2007     1.0  0.89270  0.65552  0.21958  1.0000
  H   H2008     1.0  0.86014  0.64611  0.20525  1.0000
  H   H2009     1.0  0.82118  0.66899  0.26654  1.0000
  H   H2010     1.0  0.82217  0.72561  0.46335  1.0000
  H   H2011     1.0  0.76205  0.74522  0.30687  1.0000
  C   C1194     1.0  0.79220  0.73843  0.01089  1.0000
  C   C1195     1.0  0.78483  0.71736  0.01421  1.0000
  H   H2012     1.0  0.79135  0.78437  0.42844  1.0000
  C   C1196     1.0  0.76912  0.65686  0.31281  1.0000
  H   H2013     1.0  0.78622  0.70625  0.03003  1.0000
  H   H2014     1.0  0.82544  0.65249  0.17801  1.0000
  N   N84       1.0  0.80658  0.76232  0.29495  1.0000
  C   C1197     1.0  0.80716  0.73955  0.28784  1.0000
  C   C1198     1.0  0.78638  0.76569  0.31291  1.0000
  C   C1199     1.0  0.82799  0.76151  0.30471  1.0000
  C   C1200     1.0  0.80540  0.78027  0.27447  1.0000
  C   C1201     1.0  0.82798  0.73161  0.27120  1.0000
  N   N85       1.0  0.76861  0.78610  0.46017  1.0000
  C   C1202     1.0  0.82954  0.78108  0.31729  1.0000
  C   C1203     1.0  0.79535  0.80443  0.27893  1.0000
  H   H2015     1.0  0.80607  0.72619  0.30297  1.0000
  H   H2016     1.0  0.79235  0.73935  0.27940  1.0000
  C   C1204     1.0  0.81205  0.78435  0.45348  1.0000
  H   H2017     1.0  0.78875  0.75357  0.32858  1.0000
  H   H2018     1.0  0.83114  0.74559  0.31653  1.0000
  H   H2019     1.0  0.84291  0.76094  0.29128  1.0000
  H   H2020     1.0  0.82241  0.78123  0.26453  1.0000
  H   H2021     1.0  0.79532  0.77605  0.26246  1.0000
  H   H2022     1.0  0.82551  0.71576  0.26574  1.0000
  H   H2023     1.0  0.83033  0.74420  0.25578  1.0000
  H   H2024     1.0  0.84353  0.72762  0.27927  1.0000
  H   H2025     1.0  0.76233  0.96392  0.33628  1.0000
  H   H2026     1.0  0.84243  0.68212  0.00646  1.0000
  C   C1205     1.0  0.79087  0.77790  0.44677  1.0000
  H   H2027     1.0  0.83335  0.79634  0.30534  1.0000
  H   H2028     1.0  0.84369  0.77619  0.32729  1.0000
  H   H2029     1.0  0.81470  0.78500  0.32987  1.0000
  C   C1206     1.0  0.76102  0.97658  0.32088  1.0000
  H   H2030     1.0  0.79951  0.81625  0.26329  1.0000
  H   H2031     1.0  0.75554  0.76690  0.04182  1.0000
  C   C1207     1.0  0.76777  0.83199  0.32887  1.0000
  H   H2032     1.0  0.78458  0.68631  0.19387  1.0000
  H   H2033     1.0  0.76579  0.65487  0.29635  1.0000
  H   H2034     1.0  0.86190  0.61085  0.32292  1.0000
  H   H2035     1.0  0.93392  0.76682  0.32841  1.0000
  N   N86       1.0  0.79406  0.64794  0.16782  1.0000
  C   C1208     1.0  0.80695  0.65612  0.18334  1.0000
  C   C1209     1.0  0.79902  0.62249  0.17144  1.0000
  C   C1210     1.0  0.76934  0.65566  0.17484  1.0000
  C   C1211     1.0  0.80180  0.65811  0.14389  1.0000
  C   C1212     1.0  0.82336  0.61236  0.16289  1.0000
  Fe  Fe174     1.0  0.76467  0.83990  0.23468  1.0000
  C   C1213     1.0  0.79406  0.64911  0.12457  1.0000
  H   H2036     1.0  0.80370  0.64706  0.20091  1.0000
  H   H2037     1.0  0.77895  0.62604  0.36343  1.0000
  H   H2038     1.0  0.78810  0.61468  0.16317  1.0000
  H   H2039     1.0  0.79520  0.61579  0.18976  1.0000
  C   C1214     1.0  0.76365  0.76325  0.30625  1.0000
  H   H2040     1.0  0.79629  0.67666  0.14140  1.0000
  H   H2041     1.0  0.82051  0.65643  0.14046  1.0000
  H   H2042     1.0  0.82738  0.61610  0.14422  1.0000
  H   H2043     1.0  0.83608  0.61811  0.17075  1.0000
  C   C1215     1.0  0.85102  0.62151  0.31100  1.0000
  H   H2044     1.0  0.83596  0.64109  0.27109  1.0000
  C   C1216     1.0  0.77645  0.98540  0.37231  1.0000
  H   H2045     1.0  0.80214  0.81014  0.29236  1.0000
  H   H2046     1.0  0.77975  0.66088  0.11809  1.0000
  H   H2047     1.0  0.78923  0.63205  0.12911  1.0000
  H   H2048     1.0  0.80812  0.64795  0.11033  1.0000
  H   H2049     1.0  0.76605  0.83594  0.14526  1.0000
  H   H2050     1.0  0.75695  0.95530  0.17900  1.0000
  H   H2051     1.0  0.85320  0.63703  0.34886  1.0000
  H   H2052     1.0  0.81988  0.61255  0.33282  1.0000
  H   H2053     1.0  0.83524  0.73897  0.49468  1.0000
  H   H2054     1.0  0.76113  0.77262  0.28930  1.0000
  H   H2055     1.0  0.82522  0.59372  0.16747  1.0000
  H   H2056     1.0  0.77673  0.80637  0.28301  1.0000
  C   C1217     1.0  0.76093  0.79485  0.36232  1.0000
  H   H2057     1.0  0.75556  0.75686  0.45446  1.0000
  C   C1218     1.0  0.81230  0.72431  0.47996  1.0000
  H   H2058     1.0  0.76513  0.65262  0.19366  1.0000
  H   H2059     1.0  0.96791  0.70415  0.33688  1.0000
  H   H2060     1.0  0.89499  0.62407  0.31751  1.0000
  H   H2061     1.0  0.76515  0.67419  0.16963  1.0000
  H   H2062     1.0  0.80473  0.69223  0.16870  1.0000
  H   H2063     1.0  0.77013  0.84150  0.18377  1.0000
  H   H2064     1.0  0.81730  0.61975  0.30298  1.0000
  C   C1219     1.0  0.96585  0.70516  0.31878  1.0000
  H   H2065     1.0  0.87772  0.64952  0.28667  1.0000
  H   H2066     1.0  0.93218  0.75412  0.30443  1.0000
  C   C1220     1.0  0.77491  0.50538  0.23835  1.0000
  C   C1221     1.0  0.84227  0.64880  0.33768  1.0000
  C   C1222     1.0  0.77304  0.82188  0.15677  1.0000
  H   H2067     1.0  0.94745  0.70612  0.31873  1.0000
  H   H2068     1.0  0.82714  0.77639  0.44305  1.0000
  C   C1223     1.0  0.75226  0.64472  0.16581  1.0000
  C   C1224     1.0  0.96491  0.74546  0.31724  1.0000
  H   H2069     1.0  0.77990  0.96548  0.22346  1.0000
  C   C1225     1.0  0.93902  0.75108  0.32066  1.0000
  H   H2070     1.0  0.76726  0.81762  0.43676  1.0000
  H   H2071     1.0  0.85241  0.68314  0.33282  1.0000
  H   H2072     1.0  0.84376  0.67182  0.36106  1.0000
  H   H2073     1.0  0.77085  0.96850  0.30643  1.0000
  H   H2074     1.0  0.77041  0.84639  0.31603  1.0000
  H   H2075     1.0  0.76710  0.69312  0.30526  1.0000
  H   H2076     1.0  0.78406  0.78258  0.31822  1.0000
  C   C1226     1.0  0.79192  0.71566  0.48359  1.0000
  H   H2077     1.0  0.79338  0.75916  0.44810  1.0000
  H   H2078     1.0  0.93093  0.73772  0.33244  1.0000
  H   H2079     1.0  0.77144  0.97488  0.38869  1.0000
  H   H2080     1.0  0.78112  0.66404  0.37203  1.0000
  H   H2081     1.0  0.75096  0.73119  0.04866  1.0000
  H   H2082     1.0  0.97032  0.74236  0.33432  1.0000
  N   N87       1.0  0.87068  0.78285  0.18946  1.0000
  C   C1227     1.0  0.87243  0.77952  0.16511  1.0000
  C   C1228     1.0  0.89029  0.79398  0.19185  1.0000
  C   C1229     1.0  0.84914  0.79775  0.19679  1.0000
  C   C1230     1.0  0.87086  0.76012  0.20410  1.0000
  C   C1231     1.0  0.85243  0.77047  0.15894  1.0000
  C   C1232     1.0  0.91382  0.78002  0.18724  1.0000
  C   C1233     1.0  0.84428  0.82058  0.18151  1.0000
  C   C1234     1.0  0.87284  0.75979  0.22920  1.0000
  H   H2083     1.0  0.87494  0.79544  0.15346  1.0000
  H   H2084     1.0  0.88760  0.76733  0.16042  1.0000
  H   H2085     1.0  0.88842  0.79892  0.20902  1.0000
  H   H2086     1.0  0.89081  0.81003  0.17994  1.0000
  H   H2087     1.0  0.83436  0.78879  0.19841  1.0000
  H   H2088     1.0  0.84896  0.80193  0.21399  1.0000
  H   H2089     1.0  0.85523  0.75303  0.20396  1.0000
  H   H2090     1.0  0.88475  0.74757  0.19728  1.0000
  H   H2091     1.0  0.85066  0.75323  0.16794  1.0000
  H   H2092     1.0  0.83639  0.78186  0.16198  1.0000
  H   H2093     1.0  0.85550  0.76926  0.14056  1.0000
  H   H2094     1.0  0.91816  0.77708  0.16936  1.0000
  H   H2095     1.0  0.92667  0.78957  0.19046  1.0000
  H   H2096     1.0  0.91565  0.76361  0.19846  1.0000
  H   H2097     1.0  0.82816  0.82991  0.18891  1.0000
  H   H2098     1.0  0.84208  0.81853  0.16423  1.0000
  H   H2099     1.0  0.85738  0.83143  0.18058  1.0000
  H   H2100     1.0  0.88931  0.76390  0.23138  1.0000
  H   H2101     1.0  0.87177  0.74247  0.23835  1.0000
  H   H2102     1.0  0.85915  0.77128  0.23762  1.0000
  C   C1235     1.0  0.83554  0.65860  0.27425  1.0000
  H   H2103     1.0  0.79495  0.76639  0.15906  1.0000
  H   H2104     1.0  0.77839  0.52167  0.22943  1.0000
  S   S350      1.0  0.76512  0.75289  0.08940  1.0000
  H   H2105     1.0  0.88769  0.64613  0.33540  1.0000
  H   H2106     1.0  0.85105  0.66512  0.26515  1.0000
  C   C1236     1.0  0.83207  0.66054  0.29972  1.0000
  C   C1237     1.0  0.77230  0.63792  0.32928  1.0000
  N   N88       1.0  0.84933  0.64613  0.31312  1.0000
  H   H2107     1.0  0.94995  0.72477  0.28312  1.0000
  H   H2108     1.0  0.81405  0.77800  0.47140  1.0000
  H   H2109     1.0  0.95044  0.75975  0.26386  1.0000
  S   S351      1.0  0.77076  0.61060  0.32410  1.0000
  C   C1238     1.0  0.78922  0.78268  0.16452  1.0000
  S   S352      1.0  0.76459  0.92232  0.23327  1.0000
  H   H2110     1.0  0.81236  0.80280  0.44991  1.0000
  H   H2111     1.0  0.83241  0.59349  0.31345  1.0000
  H   H2112     1.0  0.75020  0.54650  0.20972  1.0000
  H   H2113     1.0  0.81363  0.68540  0.19580  1.0000
  N   N89       1.0  0.97456  0.72578  0.30466  1.0000
  H   H2114     1.0  0.78702  0.99718  0.37578  1.0000
  H   H2115     1.0  0.76115  0.78178  0.41548  1.0000
  H   H2116     1.0  0.77885  0.78971  0.49193  1.0000
  H   H2117     1.0  0.75816  0.78047  0.37504  1.0000
  H   H2118     1.0  0.96618  0.66902  0.32017  1.0000
  H   H2119     1.0  0.97791  0.71598  0.27147  1.0000
  C   C1239     1.0  0.97671  0.68211  0.31158  1.0000
  H   H2120     1.0  0.75394  0.64725  0.14719  1.0000
  H   H2121     1.0  0.97549  0.76432  0.27321  1.0000
  H   H2122     1.0  0.77761  0.81866  0.46167  1.0000
  H   H2123     1.0  0.97743  0.74982  0.24975  1.0000
  H   H2124     1.0  0.97807  0.68209  0.29315  1.0000
  C   C1240     1.0  0.75627  0.94686  0.24658  1.0000
  H   H2125     1.0  0.75150  0.75851  0.18863  1.0000
  H   H2126     1.0  0.99363  0.67680  0.31683  1.0000
  H   H2127     1.0  0.74974  0.77011  0.31872  1.0000
  H   H2128     1.0  0.78651  0.97382  0.36087  1.0000
  C   C1241     1.0  0.81974  0.73179  0.49780  1.0000
  Fe  Fe175     1.0  0.75072  0.88892  0.24370  1.0000
  C   C1242     1.0  0.77098  0.99798  0.32226  1.0000
  S   S353      1.0  0.74922  0.58343  0.27944  1.0000
  C   C1243     1.0  0.75512  0.99825  0.36305  1.0000
  H   H2129     1.0  0.77056  0.69411  0.99935  1.0000
  Fe  Fe176     1.0  0.77452  0.77546  0.88484  1.0000
  S   S354      1.0  0.79746  0.75415  0.90779  1.0000
  S   S355      1.0  0.77218  0.81195  0.88819  1.0000
  Fe  Fe177     1.0  0.76395  0.73513  0.86772  1.0000
  S   S356      1.0  0.78545  0.71032  0.89010  1.0000
  C   C1244     1.0  0.77280  0.68576  0.83961  1.0000
  Fe  Fe178     1.0  0.77099  0.73171  0.91753  1.0000
  S   S357      1.0  0.76384  0.71536  0.95429  1.0000
  Fe  Fe179     1.0  0.81023  0.73468  0.87908  1.0000
  S   S358      1.0  0.84709  0.72168  0.87376  1.0000
  H   H2130     1.0  0.80369  0.80179  0.68319  1.0000
  S   S359      1.0  0.79006  0.75822  0.85486  1.0000
  H   H2131     1.0  0.80222  0.55343  0.67627  1.0000
  S   S360      1.0  0.77521  0.91462  0.73986  1.0000
  C   C1245     1.0  0.75578  0.62072  0.66924  1.0000
  C   C1246     1.0  0.79304  0.88188  0.68042  1.0000
  H   H2132     1.0  0.81301  0.87236  0.70745  1.0000
  Fe  Fe180     1.0  0.78541  0.89904  0.77347  1.0000
  S   S361      1.0  0.82053  0.88824  0.78179  1.0000
  S   S362      1.0  0.76007  0.87516  0.78072  1.0000
  Fe  Fe181     1.0  0.90992  0.78126  0.76468  1.0000
  S   S363      1.0  0.92992  0.80543  0.74067  1.0000
  S   S364      1.0  0.90693  0.78247  0.80189  1.0000
  Fe  Fe182     1.0  0.89858  0.75955  0.72737  1.0000
  S   S365      1.0  0.91797  0.78152  0.70010  1.0000
  S   S366      1.0  0.87819  0.73398  0.72100  1.0000
  Fe  Fe183     1.0  0.94467  0.77550  0.72308  1.0000
  Fe  Fe184     1.0  0.90179  0.80937  0.72011  1.0000
  S   S367      1.0  0.88471  0.84261  0.70427  1.0000
  S   S368      1.0  0.92657  0.75077  0.74875  1.0000
  S   S369      1.0  0.88044  0.78784  0.74577  1.0000
  Fe  Fe185     1.0  0.80677  0.74465  0.62521  1.0000
  S   S370      1.0  0.83171  0.72599  0.60080  1.0000
  S   S371      1.0  0.81716  0.76977  0.64368  1.0000
  Fe  Fe186     1.0  0.76880  0.72157  0.61816  1.0000
  S   S372      1.0  0.79077  0.70033  0.59363  1.0000
  H   H2133     1.0  0.83634  0.83772  0.70727  1.0000
  Fe  Fe187     1.0  0.81575  0.69584  0.61785  1.0000
  S   S373      1.0  0.83893  0.66362  0.62569  1.0000
  Fe  Fe188     1.0  0.80478  0.73221  0.57834  1.0000
  S   S374      1.0  0.81591  0.74223  0.54072  1.0000
  S   S375      1.0  0.79261  0.71391  0.64387  1.0000
  S   S376      1.0  0.78098  0.75406  0.60127  1.0000
  C   C1247     1.0  0.80714  0.73030  0.51955  1.0000
  C   C1248     1.0  0.86824  0.94631  0.77820  1.0000
  C   C1249     1.0  0.82834  0.98370  0.76860  1.0000
  H   H2134     1.0  0.75204  0.77153  0.51890  1.0000
  C   C1250     1.0  0.78721  0.72083  0.52342  1.0000
  H   H2135     1.0  0.81644  0.93320  0.79987  1.0000
  H   H2136     1.0  0.75836  0.81553  0.84361  1.0000
  H   H2137     1.0  0.77733  0.71964  0.54006  1.0000
  H   H2138     1.0  0.86474  0.67775  0.68118  1.0000
  H   H2139     1.0  0.82455  0.53754  0.65998  1.0000
  C   C1251     1.0  0.78205  0.74559  0.97269  1.0000
  C   C1252     1.0  0.81524  0.61184  0.68494  1.0000
  C   C1253     1.0  0.80764  0.63483  0.68574  1.0000
  C   C1254     1.0  0.81480  0.65106  0.66760  1.0000
  C   C1255     1.0  0.82973  0.64423  0.64892  1.0000
  C   C1256     1.0  0.83780  0.62134  0.64862  1.0000
  C   C1257     1.0  0.83045  0.60521  0.66645  1.0000
  H   H2140     1.0  0.80892  0.66878  0.66813  1.0000
  H   H2141     1.0  0.84948  0.61602  0.63431  1.0000
  H   H2142     1.0  0.83649  0.58751  0.66578  1.0000
  C   C1258     1.0  0.86009  0.74439  0.70060  1.0000
  C   C1259     1.0  0.85915  0.76664  0.68959  1.0000
  C   C1260     1.0  0.84558  0.77427  0.67246  1.0000
  C   C1261     1.0  0.83295  0.75976  0.66612  1.0000
  C   C1262     1.0  0.83360  0.73759  0.67740  1.0000
  C   C1263     1.0  0.84697  0.73001  0.69475  1.0000
  H   H2143     1.0  0.86920  0.77787  0.69397  1.0000
  H   H2144     1.0  0.84539  0.79128  0.66356  1.0000
  H   H2145     1.0  0.82422  0.72615  0.67244  1.0000
  H   H2146     1.0  0.84763  0.71279  0.70323  1.0000
  H   H2147     1.0  0.81966  0.67408  0.93296  1.0000
  C   C1264     1.0  0.83960  0.87726  0.75995  1.0000
  C   C1265     1.0  0.83784  0.88566  0.73726  1.0000
  C   C1266     1.0  0.85265  0.87577  0.72007  1.0000
  C   C1267     1.0  0.86866  0.85707  0.72560  1.0000
  C   C1268     1.0  0.87086  0.84922  0.74829  1.0000
  C   C1269     1.0  0.85659  0.85956  0.76541  1.0000
  H   H2148     1.0  0.82510  0.89972  0.73295  1.0000
  H   H2149     1.0  0.85129  0.88213  0.70249  1.0000
  H   H2150     1.0  0.88357  0.83514  0.75267  1.0000
  H   H2151     1.0  0.85844  0.85346  0.78287  1.0000
  H   H2152     1.0  0.78572  0.63112  0.63098  1.0000
  H   H2153     1.0  0.84806  0.98241  0.73363  1.0000
  H   H2154     1.0  0.78077  0.75676  0.95689  1.0000
  H   H2155     1.0  0.78032  0.68978  0.85301  1.0000
  C   C1270     1.0  0.86344  0.73797  0.85274  1.0000
  C   C1271     1.0  0.88582  0.73808  0.85509  1.0000
  C   C1272     1.0  0.89921  0.75138  0.83903  1.0000
  C   C1273     1.0  0.89069  0.76372  0.81989  1.0000
  C   C1274     1.0  0.86851  0.76299  0.81697  1.0000
  C   C1275     1.0  0.85465  0.75064  0.83379  1.0000
  H   H2156     1.0  0.89270  0.72832  0.86966  1.0000
  H   H2157     1.0  0.91625  0.75214  0.84143  1.0000
  H   H2158     1.0  0.86179  0.77288  0.80236  1.0000
  H   H2159     1.0  0.83730  0.75081  0.83203  1.0000
  H   H2160     1.0  0.82482  0.84042  0.65950  1.0000
  C   C1276     1.0  0.75342  0.67454  0.80499  1.0000
  C   C1277     1.0  0.79086  0.75240  0.99003  1.0000
  C   C1278     1.0  0.84365  0.99310  0.74718  1.0000
  Fe  Fe189     1.0  0.77928  0.59957  0.73511  1.0000
  H   H2161     1.0  0.83484  0.76855  0.93998  1.0000
  C   C1279     1.0  0.77766  0.53600  0.71543  1.0000
  C   C1280     1.0  0.77104  0.65959  0.81382  1.0000
  H   H2162     1.0  0.80270  0.85663  0.74639  1.0000
  C   C1281     1.0  0.79448  0.83129  0.72780  1.0000
  H   H2163     1.0  0.83107  0.51452  0.72638  1.0000
  H   H2164     1.0  0.86644  0.93679  0.79558  1.0000
  H   H2165     1.0  0.75063  0.85514  0.89749  1.0000
  C   C1282     1.0  0.80603  0.83820  0.74590  1.0000
  C   C1283     1.0  0.75531  0.70081  0.83084  1.0000
  H   H2166     1.0  0.77597  0.83549  0.73292  1.0000
  C   C1284     1.0  0.81077  0.51764  0.69099  1.0000
  H   H2167     1.0  0.78256  0.66091  0.63301  1.0000
  H   H2168     1.0  0.82889  0.81391  0.69992  1.0000
  H   H2169     1.0  0.86980  0.96405  0.77891  1.0000
  H   H2170     1.0  0.90572  0.71543  0.92320  1.0000
  H   H2171     1.0  0.98341  0.79091  0.74646  1.0000
  H   H2172     1.0  0.77446  0.72630  0.72562  1.0000
  H   H2173     1.0  0.77324  0.76080  0.70020  1.0000
  H   H2174     1.0  0.79903  0.83005  0.76284  1.0000
  H   H2175     1.0  0.82443  0.83245  0.74374  1.0000
  H   H2176     1.0  0.88434  0.93857  0.76913  1.0000
  H   H2177     1.0  0.81093  0.70352  0.93260  1.0000
  H   H2178     1.0  0.80808  0.93569  0.76219  1.0000
  N   N90       1.0  0.83203  0.70650  0.79122  1.0000
  C   C1285     1.0  0.83126  0.70132  0.81658  1.0000
  C   C1286     1.0  0.82312  0.73118  0.78528  1.0000
  C   C1287     1.0  0.85572  0.70195  0.77919  1.0000
  C   C1288     1.0  0.81797  0.69161  0.78400  1.0000
  C   C1289     1.0  0.84256  0.67767  0.82596  1.0000
  C   C1290     1.0  0.79750  0.73783  0.79163  1.0000
  C   C1291     1.0  0.87288  0.71496  0.78550  1.0000
  C   C1292     1.0  0.81623  0.69497  0.75846  1.0000
  H   H2179     1.0  0.83905  0.71372  0.82303  1.0000
  H   H2180     1.0  0.81359  0.70304  0.82519  1.0000
  H   H2181     1.0  0.82765  0.73721  0.76692  1.0000
  H   H2182     1.0  0.83130  0.74175  0.79383  1.0000
  H   H2183     1.0  0.86235  0.68362  0.78178  1.0000
  H   H2184     1.0  0.85608  0.70642  0.76055  1.0000
  H   H2185     1.0  0.82481  0.67349  0.78831  1.0000
  H   H2186     1.0  0.80070  0.69289  0.79369  1.0000
  H   H2187     1.0  0.84066  0.67626  0.84470  1.0000
  H   H2188     1.0  0.83445  0.66398  0.82225  1.0000
  H   H2189     1.0  0.86087  0.67489  0.81988  1.0000
  H   H2190     1.0  0.79179  0.73288  0.80990  1.0000
  H   H2191     1.0  0.79323  0.75647  0.78798  1.0000
  H   H2192     1.0  0.78779  0.73049  0.78153  1.0000
  H   H2193     1.0  0.88969  0.70992  0.77588  1.0000
  H   H2194     1.0  0.87464  0.71113  0.80371  1.0000
  H   H2195     1.0  0.86867  0.73344  0.78057  1.0000
  H   H2196     1.0  0.82994  0.68376  0.74951  1.0000
  H   H2197     1.0  0.81686  0.71253  0.75004  1.0000
  H   H2198     1.0  0.79976  0.69081  0.75619  1.0000
  H   H2199     1.0  0.81960  0.53059  0.76144  1.0000
  H   H2200     1.0  0.85498  0.94735  0.74741  1.0000
  H   H2201     1.0  0.81815  0.54306  0.72142  1.0000
  H   H2202     1.0  0.85123  0.82869  0.66748  1.0000
  H   H2203     1.0  0.79260  0.96278  0.76469  1.0000
  H   H2204     1.0  0.79605  0.64004  0.70012  1.0000
  H   H2205     1.0  0.78389  0.87270  0.71570  1.0000
  H   H2206     1.0  0.77576  0.88108  0.67732  1.0000
  H   H2207     1.0  0.76796  0.84240  0.69520  1.0000
  C   C1293     1.0  0.84452  0.75328  0.94859  1.0000
  H   H2208     1.0  0.79418  0.65379  0.83811  1.0000
  H   H2209     1.0  0.76824  0.65920  0.67049  1.0000
  N   N91       1.0  0.85085  0.70985  0.95053  1.0000
  C   C1294     1.0  0.74978  0.66126  0.67066  1.0000
  C   C1295     1.0  0.84592  0.69174  0.93866  1.0000
  C   C1296     1.0  0.87597  0.70942  0.94755  1.0000
  C   C1297     1.0  0.84211  0.70605  0.97549  1.0000
  H   H2210     1.0  0.78180  0.55348  0.71165  1.0000
  H   H2211     1.0  0.82081  0.73291  0.94434  1.0000
  C   C1298     1.0  0.88743  0.71595  0.92307  1.0000
  C   C1299     1.0  0.82551  0.83267  0.69657  1.0000
  H   H2212     1.0  0.83906  0.75314  0.96702  1.0000
  H   H2213     1.0  0.77874  0.65178  0.60767  1.0000
  H   H2214     1.0  0.85575  0.67511  0.94416  1.0000
  H   H2215     1.0  0.85135  0.69538  0.92011  1.0000
  N   N92       1.0  0.79861  0.51874  0.71471  1.0000
  H   H2216     1.0  0.88447  0.69225  0.95344  1.0000
  C   C1300     1.0  0.80633  0.52557  0.75362  1.0000
  H   H2217     1.0  0.79655  0.76871  0.98730  1.0000
  H   H2218     1.0  0.84304  0.73463  0.92156  1.0000
  C   C1301     1.0  0.81709  0.54019  0.67753  1.0000
  H   H2219     1.0  0.88099  0.73331  0.91558  1.0000
  C   C1302     1.0  0.75201  0.83107  0.85045  1.0000
  H   H2220     1.0  0.83000  0.54644  0.68475  1.0000
  H   H2221     1.0  0.84772  0.71814  0.98448  1.0000
  H   H2222     1.0  0.80009  0.95547  0.72581  1.0000
  C   C1303     1.0  0.83586  0.84064  0.67215  1.0000
  Fe  Fe190     1.0  0.76660  0.61800  0.78007  1.0000
  C   C1304     1.0  0.82096  0.68863  0.94129  1.0000
  H   H2223     1.0  0.76845  0.53528  0.73294  1.0000
  C   C1305     1.0  0.81450  0.52565  0.72804  1.0000
  C   C1306     1.0  0.78064  0.66531  0.83114  1.0000
  N   N93       1.0  0.82668  0.95880  0.77209  1.0000
  H   H2224     1.0  0.83175  0.95253  0.80740  1.0000
  C   C1307     1.0  0.84877  0.94424  0.76573  1.0000
  C   C1308     1.0  0.80952  0.95402  0.75899  1.0000
  S   S377      1.0  0.78571  0.58520  0.77026  1.0000
  H   H2225     1.0  0.78209  0.96352  0.80030  1.0000
  C   C1309     1.0  0.75576  0.99715  0.75955  1.0000
  H   H2226     1.0  0.99182  0.70535  0.76104  1.0000
  H   H2227     1.0  0.77398  0.62145  0.66837  1.0000
  C   C1310     1.0  0.77583  0.64787  0.62642  1.0000
  H   H2228     1.0  0.76732  0.52870  0.68410  1.0000
  H   H2229     1.0  0.79367  0.95810  0.82589  1.0000
  H   H2230     1.0  0.84651  0.92608  0.76886  1.0000
  H   H2231     1.0  0.74964  0.61639  0.68758  1.0000
  C   C1311     1.0  0.78656  0.80998  0.68916  1.0000
  C   C1312     1.0  0.77481  0.72451  0.97587  1.0000
  C   C1313     1.0  0.79808  0.86706  0.70284  1.0000
  H   H2232     1.0  0.88051  0.72059  0.95832  1.0000
  H   H2233     1.0  0.86253  0.75533  0.94433  1.0000
  H   H2234     1.0  0.82963  0.95283  0.72493  1.0000
  H   H2235     1.0  0.79850  0.98307  0.80672  1.0000
  C   C1314     1.0  0.75398  0.60021  0.65812  1.0000
  S   S378      1.0  0.75105  0.53684  0.79192  1.0000
  H   H2236     1.0  0.79361  0.89978  0.68177  1.0000
  C   C1315     1.0  0.77960  0.71363  0.50548  1.0000
  H   H2237     1.0  0.81318  0.68505  0.95916  1.0000
  H   H2238     1.0  0.78912  0.84308  0.67145  1.0000
  S   S379      1.0  0.76395  0.92525  0.79253  1.0000
  H   H2239     1.0  0.80536  0.87745  0.66568  1.0000
  N   N94       1.0  0.89481  0.71026  0.63621  1.0000
  C   C1316     1.0  0.88984  0.69616  0.65910  1.0000
  C   C1317     1.0  0.91854  0.71529  0.63401  1.0000
  C   C1318     1.0  0.89278  0.69650  0.61828  1.0000
  C   C1319     1.0  0.87780  0.73142  0.63551  1.0000
  C   C1320     1.0  0.86867  0.68435  0.66293  1.0000
  C   C1321     1.0  0.92277  0.72934  0.65146  1.0000
  C   C1322     1.0  0.90447  0.70345  0.59406  1.0000
  C   C1323     1.0  0.88097  0.75013  0.61507  1.0000
  H   H2240     1.0  0.90419  0.68255  0.66231  1.0000
  H   H2241     1.0  0.88781  0.70651  0.67301  1.0000
  H   H2242     1.0  0.92415  0.72443  0.61711  1.0000
  H   H2243     1.0  0.93054  0.69924  0.63538  1.0000
  H   H2244     1.0  0.90000  0.67850  0.62298  1.0000
  H   H2245     1.0  0.87475  0.69631  0.61712  1.0000
  H   H2246     1.0  0.86063  0.72729  0.63607  1.0000
  H   H2247     1.0  0.87646  0.73936  0.65097  1.0000
  H   H2248     1.0  0.85358  0.69577  0.65793  1.0000
  H   H2249     1.0  0.87163  0.66959  0.65370  1.0000
  H   H2250     1.0  0.91221  0.74616  0.65035  1.0000
  H   H2251     1.0  0.92016  0.72043  0.66905  1.0000
  H   H2252     1.0  0.94058  0.73237  0.64789  1.0000
  H   H2253     1.0  0.89943  0.72130  0.58732  1.0000
  H   H2254     1.0  0.89959  0.69324  0.58258  1.0000
  H   H2255     1.0  0.92306  0.69969  0.59296  1.0000
  H   H2256     1.0  0.87195  0.74789  0.60134  1.0000
  H   H2257     1.0  0.89867  0.75171  0.60821  1.0000
  H   H2258     1.0  0.87372  0.76673  0.62056  1.0000
  H   H2259     1.0  0.80315  0.50868  0.76261  1.0000
  C   C1324     1.0  0.83933  0.73229  0.94038  1.0000
  C   C1325     1.0  0.78576  0.83543  0.68942  1.0000
  H   H2260     1.0  0.84083  0.85766  0.67062  1.0000
  H   H2261     1.0  0.83481  0.98797  0.78325  1.0000
  H   H2262     1.0  0.78613  0.73975  0.68337  1.0000
  S   S380      1.0  0.78272  0.63426  0.80305  1.0000
  N   N95       1.0  0.83461  0.82667  0.84334  1.0000
  C   C1326     1.0  0.83266  0.82066  0.86872  1.0000
  C   C1327     1.0  0.82858  0.85193  0.83780  1.0000
  C   C1328     1.0  0.85820  0.81968  0.83221  1.0000
  C   C1329     1.0  0.81902  0.81433  0.83484  1.0000
  C   C1330     1.0  0.84018  0.79566  0.87789  1.0000
  C   C1331     1.0  0.80332  0.86130  0.84241  1.0000
  C   C1332     1.0  0.87681  0.82982  0.83963  1.0000
  C   C1333     1.0  0.81775  0.81955  0.80916  1.0000
  H   H2263     1.0  0.84227  0.83103  0.87593  1.0000
  H   H2264     1.0  0.81499  0.82492  0.87668  1.0000
  H   H2265     1.0  0.83478  0.85801  0.81987  1.0000
  H   H2266     1.0  0.83730  0.86079  0.84761  1.0000
  H   H2267     1.0  0.86272  0.80109  0.83503  1.0000
  H   H2268     1.0  0.85960  0.82419  0.81350  1.0000
  H   H2269     1.0  0.82426  0.79579  0.83827  1.0000
  H   H2270     1.0  0.80169  0.81682  0.84431  1.0000
  H   H2271     1.0  0.83767  0.79361  0.89667  1.0000
  H   H2272     1.0  0.82988  0.78420  0.87333  1.0000
  H   H2273     1.0  0.85828  0.79008  0.87239  1.0000
  H   H2274     1.0  0.79342  0.85586  0.83109  1.0000
  H   H2275     1.0  0.79603  0.85658  0.86028  1.0000
  H   H2276     1.0  0.80118  0.88003  0.83890  1.0000
  H   H2277     1.0  0.87811  0.82447  0.85784  1.0000
  H   H2278     1.0  0.87447  0.84848  0.83563  1.0000
  H   H2279     1.0  0.89326  0.82348  0.83007  1.0000
  H   H2280     1.0  0.83031  0.80766  0.79982  1.0000
  H   H2281     1.0  0.82043  0.83694  0.80160  1.0000
  H   H2282     1.0  0.80059  0.81803  0.80625  1.0000
  H   H2283     1.0  0.77248  0.76558  0.67025  1.0000
  H   H2284     1.0  0.79114  0.53812  0.75679  1.0000
  C   C1334     1.0  0.81887  0.95133  0.79688  1.0000
  H   H2285     1.0  0.88586  0.70391  0.91178  1.0000
  H   H2286     1.0  0.79820  0.81256  0.72966  1.0000
  H   H2287     1.0  0.76426  0.58514  0.66634  1.0000
  S   S381      1.0  0.80538  0.59064  0.70587  1.0000
  S   S382      1.0  0.98169  0.76712  0.70874  1.0000
  H   H2288     1.0  0.77561  0.80776  0.67702  1.0000
  H   H2289     1.0  0.84185  0.66917  0.98236  1.0000
  H   H2290     1.0  0.81124  0.99378  0.76842  1.0000
  N   N96       1.0  0.80118  0.84171  0.70363  1.0000
  C   C1335     1.0  0.79707  0.96497  0.80765  1.0000
  C   C1336     1.0  0.76006  0.53433  0.70051  1.0000
  C   C1337     1.0  0.75576  0.83319  0.87211  1.0000
  H   H2291     1.0  0.77997  0.80111  0.70587  1.0000
  H   H2292     1.0  0.86762  0.67774  0.98688  1.0000
  H   H2293     1.0  0.76388  0.70686  0.50849  1.0000
  S   S383      1.0  0.76305  0.63337  0.74423  1.0000
  H   H2294     1.0  0.81148  0.97961  0.72858  1.0000
  H   H2295     1.0  0.98967  0.73511  0.75607  1.0000
  H   H2296     1.0  0.82343  0.70954  0.97848  1.0000
  C   C1338     1.0  0.81339  0.96100  0.73315  1.0000
  C   C1339     1.0  0.77127  0.75286  0.68576  1.0000
  H   H2297     1.0  0.75493  0.72348  0.68813  1.0000
  H   H2298     1.0  0.75065  0.55143  0.69609  1.0000
  Fe  Fe191     1.0  0.75202  0.93995  0.75937  1.0000
  C   C1340     1.0  0.75035  0.64831  0.63445  1.0000
  C   C1341     1.0  0.84911  0.68231  0.98819  1.0000
  Fe  Fe192     1.0  0.75226  0.57305  0.77475  1.0000
  H   H2299     1.0  0.82657  0.50534  0.69139  1.0000
  S   S384      1.0  0.75311  0.97651  0.74325  1.0000
  C   C1342     1.0  0.75960  0.73202  0.73766  1.0000
  H   H2300     1.0  0.80094  0.51107  0.68044  1.0000
  C   C1343     1.0  0.74967  0.74196  0.68815  1.0000
  H   H2301     1.0  0.76049  0.74898  0.74145  1.0000
  H   H2302     1.0  0.76082  0.60221  0.63987  1.0000
  H   H2303     1.0  0.76072  0.72023  0.75376  1.0000
  C   C1344     1.0  0.77611  0.71047  0.99676  1.0000
  H   H2304     1.0  0.85936  0.99690  0.75177  1.0000
