data_image0
_chemical_formula_structural       FeS2HFeS2C2H3FeS2FeS2FeSFeS3FeS2HSH2FeH2NHC6H4C6H5C2H5CH2C6H6CH3NC4H9NC4HC3H9CH6CH2NC8H21C3HC3H2CH2SCHSHCSCHCH3CFeHC2HC2H4CH2C2HCH3CH2FeHNH2NC2H3SH2SC2H4NH4CH2C3HFeCSHSCH2CHFeCHSCH6CHC2H2SCH6C2FeH4S2FeS2HS2FeS2FeS2FeSFeS3FeS2C6H4C6H4CHC3H3C3H2C6H5CH2C2H3SH4NC3H2CHFeC2H2CH4C3NCH3FeH5CH2NC7H25C4H2C3HNH3CH2CHCH3CH4NHCHCHCH3CH3CHCHSH2C2H2NHCH5C2FeH10CH4C2H2CHCHCNH3CSHSH2CH2SHCS3FeH2FeHC3SH3FeH2CFeH2CH2CHSFeH3C2HC2HSCH4CHCH5CSCH4CHC2NHCH5C2H2FeHCHCHC2H3CHCH2CH3SHCH3C4H3CHSH2C2HFeH4S2HSNCSHSHNCH3FeSH8CFeCFeSCHCFeC2H2SHCHCH2CHC3HC2FeH4CHC2HC2SCHCSCFeC2SH2NSH3S2C2FeH4C2H3CH2CHSH2CHC3HFeHSFeS2FeS2FeSFeS3CS2CSH2S2HCHFeHSH2CNH10CHC3H2C6H4C6H5C3H2CHC6H5NC2SC3HCH10CH3CFeHCH2NC6HCH14NCHC2H2C2HCH6CSH12SH2NC5H5CH4C3H2CSC2HCH4CH4CH2C2HCHCH2SC2H8CH5CH9CH5CFeS2CHC2HCFeS2FeHC3HFeS2HS3CHC9H4CH3C2H2SFeH2FeSCSC2HC8H2CFeHSCHS2HCH4NC8H13CHSH6FeH3NCH4CH3FeHSC2H3NH7C2HCHCH3C2H4NC5SCHNC3HCH2CH7FeCH3C2H3CH3FeH4SH3CHCHCHC2HSH2CH2FeSCFeS2H2C2H2FeS2CFeS2C6H11C2SC3HC2H3CH2C4HCHC4H2SHFeNC4HC3H10CH9CHCHCH2SH5CH4CHFeS2CHNCHCHCH3CH4FeCHNCHC2H2CSH6C2FeSCHCFeHCHC2H4NH2CH3C3HCH2SH7CH2C2HSHC2NFeS2FeCSCHCHC3FeH5C6H6NHCH2C2HCH7CH2C3H5FeCSHSCH5CSHSH4NH2SHFeS2FeS2C7H4C2HCH10C2H17CH8NC2HCHCHC3HFeCH2CHCHCH3C2SCHCFeC2H2C3HSH3CNSC2FeS2HCH2CHFeCSH2CH2C6H4C2H2CHCH4CHCNHNCHCFeH4CSH12CHSH2CH2S2HC2HSHCH3CHFeS2FeHSCHC6H9CSH10CHC2H2CSHNHNC8H4FeH11CH2CHCH2SCHCH5FeS2FeH2CH7S2FeS2HCHS2HFeS2CH2C6H4CH2CHC2HC4H2C3HC2FeC3HCH7SC2HCH7CNC2HCH6CSH2CHC3SCH3CH3SHFeNC7HCH6FeH8NCHCHC3H8CH3CHCH3CH2CH4NFeHCHCHFeSH2C2HSCH4C3H2SHCH3CH3CHNCH4SHCHC2SC3HCFeS2HSCFeHCFeS2H2SHSFeH5CHCH2C3H2C2HC2H2CHSHC6H4CH2CNFeH5CH5CHSC2H2SC3NCHCH2SH2CH2NCH2SC2HCHCHCH7C3H3CHFeH2FeSH2SHC4H3CH4C2HCFeH4FeHSFeS3CFeH2CFeS2FeS2FeS2FeSFeS3FeS2HCH2CHFe2SHC2H2C6H4C6H8C6H4C7H2CHC4NC8H3CH7SH4FeH3CH7FeCHCNCHCHC2H9CHCHCS2CH2CH4NHCH2SCH4CH2NC2H2CH2SHCH5CHCH6SH2CS2H2SH2CSHFeS2FeSHFeS2FeS2FeSFeS3FeS2H4C6H4C6H5CH2CHC2H4C7H4C7H2CH3SHCHCH3CHNC7H18CHCH2CSHCH5NSCH3CHFeC3H5FeCHSH2C3H2CNH2C2HC2H7SH2SH3C2SH4NC8H16C2H3NH3FeC2H2NCSCSH4C3H8SH2NCH6C3H7FeH2CHCHCHCH4CFeS2H2C2HFeCSCH3SFeS2FeS2FeSFeS3H4Fe2S2FeS2FeHC9H4C6H4C6H4C8H4C2HCH7CH6CH2CNHCSH2SCNCSCH2SHCH4CFeH2CH4SC2HCH2C2SHCH5CHCHCH3NC8H21CSHC2H2CH3CNCH4C2H9SH2CSCSH7SHCH2NHCHFeH2NC2H3FeH4SC2HCH3FeH2CH5FeS2FeS2FeS2FeSFeS3CHFeH3FeS2H2S2HSH2CSHC4H2C6H4C6H5CH4C3H3C6H5SCHCHNCH2FeCHC2H3CHC2HNH2SCH2CH9SCH5C3HCH2CH4FeH3SHC5H9NCHC2HCH3CFeCH2CHCH6CH2CHC2HCHCHC2SHC2HNH5FeC2HC2H2NHC5H3NH2CH11CH3CH2C2FeH2SHCHCH2SH3
_chemical_formula_sum              "Fe144 S288 H1728 C1008 N72"
_cell_length_a       54.7448
_cell_length_b       54.6732
_cell_length_c       69.5462
_cell_angle_alpha    91.2966
_cell_angle_beta     93.1404
_cell_angle_gamma    118.084

_space_group_name_H-M_alt    "P 1"
_space_group_IT_number       1

loop_
  _space_group_symop_operation_xyz
  'x, y, z'

loop_
  _atom_site_type_symbol
  _atom_site_label
  _atom_site_symmetry_multiplicity
  _atom_site_fract_x
  _atom_site_fract_y
  _atom_site_fract_z
  _atom_site_occupancy
  Fe  Fe1       1.0  0.30387  0.38110  0.21221  1.0000
  S   S1        1.0  0.31755  0.42675  0.21859  1.0000
  S   S2        1.0  0.29730  0.36770  0.17972  1.0000
  H   H1        1.0  0.20868  0.04009  0.03772  1.0000
  Fe  Fe2       1.0  0.04380  0.37720  0.22302  1.0000
  S   S3        1.0  0.08671  0.41348  0.22769  1.0000
  S   S4        1.0  0.02980  0.36778  0.19078  1.0000
  C   C1        1.0  0.02572  0.47064  0.18243  1.0000
  C   C2        1.0  0.08251  0.20620  0.01456  1.0000
  H   H2        1.0  0.21743  0.37722  0.23904  1.0000
  H   H3        1.0  0.05591  0.26355  0.02143  1.0000
  H   H4        1.0  0.00612  0.40600  0.17135  1.0000
  Fe  Fe3       1.0  0.22819  0.23488  0.09820  1.0000
  S   S5        1.0  0.18360  0.20147  0.09360  1.0000
  S   S6        1.0  0.24445  0.25178  0.12948  1.0000
  Fe  Fe4       1.0  0.23687  0.23103  0.05502  1.0000
  S   S7        1.0  0.19326  0.19798  0.04759  1.0000
  S   S8        1.0  0.26823  0.24750  0.03235  1.0000
  Fe  Fe5       1.0  0.18181  0.22352  0.06717  1.0000
  S   S9        1.0  0.14931  0.23585  0.05737  1.0000
  Fe  Fe6       1.0  0.19903  0.17855  0.07453  1.0000
  S   S10       1.0  0.17989  0.13137  0.07427  1.0000
  S   S11       1.0  0.22531  0.25839  0.07284  1.0000
  S   S12       1.0  0.24374  0.21007  0.08089  1.0000
  Fe  Fe7       1.0  0.01239  0.21043  0.09770  1.0000
  S   S13       1.0  0.01612  0.25298  0.09695  1.0000
  S   S14       1.0  0.04686  0.20119  0.10804  1.0000
  H   H5        1.0  0.04289  0.17415  0.02039  1.0000
  S   S15       1.0  0.24379  0.05980  0.08058  1.0000
  H   H6        1.0  0.15033  0.03329  0.08970  1.0000
  H   H7        1.0  0.00534  0.45403  0.17636  1.0000
  Fe  Fe8       1.0  0.22013  0.01263  0.08060  1.0000
  H   H8        1.0  0.34286  0.47776  0.24541  1.0000
  H   H9        1.0  0.08645  0.21042  0.03043  1.0000
  N   N1        1.0  0.23009  0.05275  0.01150  1.0000
  H   H10       1.0  0.41883  0.00244  0.15525  1.0000
  C   C3        1.0  0.19901  0.11273  0.07423  1.0000
  C   C4        1.0  0.22726  0.12511  0.08028  1.0000
  C   C5        1.0  0.24092  0.10879  0.08180  1.0000
  C   C6        1.0  0.22644  0.07999  0.07743  1.0000
  C   C7        1.0  0.19843  0.06785  0.07084  1.0000
  C   C8        1.0  0.18485  0.08414  0.06916  1.0000
  H   H11       1.0  0.23843  0.14712  0.08421  1.0000
  H   H12       1.0  0.26267  0.11844  0.08679  1.0000
  H   H13       1.0  0.18713  0.04587  0.06710  1.0000
  H   H14       1.0  0.16314  0.07448  0.06410  1.0000
  C   C9        1.0  0.12005  0.22487  0.07082  1.0000
  C   C10       1.0  0.11423  0.20476  0.08441  1.0000
  C   C11       1.0  0.09138  0.19726  0.09556  1.0000
  C   C12       1.0  0.07404  0.20950  0.09294  1.0000
  C   C13       1.0  0.07958  0.22927  0.07913  1.0000
  C   C14       1.0  0.10270  0.23710  0.06821  1.0000
  H   H15       1.0  0.12729  0.19499  0.08635  1.0000
  H   H16       1.0  0.08709  0.18191  0.10623  1.0000
  H   H17       1.0  0.06647  0.23904  0.07730  1.0000
  H   H18       1.0  0.10752  0.25305  0.05799  1.0000
  H   H19       1.0  0.04413  0.26979  0.15294  1.0000
  C   C15       1.0  0.01394  0.33489  0.17776  1.0000
  C   C16       1.0  0.01734  0.33365  0.15788  1.0000
  H   H20       1.0  0.10190  0.99571  0.11387  1.0000
  H   H21       1.0  0.02821  0.40782  0.15316  1.0000
  H   H22       1.0  0.19323  0.03277  0.13227  1.0000
  H   H23       1.0  0.19742  0.03833  0.10687  1.0000
  H   H24       1.0  0.11808  0.05836  0.11124  1.0000
  C   C17       1.0  0.13979  0.03929  0.13791  1.0000
  H   H25       1.0  0.14803  0.05705  0.14880  1.0000
  H   H26       1.0  0.31971  0.26079  0.06690  1.0000
  C   C18       1.0  0.28182  0.33508  0.16613  1.0000
  C   C19       1.0  0.27466  0.30989  0.17469  1.0000
  C   C20       1.0  0.26340  0.28479  0.16321  1.0000
  C   C21       1.0  0.25864  0.28430  0.14306  1.0000
  C   C22       1.0  0.26528  0.30940  0.13450  1.0000
  C   C23       1.0  0.27704  0.33459  0.14594  1.0000
  H   H27       1.0  0.27825  0.30980  0.19014  1.0000
  H   H28       1.0  0.25838  0.26558  0.17006  1.0000
  H   H29       1.0  0.26147  0.30949  0.11911  1.0000
  H   H30       1.0  0.28242  0.35390  0.13914  1.0000
  H   H31       1.0  0.10468  0.38716  0.19231  1.0000
  H   H32       1.0  0.39714  0.00810  0.17034  1.0000
  C   C24       1.0  0.18312  0.06511  0.12124  1.0000
  H   H33       1.0  0.07868  0.27743  0.16092  1.0000
  H   H34       1.0  0.99452  0.31080  0.20175  1.0000
  H   H35       1.0  0.15158  0.01138  0.10724  1.0000
  N   N2        1.0  0.08255  0.31624  0.19212  1.0000
  C   C25       1.0  0.07161  0.29659  0.20817  1.0000
  C   C26       1.0  0.06400  0.30497  0.17381  1.0000
  C   C27       1.0  0.08356  0.34331  0.19830  1.0000
  C   C28       1.0  0.04066  0.28570  0.21165  1.0000
  H   H36       1.0  0.07477  0.27810  0.20582  1.0000
  H   H37       1.0  0.08343  0.30673  0.22217  1.0000
  H   H38       1.0  0.04338  0.30343  0.17574  1.0000
  H   H39       1.0  0.07237  0.31956  0.16206  1.0000
  H   H40       1.0  0.06239  0.34014  0.20057  1.0000
  H   H41       1.0  0.09472  0.35144  0.21275  1.0000
  H   H42       1.0  0.02665  0.27241  0.19929  1.0000
  H   H43       1.0  0.03568  0.27262  0.22432  1.0000
  H   H44       1.0  0.03571  0.30267  0.21507  1.0000
  N   N3        1.0  0.32138  0.30869  0.08622  1.0000
  C   C29       1.0  0.30795  0.31660  0.06962  1.0000
  C   C30       1.0  0.34435  0.30443  0.07838  1.0000
  C   C31       1.0  0.33313  0.33234  0.10145  1.0000
  C   C32       1.0  0.29926  0.28257  0.09395  1.0000
  H   H45       1.0  0.42005  0.48069  0.21966  1.0000
  C   C33       1.0  0.33521  0.28129  0.06228  1.0000
  C   C34       1.0  0.35654  0.33440  0.11589  1.0000
  C   C35       1.0  0.30840  0.26879  0.10987  1.0000
  H   H46       1.0  0.32401  0.33266  0.06114  1.0000
  H   H47       1.0  0.29566  0.29849  0.05922  1.0000
  H   H48       1.0  0.35613  0.29963  0.08978  1.0000
  H   H49       1.0  0.36006  0.32406  0.07257  1.0000
  H   H50       1.0  0.34214  0.35268  0.09455  1.0000
  H   H51       1.0  0.31635  0.33182  0.11011  1.0000
  H   H52       1.0  0.28317  0.28658  0.10018  1.0000
  H   H53       1.0  0.28727  0.26658  0.08216  1.0000
  H   H54       1.0  0.00185  0.39948  0.20396  1.0000
  C   C36       1.0  0.04844  0.44205  0.17468  1.0000
  H   H55       1.0  0.28922  0.05678  0.03703  1.0000
  H   H56       1.0  0.32696  0.28635  0.04889  1.0000
  H   H57       1.0  0.35355  0.27911  0.05843  1.0000
  H   H58       1.0  0.36101  0.35101  0.12716  1.0000
  H   H59       1.0  0.37611  0.34053  0.10877  1.0000
  H   H60       1.0  0.35104  0.31520  0.12349  1.0000
  C   C37       1.0  0.25866  0.27492  0.00257  1.0000
  H   H61       1.0  0.32881  0.26989  0.10822  1.0000
  H   H62       1.0  0.00764  0.30744  0.13171  1.0000
  N   N4        1.0  0.16560  0.27436  0.12795  1.0000
  C   C38       1.0  0.18190  0.29986  0.11694  1.0000
  C   C39       1.0  0.17071  0.28286  0.14920  1.0000
  C   C40       1.0  0.13494  0.26159  0.12240  1.0000
  C   C41       1.0  0.17496  0.25324  0.12313  1.0000
  C   C42       1.0  0.17692  0.29613  0.09474  1.0000
  C   C43       1.0  0.19966  0.28981  0.15843  1.0000
  C   C44       1.0  0.12181  0.28088  0.12482  1.0000
  C   C45       1.0  0.16177  0.22613  0.13400  1.0000
  H   H63       1.0  0.17792  0.31719  0.12160  1.0000
  H   H64       1.0  0.20460  0.30783  0.12019  1.0000
  H   H65       1.0  0.15498  0.26674  0.15775  1.0000
  H   H66       1.0  0.16814  0.30163  0.15199  1.0000
  H   H67       1.0  0.13025  0.25328  0.10722  1.0000
  H   H68       1.0  0.12307  0.24317  0.13094  1.0000
  H   H69       1.0  0.16999  0.24649  0.10756  1.0000
  H   H70       1.0  0.19795  0.26238  0.12488  1.0000
  H   H71       1.0  0.18359  0.28151  0.08864  1.0000
  H   H72       1.0  0.15505  0.28944  0.08966  1.0000
  H   H73       1.0  0.18968  0.31642  0.08848  1.0000
  H   H74       1.0  0.21651  0.30685  0.15131  1.0000
  H   H75       1.0  0.20145  0.29696  0.17377  1.0000
  H   H76       1.0  0.20312  0.27137  0.15838  1.0000
  H   H77       1.0  0.09926  0.26891  0.12031  1.0000
  H   H78       1.0  0.13069  0.29873  0.11546  1.0000
  H   H79       1.0  0.12365  0.28833  0.14004  1.0000
  H   H80       1.0  0.14321  0.20986  0.12545  1.0000
  H   H81       1.0  0.15558  0.22866  0.14845  1.0000
  H   H82       1.0  0.17724  0.21853  0.13642  1.0000
  H   H83       1.0  0.07932  0.25039  0.02957  1.0000
  C   C46       1.0  0.11094  0.00622  0.10063  1.0000
  C   C47       1.0  0.03425  0.44305  0.20790  1.0000
  C   C48       1.0  0.25820  0.25024  0.00805  1.0000
  H   H84       1.0  0.14781  0.09472  0.13777  1.0000
  C   C49       1.0  0.02230  0.42065  0.16252  1.0000
  C   C50       1.0  0.15243  0.09667  0.12241  1.0000
  C   C51       1.0  0.07243  0.48417  0.19583  1.0000
  H   H85       1.0  0.14587  0.07268  0.09605  1.0000
  H   H86       1.0  0.27750  0.33025  0.06157  1.0000
  C   C52       1.0  0.14518  0.01682  0.14731  1.0000
  H   H87       1.0  0.14227  0.10821  0.11577  1.0000
  H   H88       1.0  0.09312  0.19428  0.00993  1.0000
  S   S16       1.0  0.02645  0.39368  0.24572  1.0000
  C   C53       1.0  0.14109  0.06818  0.11132  1.0000
  H   H89       1.0  0.11698  0.03190  0.13703  1.0000
  S   S17       1.0  0.17716  0.98938  0.06656  1.0000
  H   H90       1.0  0.16451  0.02641  0.15702  1.0000
  C   C54       1.0  0.26958  0.04535  0.02777  1.0000
  S   S18       1.0  0.99995  0.26034  0.04273  1.0000
  C   C55       1.0  0.20688  0.38943  0.24117  1.0000
  H   H91       1.0  0.21204  0.01346  0.02524  1.0000
  C   C56       1.0  0.09646  0.47780  0.20130  1.0000
  H   H92       1.0  0.06274  0.45569  0.16415  1.0000
  H   H93       1.0  0.04683  0.43257  0.21181  1.0000
  H   H94       1.0  0.03794  0.45702  0.22080  1.0000
  C   C57       1.0  0.19934  0.04844  0.12128  1.0000
  Fe  Fe9       1.0  0.98714  0.23565  0.06979  1.0000
  H   H95       1.0  0.27166  0.31404  0.08402  1.0000
  C   C58       1.0  0.20806  0.03139  0.02297  1.0000
  C   C59       1.0  0.21759  0.09029  0.02352  1.0000
  H   H96       1.0  0.98645  0.17328  0.02791  1.0000
  C   C60       1.0  0.03495  0.21870  0.02567  1.0000
  C   C61       1.0  0.99768  0.31019  0.18656  1.0000
  H   H97       1.0  0.02965  0.35262  0.15085  1.0000
  H   H98       1.0  0.30809  0.27753  0.12439  1.0000
  H   H99       1.0  0.01553  0.22027  0.02649  1.0000
  H   H100      1.0  0.26185  0.29075  0.01349  1.0000
  C   C62       1.0  0.14255  0.02525  0.10388  1.0000
  H   H101      1.0  0.17627  0.23706  0.01119  1.0000
  H   H102      1.0  0.03494  0.20581  0.03787  1.0000
  C   C63       1.0  0.17808  0.37623  0.24309  1.0000
  C   C64       1.0  0.00126  0.26184  0.00320  1.0000
  H   H103      1.0  0.15368  0.33714  0.20063  1.0000
  C   C65       1.0  0.09543  0.36677  0.18408  1.0000
  H   H104      1.0  0.05032  0.26009  0.17627  1.0000
  H   H105      1.0  0.11238  0.36690  0.17610  1.0000
  H   H106      1.0  0.05708  0.25461  0.04573  1.0000
  C   C66       1.0  0.98471  0.28467  0.17557  1.0000
  H   H107      1.0  0.22181  0.06300  0.12441  1.0000
  H   H108      1.0  0.10703  0.98950  0.08959  1.0000
  Fe  Fe10      1.0  0.28369  0.41241  0.23902  1.0000
  H   H109      1.0  0.23554  0.10025  0.03438  1.0000
  N   N5        1.0  0.15177  0.04894  0.11882  1.0000
  H   H110      1.0  0.12752  0.00394  0.15597  1.0000
  H   H111      1.0  0.39216  0.99749  0.20371  1.0000
  N   N6        1.0  0.04447  0.45937  0.19021  1.0000
  C   C67       1.0  0.00358  0.42028  0.20708  1.0000
  C   C68       1.0  0.00491  0.30803  0.14698  1.0000
  H   H112      1.0  0.25521  0.07306  0.03796  1.0000
  H   H113      1.0  0.19129  0.07962  0.10943  1.0000
  H   H114      1.0  0.29943  0.34897  0.08247  1.0000
  S   S19       1.0  0.33389  0.38068  0.23595  1.0000
  H   H115      1.0  0.03479  0.48357  0.16995  1.0000
  H   H116      1.0  0.29359  0.24621  0.10922  1.0000
  S   S20       1.0  0.12787  0.37357  0.24891  1.0000
  C   C69       1.0  0.17793  0.01889  0.01402  1.0000
  C   C70       1.0  0.05845  0.24846  0.03066  1.0000
  H   H117      1.0  0.12903  0.32868  0.21847  1.0000
  H   H118      1.0  0.31130  0.48111  0.22393  1.0000
  H   H119      1.0  0.19887  0.07600  0.03062  1.0000
  H   H120      1.0  0.25560  0.02750  0.03588  1.0000
  N   N7        1.0  0.03508  0.20502  0.00652  1.0000
  H   H121      1.0  0.07881  0.36543  0.17353  1.0000
  H   H122      1.0  0.27343  0.08367  0.01694  1.0000
  H   H123      1.0  0.17064  0.03459  0.01276  1.0000
  H   H124      1.0  0.17504  0.10980  0.12120  1.0000
  C   C71       1.0  0.22206  0.41838  0.24251  1.0000
  H   H125      1.0  0.13883  0.35943  0.20496  1.0000
  H   H126      1.0  0.05858  0.43022  0.18102  1.0000
  C   C72       1.0  0.11100  0.32011  0.18838  1.0000
  C   C73       1.0  0.13422  0.33735  0.20412  1.0000
  C   C74       1.0  0.05930  0.27643  0.16578  1.0000
  H   H127      1.0  0.11067  0.29965  0.18678  1.0000
  Fe  Fe11      1.0  0.34554  0.42601  0.24333  1.0000
  C   C75       1.0  0.98651  0.24714  0.01869  1.0000
  S   S21       1.0  0.25862  0.43568  0.24158  1.0000
  H   H128      1.0  0.09987  0.01740  0.09501  1.0000
  S   S22       1.0  0.26815  0.36737  0.23110  1.0000
  C   C76       1.0  0.98826  0.28337  0.15572  1.0000
  H   H129      1.0  0.16673  0.35383  0.24265  1.0000
  H   H130      1.0  0.11777  0.32972  0.17440  1.0000
  C   C77       1.0  0.25735  0.06517  0.02358  1.0000
  H   H131      1.0  0.19009  0.07859  0.13479  1.0000
  Fe  Fe12      1.0  0.09532  0.38861  0.24966  1.0000
  C   C78       1.0  0.28808  0.32805  0.07502  1.0000
  H   H132      1.0  0.01360  0.43084  0.15274  1.0000
  S   S23       1.0  0.98636  0.19428  0.06978  1.0000
  C   C79       1.0  0.16398  0.39172  0.24588  1.0000
  H   H133      1.0  0.09191  0.46425  0.21359  1.0000
  H   H134      1.0  0.01022  0.47679  0.20989  1.0000
  H   H135      1.0  0.42159  0.99757  0.18070  1.0000
  H   H136      1.0  0.09272  0.22596  0.00735  1.0000
  H   H137      1.0  0.27474  0.03769  0.01451  1.0000
  H   H138      1.0  0.02886  0.47836  0.24795  1.0000
  C   C80       1.0  0.22337  0.07569  0.00645  1.0000
  H   H139      1.0  0.99717  0.14914  0.01804  1.0000
  C   C81       1.0  0.05116  0.18910  0.00885  1.0000
  C   C82       1.0  0.98851  0.16330  0.01447  1.0000
  H   H140      1.0  0.21357  0.10709  0.01804  1.0000
  H   H141      1.0  0.16400  0.00296  0.02355  1.0000
  S   S24       1.0  0.05322  0.35134  0.24362  1.0000
  C   C83       1.0  0.40684  0.99463  0.16815  1.0000
  H   H142      1.0  0.10186  0.46855  0.18895  1.0000
  H   H143      1.0  0.36767  0.48219  0.22001  1.0000
  H   H144      1.0  0.99534  0.41999  0.22138  1.0000
  H   H145      1.0  0.14618  0.00184  0.13690  1.0000
  H   H146      1.0  0.02030  0.28110  0.00614  1.0000
  H   H147      1.0  0.16844  0.43290  0.24891  1.0000
  C   C84       1.0  0.17901  0.42071  0.24670  1.0000
  C   C85       1.0  0.20798  0.43397  0.24512  1.0000
  Fe  Fe13      1.0  0.06988  0.42924  0.25135  1.0000
  H   H148      1.0  0.21955  0.45640  0.24611  1.0000
  H   H149      1.0  0.98936  0.42320  0.19671  1.0000
  H   H150      1.0  0.35533  0.98952  0.17862  1.0000
  H   H151      1.0  0.16383  0.20219  0.00236  1.0000
  S   S25       1.0  0.31164  0.41354  0.26427  1.0000
  S   S26       1.0  0.27697  0.33020  0.27349  1.0000
  Fe  Fe14      1.0  0.03948  0.37014  0.26703  1.0000
  S   S27       1.0  0.08204  0.40662  0.27414  1.0000
  S   S28       1.0  0.00899  0.34126  0.28819  1.0000
  H   H152      1.0  0.04329  0.36616  0.38940  1.0000
  S   S29       1.0  0.17498  0.02343  0.38618  1.0000
  S   S30       1.0  0.23925  0.00862  0.39521  1.0000
  Fe  Fe15      1.0  0.22084  0.18620  0.38889  1.0000
  S   S31       1.0  0.25029  0.23036  0.39968  1.0000
  S   S32       1.0  0.23893  0.15612  0.39185  1.0000
  Fe  Fe16      1.0  0.17476  0.20073  0.37949  1.0000
  S   S33       1.0  0.20067  0.24526  0.38989  1.0000
  S   S34       1.0  0.13146  0.18781  0.36622  1.0000
  Fe  Fe17      1.0  0.23446  0.24412  0.37353  1.0000
  S   S35       1.0  0.26390  0.28391  0.35883  1.0000
  Fe  Fe18      1.0  0.21433  0.22825  0.41501  1.0000
  S   S36       1.0  0.21934  0.24898  0.44495  1.0000
  S   S37       1.0  0.20771  0.20005  0.36160  1.0000
  S   S38       1.0  0.18573  0.18357  0.40580  1.0000
  Fe  Fe19      1.0  0.01465  0.20851  0.40818  1.0000
  S   S39       1.0  0.04874  0.20005  0.42087  1.0000
  S   S40       1.0  0.01647  0.25011  0.41236  1.0000
  C   C86       1.0  0.06999  0.19455  0.40514  1.0000
  C   C87       1.0  0.06919  0.19966  0.38557  1.0000
  C   C88       1.0  0.08763  0.19674  0.37360  1.0000
  C   C89       1.0  0.10749  0.18956  0.38126  1.0000
  C   C90       1.0  0.10802  0.18406  0.40077  1.0000
  C   C91       1.0  0.08906  0.18621  0.41261  1.0000
  H   H153      1.0  0.05495  0.20661  0.37975  1.0000
  H   H154      1.0  0.08718  0.20101  0.35850  1.0000
  H   H155      1.0  0.12304  0.17813  0.40670  1.0000
  H   H156      1.0  0.08959  0.18198  0.42771  1.0000
  C   C92       1.0  0.19285  0.06031  0.38871  1.0000
  C   C93       1.0  0.22067  0.07509  0.39584  1.0000
  C   C94       1.0  0.23432  0.10439  0.39695  1.0000
  C   C95       1.0  0.22030  0.11926  0.39112  1.0000
  C   C96       1.0  0.19234  0.10448  0.38438  1.0000
  C   C97       1.0  0.17875  0.07518  0.38314  1.0000
  H   H157      1.0  0.23166  0.06395  0.40044  1.0000
  H   H158      1.0  0.25595  0.11560  0.40219  1.0000
  H   H159      1.0  0.18128  0.11561  0.37982  1.0000
  H   H160      1.0  0.15720  0.06397  0.37768  1.0000
  C   C98       1.0  0.24235  0.04463  0.35422  1.0000
  H   H161      1.0  0.05462  0.11336  0.39612  1.0000
  C   C99       1.0  0.22419  0.24912  0.48459  1.0000
  C   C100      1.0  0.21528  0.23266  0.46723  1.0000
  C   C101      1.0  0.20474  0.20394  0.46797  1.0000
  H   H162      1.0  0.23231  0.27136  0.48421  1.0000
  H   H163      1.0  0.19716  0.19095  0.45479  1.0000
  H   H164      1.0  0.31479  0.25679  0.45536  1.0000
  C   C102      1.0  0.01342  0.32275  0.30788  1.0000
  C   C103      1.0  0.03952  0.32965  0.31690  1.0000
  C   C104      1.0  0.01818  0.29405  0.34054  1.0000
  H   H165      1.0  0.05793  0.34621  0.31155  1.0000
  H   H166      1.0  0.21189  0.39197  0.30152  1.0000
  C   C105      1.0  0.27472  0.31751  0.29727  1.0000
  C   C106      1.0  0.25428  0.29020  0.30025  1.0000
  C   C107      1.0  0.25063  0.27953  0.31884  1.0000
  C   C108      1.0  0.26761  0.29594  0.33483  1.0000
  C   C109      1.0  0.28820  0.32318  0.33182  1.0000
  C   C110      1.0  0.29168  0.33394  0.31325  1.0000
  H   H167      1.0  0.24101  0.27719  0.28807  1.0000
  H   H168      1.0  0.23477  0.25855  0.32079  1.0000
  H   H169      1.0  0.30157  0.33610  0.34400  1.0000
  H   H170      1.0  0.30756  0.35491  0.31132  1.0000
  H   H171      1.0  0.19503  0.33905  0.32415  1.0000
  C   C111      1.0  0.25360  0.17425  0.45984  1.0000
  H   H172      1.0  0.18642  0.00751  0.34976  1.0000
  H   H173      1.0  0.09908  0.27109  0.40504  1.0000
  C   C112      1.0  0.21197  0.02241  0.32489  1.0000
  C   C113      1.0  0.22940  0.16033  0.44410  1.0000
  H   H174      1.0  0.19703  0.99879  0.46330  1.0000
  H   H175      1.0  0.18269  0.28990  0.44605  1.0000
  H   H176      1.0  0.24288  0.02453  0.35386  1.0000
  S   S41       1.0  0.99850  0.20245  0.37721  1.0000
  H   H177      1.0  0.21857  0.32216  0.42592  1.0000
  H   H178      1.0  0.20747  0.02469  0.30940  1.0000
  H   H179      1.0  0.28822  0.41391  0.30440  1.0000
  H   H180      1.0  0.26230  0.22565  0.46823  1.0000
  N   N8        1.0  0.22080  0.35740  0.30058  1.0000
  C   C114      1.0  0.21064  0.32933  0.29030  1.0000
  C   C115      1.0  0.23450  0.34154  0.33217  1.0000
  C   C116      1.0  0.17295  0.35596  0.29501  1.0000
  H   H181      1.0  0.19088  0.31349  0.29568  1.0000
  H   H182      1.0  0.20893  0.37788  0.27832  1.0000
  C   C117      1.0  0.27074  0.22355  0.45446  1.0000
  H   H183      1.0  0.22966  0.33893  0.34752  1.0000
  Fe  Fe20      1.0  0.29823  0.36885  0.25538  1.0000
  C   C118      1.0  0.98750  0.12728  0.41272  1.0000
  C   C119      1.0  0.26608  0.40379  0.30776  1.0000
  H   H184      1.0  0.19740  0.16996  0.48612  1.0000
  H   H185      1.0  0.02836  0.14689  0.34508  1.0000
  C   C120      1.0  0.20469  0.37175  0.29337  1.0000
  H   H186      1.0  0.26595  0.40235  0.32362  1.0000
  H   H187      1.0  0.22169  0.37326  0.32967  1.0000
  H   H188      1.0  0.21063  0.14482  0.45069  1.0000
  H   H189      1.0  0.16569  0.03189  0.49006  1.0000
  C   C121      1.0  0.25728  0.06160  0.32137  1.0000
  C   C122      1.0  0.29907  0.21694  0.48970  1.0000
  C   C123      1.0  0.21713  0.35345  0.32180  1.0000
  N   N9        1.0  0.98412  0.32154  0.38813  1.0000
  C   C124      1.0  0.20473  0.19209  0.48577  1.0000
  H   H190      1.0  0.19299  0.08583  0.49486  1.0000
  H   H191      1.0  0.98350  0.35091  0.40917  1.0000
  H   H192      1.0  0.25711  0.35561  0.33208  1.0000
  Fe  Fe21      1.0  0.19364  0.99420  0.39082  1.0000
  H   H193      1.0  0.16750  0.36095  0.30919  1.0000
  H   H194      1.0  0.16397  0.33317  0.29297  1.0000
  H   H195      1.0  0.29000  0.26869  0.45699  1.0000
  H   H196      1.0  0.03906  0.13911  0.37561  1.0000
  H   H197      1.0  0.02045  0.09085  0.40263  1.0000
  C   C125      1.0  0.03393  0.11193  0.39788  1.0000
  H   H198      1.0  0.01249  0.15603  0.39209  1.0000
  H   H199      1.0  0.30690  0.48058  0.26361  1.0000
  N   N10       1.0  0.14778  0.27251  0.42448  1.0000
  C   C126      1.0  0.13354  0.25126  0.43917  1.0000
  C   C127      1.0  0.13651  0.29291  0.42530  1.0000
  C   C128      1.0  0.17864  0.28686  0.43005  1.0000
  C   C129      1.0  0.14138  0.25732  0.40499  1.0000
  C   C130      1.0  0.14624  0.23200  0.44412  1.0000
  C   C131      1.0  0.10504  0.28067  0.41993  1.0000
  C   C132      1.0  0.15102  0.27481  0.38720  1.0000
  H   H200      1.0  0.13329  0.26160  0.45311  1.0000
  H   H201      1.0  0.11135  0.23745  0.43437  1.0000
  H   H202      1.0  0.14699  0.31023  0.41574  1.0000
  H   H203      1.0  0.18797  0.27361  0.42549  1.0000
  H   H204      1.0  0.15058  0.24306  0.40457  1.0000
  H   H205      1.0  0.11887  0.24308  0.40223  1.0000
  H   H206      1.0  0.15022  0.22255  0.43122  1.0000
  H   H207      1.0  0.16579  0.24320  0.45344  1.0000
  H   H208      1.0  0.13165  0.21473  0.45248  1.0000
  H   H209      1.0  0.09231  0.26533  0.43020  1.0000
  H   H210      1.0  0.09935  0.29767  0.42051  1.0000
  H   H211      1.0  0.13728  0.26257  0.37435  1.0000
  H   H212      1.0  0.23414  0.14889  0.43282  1.0000
  H   H213      1.0  0.31445  0.17851  0.44096  1.0000
  H   H214      1.0  0.01746  0.16662  0.36031  1.0000
  H   H215      1.0  0.27826  0.15329  0.43585  1.0000
  H   H216      1.0  0.01748  0.33673  0.41090  1.0000
  H   H217      1.0  0.17149  0.01955  0.33077  1.0000
  H   H218      1.0  0.27928  0.20236  0.49564  1.0000
  H   H219      1.0  0.25328  0.21861  0.44353  1.0000
  H   H220      1.0  0.20083  0.02853  0.43619  1.0000
  H   H221      1.0  0.02442  0.10373  0.36716  1.0000
  H   H222      1.0  0.32230  0.22270  0.46451  1.0000
  H   H223      1.0  0.20112  0.30730  0.26225  1.0000
  H   H224      1.0  0.25959  0.15817  0.46406  1.0000
  C   C133      1.0  0.00182  0.31676  0.40351  1.0000
  C   C134      1.0  0.98631  0.29818  0.41983  1.0000
  C   C135      1.0  0.21105  0.03771  0.45073  1.0000
  C   C136      1.0  0.18849  0.04416  0.49348  1.0000
  H   H225      1.0  0.26916  0.06992  0.37909  1.0000
  H   H226      1.0  0.24281  0.06255  0.48141  1.0000
  C   C137      1.0  0.28710  0.19724  0.43496  1.0000
  C   C138      1.0  0.98977  0.30120  0.31525  1.0000
  C   C139      1.0  0.02317  0.11773  0.37853  1.0000
  H   H227      1.0  0.27213  0.00541  0.48809  1.0000
  N   N11       1.0  0.27847  0.20050  0.45464  1.0000
  H   H228      1.0  0.30544  0.21670  0.43131  1.0000
  H   H229      1.0  0.27059  0.19398  0.42360  1.0000
  H   H230      1.0  0.02302  0.23234  0.49546  1.0000
  C   C140      1.0  0.18382  0.00863  0.33399  1.0000
  H   H231      1.0  0.16243  0.36204  0.28340  1.0000
  H   H232      1.0  0.21924  0.08429  0.48242  1.0000
  C   C141      1.0  0.20650  0.32843  0.26814  1.0000
  H   H233      1.0  0.17223  0.01121  0.46250  1.0000
  C   C142      1.0  0.25091  0.37508  0.29684  1.0000
  H   H234      1.0  0.03619  0.37984  0.36810  1.0000
  H   H235      1.0  0.14912  0.29402  0.38792  1.0000
  H   H236      1.0  0.17262  0.27982  0.38447  1.0000
  C   C143      1.0  0.27106  0.06642  0.36357  1.0000
  H   H237      1.0  0.21958  0.00674  0.32503  1.0000
  H   H238      1.0  0.28611  0.05815  0.36332  1.0000
  H   H239      1.0  0.14091  0.30313  0.44005  1.0000
  H   H240      1.0  0.19210  0.33166  0.42967  1.0000
  N   N12       1.0  0.23369  0.04984  0.33441  1.0000
  H   H241      1.0  0.19340  0.31636  0.40664  1.0000
  C   C144      1.0  0.22072  0.06879  0.33575  1.0000
  H   H242      1.0  0.22653  0.04204  0.36449  1.0000
  C   C145      1.0  0.27133  0.04336  0.31765  1.0000
  H   H243      1.0  0.24990  0.06543  0.30705  1.0000
  C   C146      1.0  0.19626  0.31584  0.42242  1.0000
  H   H244      1.0  0.27398  0.08222  0.32679  1.0000
  H   H245      1.0  0.28021  0.08702  0.35745  1.0000
  H   H246      1.0  0.24717  0.09992  0.35871  1.0000
  C   C147      1.0  0.23978  0.09893  0.34344  1.0000
  H   H247      1.0  0.25312  0.37907  0.28125  1.0000
  H   H248      1.0  0.25737  0.11034  0.33445  1.0000
  H   H249      1.0  0.22543  0.32111  0.29344  1.0000
  C   C148      1.0  0.00333  0.33871  0.37333  1.0000
  H   H250      1.0  0.21129  0.06972  0.32135  1.0000
  C   C149      1.0  0.29376  0.25250  0.44984  1.0000
  H   H251      1.0  0.22569  0.34303  0.26162  1.0000
  S   S42       1.0  0.02242  0.27915  0.36236  1.0000
  H   H252      1.0  0.20348  0.06059  0.34555  1.0000
  H   H253      1.0  0.22747  0.11032  0.34324  1.0000
  C   C150      1.0  0.00387  0.23336  0.49320  1.0000
  C   C151      1.0  0.02649  0.36768  0.38070  1.0000
  H   H254      1.0  0.24476  0.17830  0.47282  1.0000
  H   H255      1.0  0.22950  0.32073  0.32593  1.0000
  N   N13       1.0  0.20276  0.02790  0.48706  1.0000
  H   H256      1.0  0.00468  0.23268  0.46212  1.0000
  C   C152      1.0  0.04181  0.31560  0.33319  1.0000
  H   H257      1.0  0.00176  0.29850  0.43103  1.0000
  H   H258      1.0  0.22385  0.17515  0.43707  1.0000
  H   H259      1.0  0.06210  0.32165  0.34022  1.0000
  H   H260      1.0  0.29372  0.25514  0.43405  1.0000
  H   H261      1.0  0.00033  0.14561  0.42271  1.0000
  C   C153      1.0  0.30215  0.20695  0.46947  1.0000
  C   C154      1.0  0.99211  0.28674  0.33129  1.0000
  Fe  Fe22      1.0  0.99764  0.24297  0.38160  1.0000
  H   H262      1.0  0.24356  0.03143  0.48543  1.0000
  H   H263      1.0  0.01863  0.37957  0.38913  1.0000
  H   H264      1.0  0.99245  0.11081  0.41722  1.0000
  H   H265      1.0  0.01390  0.30742  0.39696  1.0000
  H   H266      1.0  0.03737  0.12804  0.40924  1.0000
  H   H267      1.0  0.29042  0.05537  0.31004  1.0000
  H   H268      1.0  0.27765  0.03687  0.33120  1.0000
  H   H269      1.0  0.29863  0.17198  0.41691  1.0000
  H   H270      1.0  0.23244  0.04030  0.45075  1.0000
  H   H271      1.0  0.18450  0.06971  0.47080  1.0000
  C   C155      1.0  0.99362  0.23379  0.47426  1.0000
  H   H272      1.0  0.26313  0.36405  0.30017  1.0000
  H   H273      1.0  0.25774  0.02463  0.30821  1.0000
  H   H274      1.0  0.25767  0.41774  0.30299  1.0000
  H   H275      1.0  0.33286  0.47859  0.27887  1.0000
  C   C156      1.0  0.29496  0.17379  0.43232  1.0000
  C   C157      1.0  0.19691  0.07238  0.48462  1.0000
  H   H276      1.0  0.99217  0.34182  0.36067  1.0000
  H   H277      1.0  0.21189  0.05824  0.45229  1.0000
  C   C158      1.0  0.19458  0.01768  0.46611  1.0000
  H   H278      1.0  0.18918  0.33256  0.26343  1.0000
  C   C159      1.0  0.23395  0.04424  0.49032  1.0000
  H   H279      1.0  0.01383  0.32756  0.36713  1.0000
  C   C160      1.0  0.01024  0.14893  0.34962  1.0000
  N   N14       1.0  0.99447  0.11528  0.37753  1.0000
  H   H280      1.0  0.20577  0.99201  0.49662  1.0000
  H   H281      1.0  0.30501  0.18828  0.47150  1.0000
  H   H282      1.0  0.03069  0.17697  0.49388  1.0000
  C   C161      1.0  0.98822  0.12161  0.35733  1.0000
  S   S43       1.0  0.08249  0.47665  0.25261  1.0000
  H   H283      1.0  0.98515  0.10463  0.34671  1.0000
  S   S44       1.0  0.38725  0.46529  0.25432  1.0000
  H   H284      1.0  0.05472  0.21315  0.49927  1.0000
  H   H285      1.0  0.30071  0.23796  0.48965  1.0000
  C   C162      1.0  0.99310  0.13591  0.39166  1.0000
  H   H286      1.0  0.00109  0.15402  0.33665  1.0000
  H   H287      1.0  0.31621  0.21844  0.49981  1.0000
  S   S45       1.0  0.24978  0.99266  0.44877  1.0000
  H   H288      1.0  0.14837  0.98885  0.49984  1.0000
  C   C163      1.0  0.19336  0.00283  0.49913  1.0000
  S   S46       1.0  0.00376  0.23900  0.59067  1.0000
  S   S47       1.0  0.00421  0.23447  0.53269  1.0000
  S   S48       1.0  0.02951  0.18378  0.60858  1.0000
  Fe  Fe23      1.0  0.99770  0.19615  0.59628  1.0000
  H   H289      1.0  0.00123  0.36138  0.70908  1.0000
  H   H290      1.0  0.00523  0.35525  0.67268  1.0000
  Fe  Fe24      1.0  0.35075  0.03750  0.75138  1.0000
  H   H291      1.0  0.98735  0.32550  0.68703  1.0000
  C   C164      1.0  0.98494  0.33749  0.67506  1.0000
  C   C165      1.0  0.98975  0.23455  0.50920  1.0000
  C   C166      1.0  0.01503  0.40570  0.68395  1.0000
  S   S49       1.0  0.45377  0.06162  0.74952  1.0000
  H   H292      1.0  0.02549  0.39677  0.69322  1.0000
  H   H293      1.0  0.02738  0.42851  0.68698  1.0000
  H   H294      1.0  0.01651  0.40099  0.66856  1.0000
  Fe  Fe25      1.0  0.98338  0.22035  0.56093  1.0000
  H   H295      1.0  0.01113  0.14784  0.55752  1.0000
  H   H296      1.0  0.46104  0.19907  0.73207  1.0000
  C   C167      1.0  0.39554  0.16982  0.74707  1.0000
  Fe  Fe26      1.0  0.38445  0.09902  0.74374  1.0000
  H   H297      1.0  0.21169  0.26584  0.61048  1.0000
  H   H298      1.0  0.28979  0.32250  0.66004  1.0000
  C   C168      1.0  0.27056  0.07265  0.59080  1.0000
  H   H299      1.0  0.47645  0.06124  0.71162  1.0000
  H   H300      1.0  0.99984  0.37640  0.74147  1.0000
  C   C169      1.0  0.46226  0.16487  0.74686  1.0000
  H   H301      1.0  0.44378  0.14739  0.73900  1.0000
  S   S50       1.0  0.34211  0.06591  0.73252  1.0000
  Fe  Fe27      1.0  0.18292  0.21779  0.58532  1.0000
  H   H302      1.0  0.24184  0.03784  0.52085  1.0000
  H   H303      1.0  0.22384  0.35554  0.64917  1.0000
  H   H304      1.0  0.09351  0.18367  0.56022  1.0000
  C   C170      1.0  0.26826  0.99966  0.64090  1.0000
  C   C171      1.0  0.24548  0.05502  0.51128  1.0000
  H   H305      1.0  0.26835  0.06816  0.51155  1.0000
  C   C172      1.0  0.12063  0.22319  0.59333  1.0000
  C   C173      1.0  0.26960  0.99836  0.66113  1.0000
  H   H306      1.0  0.26968  0.24988  0.68348  1.0000
  S   S51       1.0  0.37084  0.02483  0.72814  1.0000
  C   C174      1.0  0.31925  0.03081  0.66386  1.0000
  H   H307      1.0  0.26521  0.32399  0.63076  1.0000
  H   H308      1.0  0.32945  0.20511  0.71589  1.0000
  H   H309      1.0  0.23692  0.32826  0.60379  1.0000
  H   H310      1.0  0.28554  0.12979  0.60668  1.0000
  C   C175      1.0  0.10571  0.23818  0.59158  1.0000
  H   H311      1.0  0.24785  0.08836  0.65288  1.0000
  C   C176      1.0  0.22807  0.04898  0.62140  1.0000
  H   H312      1.0  0.27722  0.13779  0.63015  1.0000
  H   H313      1.0  0.21322  0.34222  0.62445  1.0000
  H   H314      1.0  0.25485  0.23704  0.64862  1.0000
  H   H315      1.0  0.03909  0.14079  0.55415  1.0000
  H   H316      1.0  0.24736  0.35100  0.63531  1.0000
  C   C177      1.0  0.19753  0.06630  0.56732  1.0000
  S   S52       1.0  0.41482  0.25279  0.72064  1.0000
  C   C178      1.0  0.02844  0.15222  0.54822  1.0000
  H   H317      1.0  0.03438  0.19349  0.54543  1.0000
  H   H318      1.0  0.21003  0.04430  0.64965  1.0000
  H   H319      1.0  0.23691  0.06810  0.51728  1.0000
  H   H320      1.0  0.21899  0.04470  0.60625  1.0000
  C   C179      1.0  0.04777  0.18384  0.54902  1.0000
  H   H321      1.0  0.02779  0.19335  0.51498  1.0000
  C   C180      1.0  0.26323  0.08528  0.64472  1.0000
  C   C181      1.0  0.22507  0.34166  0.63777  1.0000
  N   N15       1.0  0.25310  0.07735  0.62379  1.0000
  H   H322      1.0  0.28888  0.06449  0.64998  1.0000
  C   C182      1.0  0.04323  0.19272  0.50567  1.0000
  H   H323      1.0  0.23507  0.09171  0.60109  1.0000
  H   H324      1.0  0.36279  0.24661  0.70260  1.0000
  H   H325      1.0  0.25977  0.29584  0.66931  1.0000
  H   H326      1.0  0.25134  0.30500  0.59936  1.0000
  H   H327      1.0  0.08204  0.19265  0.50721  1.0000
  C   C183      1.0  0.21456  0.20864  0.50309  1.0000
  C   C184      1.0  0.27594  0.07671  0.61297  1.0000
  H   H328      1.0  0.28624  0.20448  0.66813  1.0000
  H   H329      1.0  0.10366  0.23084  0.55270  1.0000
  Fe  Fe28      1.0  0.40415  0.28505  0.73345  1.0000
  H   H330      1.0  0.40320  0.15797  0.71924  1.0000
  C   C185      1.0  0.29747  0.19486  0.66087  1.0000
  H   H331      1.0  0.38181  0.23127  0.65684  1.0000
  C   C186      1.0  0.34841  0.19442  0.68178  1.0000
  H   H332      1.0  0.39335  0.24235  0.68137  1.0000
  C   C187      1.0  0.27044  0.06487  0.65550  1.0000
  C   C188      1.0  0.09001  0.18086  0.54420  1.0000
  H   H333      1.0  0.29482  0.17622  0.66829  1.0000
  H   H334      1.0  0.26283  0.33008  0.66651  1.0000
  H   H335      1.0  0.05494  0.16139  0.51360  1.0000
  C   C189      1.0  0.17691  0.07657  0.59435  1.0000
  H   H336      1.0  0.32748  0.23610  0.65624  1.0000
  C   C190      1.0  0.22374  0.23719  0.50246  1.0000
  H   H337      1.0  0.21979  0.25302  0.64213  1.0000
  H   H338      1.0  0.26877  0.09007  0.58423  1.0000
  C   C191      1.0  0.40189  0.17401  0.72781  1.0000
  H   H339      1.0  0.01905  0.14393  0.53344  1.0000
  H   H340      1.0  0.19224  0.28405  0.61232  1.0000
  H   H341      1.0  0.35076  0.15785  0.67148  1.0000
  S   S53       1.0  0.23443  0.99425  0.56906  1.0000
  H   H342      1.0  0.21544  0.31334  0.66090  1.0000
  C   C192      1.0  0.35365  0.17781  0.66580  1.0000
  H   H343      1.0  0.33747  0.25066  0.68829  1.0000
  H   H344      1.0  0.28717  0.18699  0.64618  1.0000
  H   H345      1.0  0.18652  0.02297  0.63025  1.0000
  C   C193      1.0  0.21347  0.28630  0.61507  1.0000
  C   C194      1.0  0.06362  0.18428  0.51589  1.0000
  C   C195      1.0  0.17858  0.24829  0.64328  1.0000
  C   C196      1.0  0.40761  0.19950  0.71987  1.0000
  H   H346      1.0  0.29601  0.09588  0.61641  1.0000
  H   H347      1.0  0.05507  0.19054  0.56437  1.0000
  H   H348      1.0  0.32859  0.17980  0.68761  1.0000
  C   C197      1.0  0.26866  0.12829  0.61547  1.0000
  H   H349      1.0  0.37532  0.18878  0.66156  1.0000
  S   S54       1.0  0.36130  0.27213  0.74254  1.0000
  H   H350      1.0  0.05943  0.23829  0.52800  1.0000
  H   H351      1.0  0.41338  0.20295  0.70517  1.0000
  C   C198      1.0  0.23190  0.30648  0.60048  1.0000
  C   C199      1.0  0.07434  0.24224  0.54050  1.0000
  H   H352      1.0  0.17157  0.24144  0.62793  1.0000
  Fe  Fe29      1.0  0.41206  0.06110  0.73946  1.0000
  H   H353      1.0  0.27589  0.07191  0.67098  1.0000
  H   H354      1.0  0.47308  0.12628  0.73008  1.0000
  H   H355      1.0  0.23397  0.03238  0.62408  1.0000
  H   H356      1.0  0.37919  0.28066  0.67714  1.0000
  S   S55       1.0  0.21808  0.19315  0.52454  1.0000
  S   S56       1.0  0.40692  0.09131  0.72016  1.0000
  H   H357      1.0  0.33666  0.04508  0.63669  1.0000
  S   S57       1.0  0.35181  0.05085  0.67749  1.0000
  N   N16       1.0  0.34852  0.22088  0.67594  1.0000
  C   C200      1.0  0.40623  0.22065  0.73092  1.0000
  S   S58       1.0  0.32076  0.28963  0.70393  1.0000
  H   H358      1.0  0.40502  0.28198  0.66215  1.0000
  S   S59       1.0  0.23793  0.19273  0.57969  1.0000
  H   H359      1.0  0.22061  0.30028  0.58595  1.0000
  N   N17       1.0  0.07231  0.19364  0.53684  1.0000
  C   C201      1.0  0.07784  0.22644  0.59623  1.0000
  H   H360      1.0  0.37038  0.26937  0.65187  1.0000
  H   H361      1.0  0.11808  0.19017  0.52036  1.0000
  H   H362      1.0  0.13303  0.21399  0.54145  1.0000
  Fe  Fe30      1.0  0.21538  0.20393  0.55616  1.0000
  S   S60       1.0  0.15491  0.23822  0.58582  1.0000
  H   H363      1.0  0.21500  0.27026  0.66238  1.0000
  H   H364      1.0  0.28248  0.10560  0.64625  1.0000
  H   H365      1.0  0.07940  0.15804  0.54088  1.0000
  H   H366      1.0  0.25293  0.04347  0.65491  1.0000
  H   H367      1.0  0.31625  0.22942  0.71612  1.0000
  H   H368      1.0  0.25182  0.05287  0.58626  1.0000
  H   H369      1.0  0.29537  0.01246  0.68803  1.0000
  H   H370      1.0  0.12888  0.17976  0.54181  1.0000
  C   C202      1.0  0.11900  0.19214  0.53629  1.0000
  Fe  Fe31      1.0  0.24260  0.22997  0.59733  1.0000
  C   C203      1.0  0.20719  0.09362  0.56179  1.0000
  Fe  Fe32      1.0  0.42244  0.34802  0.73805  1.0000
  S   S61       1.0  0.17343  0.17910  0.56760  1.0000
  C   C204      1.0  0.20194  0.11245  0.57257  1.0000
  H   H371      1.0  0.27983  0.05942  0.61762  1.0000
  C   C205      1.0  0.34338  0.23488  0.69307  1.0000
  Fe  Fe33      1.0  0.36448  0.05564  0.71007  1.0000
  C   C206      1.0  0.26688  0.31375  0.66002  1.0000
  C   C207      1.0  0.31792  0.03217  0.64361  1.0000
  H   H372      1.0  0.30155  0.20107  0.69872  1.0000
  H   H373      1.0  0.19000  0.30291  0.64179  1.0000
  S   S62       1.0  0.22394  0.24349  0.57255  1.0000
  H   H374      1.0  0.06361  0.23902  0.55405  1.0000
  C   C208      1.0  0.32127  0.21617  0.70648  1.0000
  H   H375      1.0  0.06647  0.23804  0.59455  1.0000
  C   C209      1.0  0.20407  0.04399  0.63412  1.0000
  H   H376      1.0  0.33472  0.21144  0.64536  1.0000
  H   H377      1.0  0.11559  0.25884  0.58627  1.0000
  C   C210      1.0  0.32801  0.21640  0.65909  1.0000
  H   H378      1.0  0.35150  0.30827  0.66920  1.0000
  C   C211      1.0  0.38283  0.26955  0.66505  1.0000
  C   C212      1.0  0.07996  0.18505  0.60536  1.0000
  C   C213      1.0  0.18202  0.05765  0.58348  1.0000
  H   H379      1.0  0.26002  0.14105  0.60863  1.0000
  C   C214      1.0  0.29448  0.26582  0.63896  1.0000
  C   C215      1.0  0.32189  0.28564  0.64504  1.0000
  Fe  Fe34      1.0  0.19648  0.17045  0.59192  1.0000
  H   H380      1.0  0.08975  0.26462  0.54090  1.0000
  H   H381      1.0  0.20949  0.13345  0.56816  1.0000
  H   H382      1.0  0.21899  0.10038  0.54921  1.0000
  H   H383      1.0  0.17399  0.03647  0.58762  1.0000
  C   C216      1.0  0.06478  0.19974  0.60310  1.0000
  H   H384      1.0  0.07005  0.16443  0.61075  1.0000
  C   C217      1.0  0.27590  0.25255  0.65300  1.0000
  C   C218      1.0  0.18708  0.10410  0.58903  1.0000
  H   H385      1.0  0.33645  0.29612  0.63435  1.0000
  C   C219      1.0  0.33053  0.29254  0.66482  1.0000
  C   C220      1.0  0.31171  0.27998  0.67884  1.0000
  S   S63       1.0  0.45512  0.39505  0.73765  1.0000
  C   C221      1.0  0.08974  0.22486  0.53923  1.0000
  H   H386      1.0  0.11896  0.18488  0.60189  1.0000
  C   C222      1.0  0.29481  0.01384  0.67253  1.0000
  S   S64       1.0  0.18191  0.12788  0.60353  1.0000
  C   C223      1.0  0.28442  0.25981  0.67278  1.0000
  Fe  Fe35      1.0  0.36186  0.30428  0.72253  1.0000
  C   C224      1.0  0.21285  0.31197  0.64485  1.0000
  C   C225      1.0  0.10770  0.19661  0.60039  1.0000
  S   S65       1.0  0.40429  0.31629  0.71266  1.0000
  H   H387      1.0  0.16506  0.06991  0.60691  1.0000
  H   H388      1.0  0.36436  0.19910  0.69397  1.0000
  N   N18       1.0  0.22302  0.29318  0.63624  1.0000
  S   S66       1.0  0.20598  0.04388  0.55403  1.0000
  H   H389      1.0  0.33882  0.17269  0.65297  1.0000
  H   H390      1.0  0.23157  0.25022  0.51563  1.0000
  H   H391      1.0  0.19606  0.05897  0.63182  1.0000
  S   S67       1.0  0.20221  0.20696  0.61101  1.0000
  S   S68       1.0  0.28427  0.25964  0.61376  1.0000
  C   C226      1.0  0.24502  0.09825  0.61596  1.0000
  C   C227      1.0  0.37723  0.24000  0.66991  1.0000
  Fe  Fe36      1.0  0.19835  0.00327  0.56638  1.0000
  H   H392      1.0  0.29215  0.01785  0.61669  1.0000
  H   H393      1.0  0.22903  0.09952  0.62451  1.0000
  H   H394      1.0  0.17220  0.22907  0.65125  1.0000
  H   H395      1.0  0.10388  0.23286  0.52734  1.0000
  C   C228      1.0  0.21045  0.26634  0.64650  1.0000
  C   C229      1.0  0.25416  0.30529  0.63904  1.0000
  H   H396      1.0  0.16724  0.25884  0.64894  1.0000
  H   H397      1.0  0.28835  0.07163  0.58459  1.0000
  H   H398      1.0  0.26055  0.29030  0.63310  1.0000
  C   C230      1.0  0.29265  0.01677  0.63220  1.0000
  H   H399      1.0  0.19683  0.00898  0.51483  1.0000
  H   H400      1.0  0.47411  0.18064  0.71816  1.0000
  C   C231      1.0  0.47432  0.18874  0.73298  1.0000
  H   H401      1.0  0.42436  0.99632  0.74349  1.0000
  S   S69       1.0  0.37930  0.33828  0.74638  1.0000
  H   H402      1.0  0.00363  0.40385  0.72643  1.0000
  H   H403      1.0  0.48065  0.45482  0.73764  1.0000
  C   C232      1.0  0.39899  0.21607  0.74996  1.0000
  H   H404      1.0  0.19034  0.04746  0.50949  1.0000
  C   C233      1.0  0.98460  0.39632  0.68816  1.0000
  C   C234      1.0  0.98918  0.38226  0.72982  1.0000
  C   C235      1.0  0.98177  0.36169  0.71222  1.0000
  H   H405      1.0  0.98436  0.41205  0.69852  1.0000
  Fe  Fe37      1.0  0.02210  0.22038  0.90859  1.0000
  H   H406      1.0  0.07902  0.30334  0.88474  1.0000
  S   S70       1.0  0.06910  0.23820  0.91456  1.0000
  Fe  Fe38      1.0  0.19128  0.20290  0.89245  1.0000
  S   S71       1.0  0.22259  0.24775  0.89107  1.0000
  S   S72       1.0  0.14404  0.18400  0.88928  1.0000
  Fe  Fe39      1.0  0.23656  0.18563  0.90022  1.0000
  S   S73       1.0  0.27121  0.22956  0.90003  1.0000
  S   S74       1.0  0.24894  0.15253  0.90706  1.0000
  Fe  Fe40      1.0  0.24355  0.24014  0.91755  1.0000
  S   S75       1.0  0.25555  0.26992  0.94402  1.0000
  Fe  Fe41      1.0  0.24756  0.23309  0.87358  1.0000
  S   S76       1.0  0.26280  0.24652  0.84329  1.0000
  S   S77       1.0  0.21101  0.19607  0.91957  1.0000
  S   S78       1.0  0.21418  0.18830  0.87310  1.0000
  C   C236      1.0  0.28514  0.07281  0.79953  1.0000
  S   S79       1.0  0.18120  0.02655  0.87561  1.0000
  S   S80       1.0  0.24168  0.01196  0.89463  1.0000
  C   C237      1.0  0.45441  0.35697  0.80131  1.0000
  S   S81       1.0  0.39184  0.07114  0.76387  1.0000
  H   H407      1.0  0.25454  0.04344  0.96768  1.0000
  H   H408      1.0  0.27694  0.15540  0.87257  1.0000
  S   S82       1.0  0.39123  0.13954  0.75846  1.0000
  S   S83       1.0  0.31540  0.00558  0.76817  1.0000
  H   H409      1.0  0.27897  0.13556  0.84365  1.0000
  C   C238      1.0  0.42500  0.37832  0.83108  1.0000
  H   H410      1.0  0.15380  0.26403  0.96727  1.0000
  Fe  Fe42      1.0  0.38158  0.30667  0.76556  1.0000
  H   H411      1.0  0.41065  0.38982  0.76812  1.0000
  S   S84       1.0  0.37399  0.30573  0.79793  1.0000
  H   H412      1.0  0.45356  0.44204  0.79241  1.0000
  H   H413      1.0  0.05671  0.23266  0.96154  1.0000
  C   C239      1.0  0.13434  0.21820  0.95898  1.0000
  N   N19       1.0  0.44908  0.40200  0.80051  1.0000
  H   H414      1.0  0.12113  0.24957  0.95379  1.0000
  H   H415      1.0  0.12605  0.21284  0.94360  1.0000
  H   H416      1.0  0.12107  0.16929  0.94001  1.0000
  H   H417      1.0  0.21708  0.14783  0.83606  1.0000
  H   H418      1.0  0.42618  0.01041  0.77638  1.0000
  H   H419      1.0  0.33053  0.18696  0.87766  1.0000
  H   H420      1.0  0.45419  0.37945  0.77649  1.0000
  H   H421      1.0  0.05353  0.19319  0.85089  1.0000
  H   H422      1.0  0.24544  0.03720  0.79367  1.0000
  H   H423      1.0  0.06089  0.30822  0.86369  1.0000
  C   C240      1.0  0.28970  0.00274  0.83087  1.0000
  H   H424      1.0  0.34042  0.17901  0.84547  1.0000
  C   C241      1.0  0.30580  0.00578  0.79231  1.0000
  C   C242      1.0  0.32331  0.02569  0.80663  1.0000
  C   C243      1.0  0.31540  0.02399  0.82578  1.0000
  H   H425      1.0  0.34312  0.04216  0.80304  1.0000
  H   H426      1.0  0.32932  0.03930  0.83676  1.0000
  C   C244      1.0  0.22890  0.11748  0.89872  1.0000
  C   C245      1.0  0.20486  0.10839  0.88638  1.0000
  C   C246      1.0  0.19020  0.08038  0.87950  1.0000
  C   C247      1.0  0.19925  0.06128  0.88515  1.0000
  C   C248      1.0  0.22298  0.07039  0.89777  1.0000
  C   C249      1.0  0.23787  0.09839  0.90437  1.0000
  H   H427      1.0  0.19754  0.12287  0.88215  1.0000
  H   H428      1.0  0.17171  0.07346  0.86986  1.0000
  H   H429      1.0  0.22992  0.05591  0.90252  1.0000
  H   H430      1.0  0.25634  0.10524  0.91402  1.0000
  C   C250      1.0  0.29411  0.26385  0.83114  1.0000
  C   C251      1.0  0.32047  0.27799  0.84096  1.0000
  C   C252      1.0  0.34453  0.29072  0.83058  1.0000
  C   C253      1.0  0.34274  0.28946  0.81023  1.0000
  C   C254      1.0  0.31640  0.27534  0.80043  1.0000
  C   C255      1.0  0.29235  0.26279  0.81081  1.0000
  H   H431      1.0  0.32231  0.27919  0.85656  1.0000
  H   H432      1.0  0.36471  0.30159  0.83838  1.0000
  H   H433      1.0  0.31453  0.27420  0.78482  1.0000
  H   H434      1.0  0.27216  0.25205  0.80299  1.0000
  H   H435      1.0  0.44060  0.14466  0.78242  1.0000
  C   C256      1.0  0.25473  0.26073  0.96843  1.0000
  C   C257      1.0  0.25295  0.23541  0.97382  1.0000
  C   C258      1.0  0.25699  0.28013  0.98294  1.0000
  H   H436      1.0  0.25141  0.22035  0.96281  1.0000
  H   H437      1.0  0.25848  0.29978  0.97896  1.0000
  C   C259      1.0  0.46666  0.13062  0.76706  1.0000
  H   H438      1.0  0.23362  0.14636  0.85839  1.0000
  C   C260      1.0  0.08951  0.22265  0.90756  1.0000
  C   C261      1.0  0.07769  0.19450  0.90182  1.0000
  C   C262      1.0  0.09471  0.18305  0.89627  1.0000
  C   C263      1.0  0.12366  0.19955  0.89639  1.0000
  C   C264      1.0  0.13545  0.22776  0.90202  1.0000
  C   C265      1.0  0.11848  0.23917  0.90776  1.0000
  H   H439      1.0  0.05544  0.18154  0.90160  1.0000
  H   H440      1.0  0.08538  0.16123  0.89183  1.0000
  H   H441      1.0  0.15763  0.24079  0.90179  1.0000
  H   H442      1.0  0.12781  0.26100  0.91212  1.0000
  H   H443      1.0  0.40392  0.41309  0.78331  1.0000
  N   N20       1.0  0.07415  0.26471  0.85273  1.0000
  C   C266      1.0  0.07723  0.28346  0.83645  1.0000
  C   C267      1.0  0.10196  0.27481  0.86373  1.0000
  S   S85       1.0  0.99729  0.20288  0.88022  1.0000
  C   C268      1.0  0.06325  0.23543  0.84433  1.0000
  C   C269      1.0  0.04989  0.27845  0.82535  1.0000
  C   C270      1.0  0.42697  0.39686  0.81426  1.0000
  H   H444      1.0  0.39904  0.04730  0.81061  1.0000
  C   C271      1.0  0.06396  0.21420  0.85829  1.0000
  H   H445      1.0  0.42063  0.04469  0.79333  1.0000
  H   H446      1.0  0.09020  0.28118  0.82548  1.0000
  H   H447      1.0  0.19665  0.01342  0.80440  1.0000
  H   H448      1.0  0.08864  0.30570  0.84164  1.0000
  H   H449      1.0  0.42153  0.36191  0.78622  1.0000
  H   H450      1.0  0.05274  0.21307  0.87126  1.0000
  H   H451      1.0  0.04121  0.22684  0.83861  1.0000
  H   H452      1.0  0.07470  0.23494  0.83170  1.0000
  H   H453      1.0  0.00441  0.17224  0.98666  1.0000
  H   H454      1.0  0.03619  0.28258  0.83458  1.0000
  C   C272      1.0  0.22670  0.02203  0.82959  1.0000
  H   H455      1.0  0.44887  0.11368  0.75827  1.0000
  H   H456      1.0  0.04252  0.29112  0.88369  1.0000
  H   H457      1.0  0.43761  0.33508  0.80033  1.0000
  C   C273      1.0  0.14103  0.16946  0.94403  1.0000
  Fe  Fe43      1.0  0.19732  0.99664  0.88411  1.0000
  H   H458      1.0  0.44308  0.11614  0.79216  1.0000
  C   C274      1.0  0.04724  0.21494  0.97105  1.0000
  H   H459      1.0  0.39796  0.23221  0.75862  1.0000
  H   H460      1.0  0.13121  0.28910  0.84082  1.0000
  N   N21       1.0  0.28934  0.17881  0.84685  1.0000
  C   C275      1.0  0.26177  0.17454  0.83780  1.0000
  C   C276      1.0  0.31103  0.20728  0.84196  1.0000
  C   C277      1.0  0.28728  0.17739  0.86843  1.0000
  C   C278      1.0  0.29457  0.15598  0.83887  1.0000
  C   C279      1.0  0.23596  0.14771  0.84268  1.0000
  C   C280      1.0  0.31550  0.21169  0.82034  1.0000
  H   H461      1.0  0.21468  0.02319  0.84160  1.0000
  C   C281      1.0  0.32293  0.15768  0.84465  1.0000
  H   H462      1.0  0.25807  0.19220  0.84214  1.0000
  H   H463      1.0  0.26149  0.17415  0.82180  1.0000
  H   H464      1.0  0.33172  0.21311  0.84915  1.0000
  H   H465      1.0  0.30570  0.22323  0.84767  1.0000
  H   H466      1.0  0.27392  0.18634  0.87325  1.0000
  H   H467      1.0  0.29110  0.15347  0.82285  1.0000
  H   H468      1.0  0.23607  0.12881  0.83676  1.0000
  H   H469      1.0  0.32092  0.19655  0.81353  1.0000
  H   H470      1.0  0.29733  0.21140  0.81225  1.0000
  H   H471      1.0  0.33324  0.23263  0.81882  1.0000
  H   H472      1.0  0.09996  0.26298  0.87690  1.0000
  H   H473      1.0  0.32287  0.21555  0.88126  1.0000
  H   H474      1.0  0.11873  0.20146  0.96728  1.0000
  H   H475      1.0  0.32799  0.14646  0.83333  1.0000
  N   N22       1.0  0.24704  0.05046  0.82367  1.0000
  C   C282      1.0  0.26070  0.04645  0.80642  1.0000
  H   H476      1.0  0.36918  0.01751  0.78358  1.0000
  C   C283      1.0  0.26947  0.06473  0.83979  1.0000
  C   C284      1.0  0.23332  0.06795  0.81816  1.0000
  H   H477      1.0  0.06034  0.20447  0.97115  1.0000
  H   H478      1.0  0.42959  0.41696  0.82057  1.0000
  C   C285      1.0  0.26022  0.06992  0.85929  1.0000
  C   C286      1.0  0.20794  0.06385  0.82911  1.0000
  H   H479      1.0  0.47205  0.35683  0.79423  1.0000
  C   C287      1.0  0.37876  0.00822  0.79352  1.0000
  H   H480      1.0  0.11028  0.29675  0.86920  1.0000
  H   H481      1.0  0.44453  0.38629  0.84039  1.0000
  H   H482      1.0  0.28083  0.05261  0.84255  1.0000
  H   H483      1.0  0.28530  0.08553  0.83580  1.0000
  H   H484      1.0  0.24864  0.09042  0.81981  1.0000
  H   H485      1.0  0.22583  0.06415  0.80261  1.0000
  C   C288      1.0  0.25501  0.23035  0.99356  1.0000
  S   S86       1.0  0.28102  0.00199  0.85532  1.0000
  H   H486      1.0  0.21204  0.03096  0.98370  1.0000
  H   H487      1.0  0.03240  0.25473  0.85950  1.0000
  H   H488      1.0  0.30415  0.07962  0.80935  1.0000
  H   H489      1.0  0.00275  0.26380  0.97216  1.0000
  H   H490      1.0  0.27795  0.07686  0.87034  1.0000
  H   H491      1.0  0.24320  0.05102  0.86461  1.0000
  H   H492      1.0  0.25455  0.08687  0.85878  1.0000
  H   H493      1.0  0.18974  0.04322  0.82548  1.0000
  H   H494      1.0  0.20151  0.07953  0.82480  1.0000
  H   H495      1.0  0.21220  0.06638  0.84491  1.0000
  H   H496      1.0  0.23795  0.01100  0.83543  1.0000
  H   H497      1.0  0.30990  0.18717  0.89659  1.0000
  S   S87       1.0  0.00627  0.25146  0.91248  1.0000
  H   H498      1.0  0.46041  0.36244  0.81681  1.0000
  H   H499      1.0  0.42194  0.42474  0.76202  1.0000
  N   N23       1.0  0.16197  0.21832  0.96162  1.0000
  C   C289      1.0  0.15683  0.18864  0.96209  1.0000
  C   C290      1.0  0.17855  0.23319  0.98018  1.0000
  C   C291      1.0  0.17936  0.23097  0.94491  1.0000
  C   C292      1.0  0.40508  0.03265  0.80363  1.0000
  C   C293      1.0  0.18790  0.26162  0.94162  1.0000
  H   H500      1.0  0.17685  0.18798  0.96452  1.0000
  H   H501      1.0  0.18513  0.25568  0.98062  1.0000
  H   H502      1.0  0.19850  0.23228  0.98138  1.0000
  H   H503      1.0  0.19880  0.22923  0.94654  1.0000
  H   H504      1.0  0.16847  0.21955  0.93107  1.0000
  C   C294      1.0  0.44408  0.37518  0.79036  1.0000
  H   H505      1.0  0.41477  0.02575  0.81520  1.0000
  H   H506      1.0  0.16974  0.26468  0.93753  1.0000
  H   H507      1.0  0.20110  0.26797  0.92919  1.0000
  H   H508      1.0  0.20075  0.27577  0.95400  1.0000
  C   C295      1.0  0.12496  0.27397  0.85228  1.0000
  C   C296      1.0  0.44752  0.42110  0.78565  1.0000
  C   C297      1.0  0.05987  0.29379  0.87490  1.0000
  H   H509      1.0  0.40890  0.37768  0.84043  1.0000
  H   H510      1.0  0.32245  0.14798  0.85859  1.0000
  C   C298      1.0  0.23163  0.03868  0.99305  1.0000
  S   S88       1.0  0.98966  0.18800  0.92564  1.0000
  C   C299      1.0  0.05388  0.26500  0.86643  1.0000
  C   C300      1.0  0.39402  0.19090  0.75805  1.0000
  H   H511      1.0  0.47211  0.14972  0.79624  1.0000
  C   C301      1.0  0.25511  0.05665  0.98028  1.0000
  H   H512      1.0  0.25544  0.21154  0.99757  1.0000
  H   H513      1.0  0.38918  0.18785  0.77296  1.0000
  H   H514      1.0  0.14366  0.27997  0.86229  1.0000
  H   H515      1.0  0.40594  0.38630  0.80654  1.0000
  C   C302      1.0  0.16415  0.22205  0.99890  1.0000
  H   H516      1.0  0.48016  0.43709  0.81824  1.0000
  H   H517      1.0  0.28004  0.09004  0.79787  1.0000
  H   H518      1.0  0.03821  0.25713  0.81861  1.0000
  H   H519      1.0  0.08543  0.21858  0.86282  1.0000
  C   C303      1.0  0.40502  0.00084  0.76882  1.0000
  H   H520      1.0  0.13608  0.14781  0.94705  1.0000
  H   H521      1.0  0.29035  0.06788  0.78521  1.0000
  C   C304      1.0  0.31448  0.19269  0.88143  1.0000
  C   C305      1.0  0.45516  0.13620  0.78540  1.0000
  H   H522      1.0  0.41777  0.35651  0.82583  1.0000
  C   C306      1.0  0.99144  0.25200  0.98391  1.0000
  H   H523      1.0  0.12234  0.24235  0.97844  1.0000
  C   C307      1.0  0.13348  0.24519  0.96512  1.0000
  H   H524      1.0  0.23369  0.01991  0.99609  1.0000
  H   H525      1.0  0.05305  0.25261  0.87901  1.0000
  S   S89       1.0  0.42519  0.31729  0.75802  1.0000
  C   C308      1.0  0.20547  0.00262  0.81342  1.0000
  C   C309      1.0  0.41918  0.41128  0.77433  1.0000
  H   H526      1.0  0.27601  0.06490  0.98784  1.0000
  H   H527      1.0  0.14439  0.17817  0.97434  1.0000
  H   H528      1.0  0.05484  0.29297  0.81351  1.0000
  H   H529      1.0  0.15380  0.17478  0.93144  1.0000
  H   H530      1.0  0.02625  0.20096  0.96419  1.0000
  H   H531      1.0  0.25225  0.07390  0.97443  1.0000
  H   H532      1.0  0.26856  0.03141  0.80933  1.0000
  H   H533      1.0  0.11908  0.25302  0.84591  1.0000
  C   C310      1.0  0.00540  0.18464  0.99986  1.0000
  H   H534      1.0  0.99358  0.19591  0.99577  1.0000
  H   H535      1.0  0.40280  0.01837  0.76266  1.0000
  H   H536      1.0  0.46253  0.42461  0.77457  1.0000
  H   H537      1.0  0.06733  0.24299  0.99552  1.0000
  H   H538      1.0  0.20520  0.06799  0.99565  1.0000
  C   C311      1.0  0.04609  0.22618  0.99135  1.0000
  H   H539      1.0  0.48028  0.40592  0.82312  1.0000
  H   H540      1.0  0.04810  0.17543  0.99585  1.0000
  H   H541      1.0  0.45336  0.17179  0.75837  1.0000
  H   H542      1.0  0.14282  0.21946  0.99838  1.0000
  H   H543      1.0  0.47999  0.12148  0.77216  1.0000
  H   H544      1.0  0.03328  0.23700  0.98976  1.0000
  H   H545      1.0  0.21509  0.99328  0.80409  1.0000
  H   H546      1.0  0.36403  0.99910  0.80493  1.0000
  H   H547      1.0  0.98200  0.26674  0.81638  1.0000
  C   C312      1.0  0.47745  0.41742  0.81109  1.0000
  H   H548      1.0  0.17515  0.00816  0.99974  1.0000
  H   H549      1.0  0.24081  0.09236  0.99936  1.0000
  H   H550      1.0  0.27631  0.49515  0.22390  1.0000
  H   H551      1.0  0.05405  0.67495  0.06500  1.0000
  H   H552      1.0  0.01044  0.73478  0.15132  1.0000
  C   C313      1.0  0.35301  0.90188  0.17182  1.0000
  Fe  Fe44      1.0  0.28677  0.90816  0.21713  1.0000
  S   S90       1.0  0.27468  0.93516  0.19794  1.0000
  S   S91       1.0  0.30203  0.87826  0.20808  1.0000
  C   C314      1.0  0.99275  0.75953  0.01140  1.0000
  H   H553      1.0  0.31946  0.94896  0.14475  1.0000
  C   C315      1.0  0.06673  0.72881  0.08086  1.0000
  C   C316      1.0  0.33458  0.96956  0.15146  1.0000
  H   H554      1.0  0.12196  0.68795  0.18288  1.0000
  C   C317      1.0  0.36995  0.52338  0.22425  1.0000
  Fe  Fe45      1.0  0.05402  0.66982  0.22532  1.0000
  S   S92       1.0  0.04084  0.69221  0.20257  1.0000
  S   S93       1.0  0.09011  0.66031  0.22821  1.0000
  Fe  Fe46      1.0  0.22142  0.95896  0.09213  1.0000
  H   H555      1.0  0.44020  0.94390  0.22513  1.0000
  C   C318      1.0  0.20293  0.79376  0.24511  1.0000
  C   C319      1.0  0.29596  0.50924  0.23250  1.0000
  C   C320      1.0  0.18359  0.95083  0.15705  1.0000
  H   H556      1.0  0.07130  0.49634  0.20849  1.0000
  Fe  Fe47      1.0  0.16769  0.96220  0.09166  1.0000
  S   S94       1.0  0.13190  0.95288  0.10993  1.0000
  S   S95       1.0  0.17867  0.93204  0.07742  1.0000
  H   H557      1.0  0.17036  0.71369  0.23635  1.0000
  S   S96       1.0  0.02881  0.83643  0.12350  1.0000
  S   S97       1.0  0.02684  0.77663  0.08949  1.0000
  S   S98       1.0  0.38160  0.91173  0.23059  1.0000
  C   C321      1.0  0.45932  0.91726  0.22834  1.0000
  H   H558      1.0  0.29210  0.50504  0.24779  1.0000
  C   C322      1.0  0.04114  0.66964  0.05116  1.0000
  C   C323      1.0  0.20207  0.75387  0.22874  1.0000
  C   C324      1.0  0.03446  0.67968  0.16269  1.0000
  C   C325      1.0  0.10339  0.91973  0.11211  1.0000
  C   C326      1.0  0.09673  0.89668  0.09947  1.0000
  C   C327      1.0  0.07346  0.87077  0.10233  1.0000
  C   C328      1.0  0.05734  0.86799  0.11801  1.0000
  C   C329      1.0  0.06452  0.89102  0.13060  1.0000
  C   C330      1.0  0.08709  0.91670  0.12756  1.0000
  H   H559      1.0  0.10918  0.89888  0.08743  1.0000
  H   H560      1.0  0.06808  0.85302  0.09255  1.0000
  H   H561      1.0  0.05224  0.88905  0.14273  1.0000
  H   H562      1.0  0.09200  0.93432  0.13736  1.0000
  C   C331      1.0  0.03216  0.69547  0.17794  1.0000
  H   H563      1.0  0.12971  0.85562  0.13741  1.0000
  H   H564      1.0  0.42481  0.84929  0.23810  1.0000
  H   H565      1.0  0.38041  0.95962  0.14838  1.0000
  C   C332      1.0  0.01720  0.71949  0.15434  1.0000
  C   C333      1.0  0.02362  0.71546  0.17357  1.0000
  H   H566      1.0  0.03607  0.74634  0.01432  1.0000
  H   H567      1.0  0.00148  0.72267  0.04546  1.0000
  S   S99       1.0  0.25558  0.87872  0.23651  1.0000
  Fe  Fe48      1.0  0.00553  0.79706  0.10444  1.0000
  H   H568      1.0  0.02564  0.69456  0.07569  1.0000
  H   H569      1.0  0.35108  0.55863  0.23542  1.0000
  Fe  Fe49      1.0  0.19221  0.96152  0.05324  1.0000
  S   S100      1.0  0.32034  0.92823  0.24158  1.0000
  C   C334      1.0  0.40950  0.90264  0.23126  1.0000
  S   S101      1.0  0.02648  0.63286  0.24174  1.0000
  C   C335      1.0  0.42978  0.49791  0.23030  1.0000
  C   C336      1.0  0.45486  0.52177  0.22658  1.0000
  H   H570      1.0  0.38432  0.50570  0.20201  1.0000
  C   C337      1.0  0.41797  0.49589  0.24799  1.0000
  C   C338      1.0  0.25009  0.93557  0.13313  1.0000
  C   C339      1.0  0.25071  0.95530  0.14659  1.0000
  C   C340      1.0  0.25801  0.95460  0.16630  1.0000
  C   C341      1.0  0.26459  0.93410  0.17294  1.0000
  C   C342      1.0  0.26359  0.91410  0.15953  1.0000
  C   C343      1.0  0.25653  0.91495  0.13977  1.0000
  C   C344      1.0  0.37558  0.97858  0.20933  1.0000
  H   H571      1.0  0.20031  0.94815  0.16478  1.0000
  H   H572      1.0  0.26850  0.89813  0.16433  1.0000
  C   C345      1.0  0.42836  0.87004  0.23527  1.0000
  Fe  Fe50      1.0  0.27285  0.85014  0.22916  1.0000
  H   H573      1.0  0.37153  0.90663  0.16378  1.0000
  S   S102      1.0  0.24199  0.93605  0.10795  1.0000
  C   C346      1.0  0.04680  0.69585  0.04019  1.0000
  H   H574      1.0  0.02688  0.72717  0.07561  1.0000
  S   S103      1.0  0.00765  0.77664  0.03438  1.0000
  S   S104      1.0  0.01109  0.70754  0.11452  1.0000
  H   H575      1.0  0.07697  0.75157  0.04815  1.0000
  C   C347      1.0  0.31956  0.50405  0.22559  1.0000
  H   H576      1.0  0.33685  0.88071  0.16662  1.0000
  H   H577      1.0  0.33685  0.92112  0.15221  1.0000
  H   H578      1.0  0.23413  0.96538  0.01510  1.0000
  H   H579      1.0  0.00432  0.49403  0.19009  1.0000
  N   N24       1.0  0.12111  0.75050  0.19416  1.0000
  C   C348      1.0  0.11449  0.72370  0.18317  1.0000
  C   C349      1.0  0.10154  0.76063  0.18605  1.0000
  C   C350      1.0  0.11643  0.74431  0.21515  1.0000
  C   C351      1.0  0.15109  0.77086  0.19179  1.0000
  C   C352      1.0  0.13128  0.70900  0.19017  1.0000
  C   C353      1.0  0.10098  0.76430  0.16412  1.0000
  C   C354      1.0  0.10686  0.76196  0.22715  1.0000
  C   C355      1.0  0.16192  0.80021  0.20114  1.0000
  H   H580      1.0  0.09205  0.70856  0.18356  1.0000
  H   H581      1.0  0.11824  0.72703  0.16766  1.0000
  H   H582      1.0  0.10586  0.78078  0.19312  1.0000
  H   H583      1.0  0.07990  0.74599  0.18923  1.0000
  H   H584      1.0  0.10023  0.72245  0.21661  1.0000
  H   H585      1.0  0.13542  0.74594  0.22284  1.0000
  H   H586      1.0  0.16509  0.76314  0.19820  1.0000
  H   H587      1.0  0.15515  0.77299  0.17627  1.0000
  H   H588      1.0  0.15312  0.72023  0.18628  1.0000
  H   H589      1.0  0.13104  0.70621  0.20590  1.0000
  H   H590      1.0  0.09081  0.74395  0.15582  1.0000
  H   H591      1.0  0.08803  0.77451  0.16052  1.0000
  H   H592      1.0  0.12189  0.77759  0.15922  1.0000
  C   C356      1.0  0.03751  0.71559  0.07026  1.0000
  H   H593      1.0  0.21199  0.81602  0.24763  1.0000
  S   S105      1.0  0.20963  0.98806  0.10726  1.0000
  H   H594      1.0  0.15063  0.81097  0.19514  1.0000
  H   H595      1.0  0.18407  0.81289  0.19815  1.0000
  H   H596      1.0  0.16153  0.79986  0.21703  1.0000
  H   H597      1.0  0.11919  0.78452  0.22558  1.0000
  H   H598      1.0  0.17828  0.87680  0.18739  1.0000
  H   H599      1.0  0.10841  0.88114  0.16796  1.0000
  Fe  Fe51      1.0  0.99626  0.73771  0.10276  1.0000
  H   H600      1.0  0.19887  0.90498  0.15544  1.0000
  H   H601      1.0  0.09100  0.84758  0.15630  1.0000
  H   H602      1.0  0.25885  0.97029  0.17648  1.0000
  N   N25       1.0  0.34710  0.51757  0.23756  1.0000
  C   C357      1.0  0.05499  0.74414  0.04274  1.0000
  H   H603      1.0  0.03784  0.68879  0.02507  1.0000
  H   H604      1.0  0.01807  0.51750  0.24440  1.0000
  H   H605      1.0  0.18051  0.96645  0.16558  1.0000
  H   H606      1.0  0.35019  0.93532  0.20359  1.0000
  C   C358      1.0  0.34162  0.92255  0.16808  1.0000
  H   H607      1.0  0.14919  0.86606  0.10924  1.0000
  H   H608      1.0  0.11529  0.49753  0.20606  1.0000
  H   H609      1.0  0.08072  0.72225  0.07409  1.0000
  Fe  Fe52      1.0  0.33419  0.89627  0.23353  1.0000
  H   H610      1.0  0.18106  0.87251  0.12317  1.0000
  S   S106      1.0  0.24498  0.80426  0.22083  1.0000
  C   C359      1.0  0.34389  0.96784  0.17252  1.0000
  C   C360      1.0  0.40565  0.87595  0.23495  1.0000
  H   H611      1.0  0.00600  0.70622  0.02461  1.0000
  H   H612      1.0  0.21084  0.74522  0.21875  1.0000
  H   H613      1.0  0.18218  0.89072  0.10216  1.0000
  N   N26       1.0  0.36026  0.95226  0.17541  1.0000
  H   H614      1.0  0.11628  0.87891  0.13242  1.0000
  H   H615      1.0  0.39787  0.95239  0.16731  1.0000
  H   H616      1.0  0.14134  0.92769  0.14508  1.0000
  H   H617      1.0  0.19510  0.91333  0.18690  1.0000
  H   H618      1.0  0.46396  0.52243  0.21304  1.0000
  H   H619      1.0  0.15763  0.89393  0.18604  1.0000
  H   H620      1.0  0.37213  0.54006  0.21447  1.0000
  C   C361      1.0  0.05587  0.74832  0.02084  1.0000
  C   C362      1.0  0.38580  0.96367  0.16421  1.0000
  H   H621      1.0  0.32118  0.91418  0.17452  1.0000
  C   C363      1.0  0.17645  0.89427  0.18084  1.0000
  H   H622      1.0  0.39044  0.53112  0.23254  1.0000
  C   C364      1.0  0.00749  0.70679  0.04063  1.0000
  H   H623      1.0  0.08457  0.75544  0.22337  1.0000
  H   H624      1.0  0.17272  0.86987  0.15488  1.0000
  H   H625      1.0  0.04692  0.65624  0.04231  1.0000
  C   C365      1.0  0.45547  0.89055  0.23193  1.0000
  C   C366      1.0  0.36782  0.95208  0.19665  1.0000
  H   H626      1.0  0.12124  0.85602  0.17169  1.0000
  H   H627      1.0  0.19057  0.92319  0.12793  1.0000
  H   H628      1.0  0.14704  0.91999  0.16867  1.0000
  H   H629      1.0  0.15658  0.91310  0.11765  1.0000
  N   N27       1.0  0.15780  0.89869  0.14638  1.0000
  C   C367      1.0  0.16900  0.90574  0.12673  1.0000
  C   C368      1.0  0.15596  0.92356  0.15449  1.0000
  C   C369      1.0  0.12900  0.87431  0.14334  1.0000
  C   C370      1.0  0.17689  0.89146  0.15866  1.0000
  C   C371      1.0  0.17019  0.88208  0.11492  1.0000
  S   S107      1.0  0.17626  0.94977  0.02163  1.0000
  C   C372      1.0  0.11197  0.86471  0.16111  1.0000
  H   H630      1.0  0.04101  0.66425  0.16574  1.0000
  N   N28       1.0  0.03667  0.71493  0.04855  1.0000
  C   C373      1.0  0.46853  0.54454  0.24019  1.0000
  C   C374      1.0  0.21459  0.78279  0.23232  1.0000
  C   C375      1.0  0.36667  0.49847  0.21137  1.0000
  H   H631      1.0  0.35788  0.90071  0.18736  1.0000
  C   C376      1.0  0.02801  0.68370  0.14343  1.0000
  H   H632      1.0  0.38330  0.97618  0.22392  1.0000
  H   H633      1.0  0.07625  0.75182  0.08147  1.0000
  C   C377      1.0  0.01918  0.70350  0.13910  1.0000
  H   H634      1.0  0.02176  0.72785  0.18519  1.0000
  H   H635      1.0  0.25616  0.89958  0.12951  1.0000
  H   H636      1.0  0.07194  0.76983  0.01848  1.0000
  H   H637      1.0  0.17173  0.89788  0.00179  1.0000
  H   H638      1.0  0.24610  0.97145  0.14176  1.0000
  H   H639      1.0  0.32496  0.95828  0.18065  1.0000
  H   H640      1.0  0.35704  0.98140  0.21133  1.0000
  Fe  Fe53      1.0  0.99397  0.76640  0.06505  1.0000
  C   C378      1.0  0.17903  0.73596  0.23861  1.0000
  H   H641      1.0  0.19043  0.95974  0.14296  1.0000
  H   H642      1.0  0.38536  0.94720  0.19873  1.0000
  H   H643      1.0  0.30013  0.53082  0.23006  1.0000
  C   C379      1.0  0.43664  0.92316  0.22800  1.0000
  C   C380      1.0  0.35236  0.54506  0.24673  1.0000
  H   H644      1.0  0.06971  0.70709  0.03912  1.0000
  H   H645      1.0  0.02959  0.67116  0.13181  1.0000
  H   H646      1.0  0.32362  0.98227  0.15134  1.0000
  C   C381      1.0  0.03948  0.52182  0.24641  1.0000
  H   H647      1.0  0.34736  0.48921  0.20171  1.0000
  H   H648      1.0  0.06497  0.72255  0.09603  1.0000
  H   H649      1.0  0.04871  0.75893  0.04938  1.0000
  Fe  Fe54      1.0  0.06328  0.62451  0.24663  1.0000
  H   H650      1.0  0.32216  0.51132  0.21063  1.0000
  H   H651      1.0  0.03832  0.50813  0.20168  1.0000
  H   H652      1.0  0.06137  0.73394  0.01299  1.0000
  H   H653      1.0  0.35244  0.97981  0.14247  1.0000
  S   S108      1.0  0.23602  0.98589  0.06640  1.0000
  H   H654      1.0  0.07932  0.49877  0.18395  1.0000
  H   H655      1.0  0.38513  0.85976  0.23747  1.0000
  H   H656      1.0  0.10880  0.75822  0.24267  1.0000
  C   C382      1.0  0.08821  0.55462  0.25015  1.0000
  H   H657      1.0  0.39825  0.56949  0.24929  1.0000
  C   C383      1.0  0.04559  0.49941  0.24831  1.0000
  H   H658      1.0  0.01913  0.65697  0.05406  1.0000
  C   C384      1.0  0.01956  0.48834  0.19705  1.0000
  H   H659      1.0  0.10490  0.57574  0.25100  1.0000
  C   C385      1.0  0.06067  0.54972  0.24735  1.0000
  C   C386      1.0  0.07317  0.50428  0.25087  1.0000
  H   H660      1.0  0.47981  0.93342  0.22569  1.0000
  S   S109      1.0  0.05133  0.57728  0.24534  1.0000
  H   H661      1.0  0.98569  0.66116  0.03820  1.0000
  H   H662      1.0  0.98372  0.67578  0.06164  1.0000
  C   C387      1.0  0.98438  0.67842  0.04589  1.0000
  H   H663      1.0  0.02396  0.78902  0.33984  1.0000
  H   H664      1.0  0.24459  0.81844  0.27492  1.0000
  Fe  Fe55      1.0  0.28979  0.89657  0.26034  1.0000
  S   S110      1.0  0.27762  0.89748  0.29153  1.0000
  C   C388      1.0  0.47207  0.89794  0.28500  1.0000
  Fe  Fe56      1.0  0.04304  0.66075  0.26884  1.0000
  S   S111      1.0  0.01170  0.66186  0.28888  1.0000
  S   S112      1.0  0.07820  0.65091  0.27470  1.0000
  H   H665      1.0  0.09632  0.78887  0.43649  1.0000
  H   H666      1.0  0.03099  0.62374  0.30227  1.0000
  C   C389      1.0  0.26461  0.80533  0.31989  1.0000
  C   C390      1.0  0.25869  0.91168  0.32385  1.0000
  H   H667      1.0  0.98669  0.52316  0.28827  1.0000
  H   H668      1.0  0.22283  0.84058  0.28492  1.0000
  Fe  Fe57      1.0  0.00110  0.78714  0.39252  1.0000
  S   S113      1.0  0.02106  0.83047  0.38174  1.0000
  S   S114      1.0  0.02706  0.77027  0.40681  1.0000
  C   C391      1.0  0.06386  0.84015  0.43653  1.0000
  Fe  Fe58      1.0  0.18022  0.93323  0.39356  1.0000
  S   S115      1.0  0.15176  0.88695  0.39290  1.0000
  S   S116      1.0  0.22531  0.94419  0.39837  1.0000
  C   C392      1.0  0.05753  0.84662  0.38259  1.0000
  C   C393      1.0  0.07122  0.83059  0.38324  1.0000
  C   C394      1.0  0.10019  0.84338  0.38596  1.0000
  C   C395      1.0  0.11579  0.87235  0.38759  1.0000
  C   C396      1.0  0.10232  0.88859  0.38610  1.0000
  C   C397      1.0  0.07313  0.87568  0.38362  1.0000
  H   H669      1.0  0.05943  0.80831  0.38179  1.0000
  H   H670      1.0  0.11057  0.83076  0.38706  1.0000
  H   H671      1.0  0.11430  0.91101  0.38734  1.0000
  H   H672      1.0  0.06263  0.88821  0.38299  1.0000
  H   H673      1.0  0.19230  0.78140  0.32206  1.0000
  H   H674      1.0  0.26621  0.78595  0.31756  1.0000
  H   H675      1.0  0.27654  0.83825  0.28762  1.0000
  H   H676      1.0  0.06270  0.55655  0.29964  1.0000
  H   H677      1.0  0.21314  0.76537  0.33042  1.0000
  H   H678      1.0  0.24462  0.92216  0.34984  1.0000
  H   H679      1.0  0.03468  0.54734  0.28207  1.0000
  C   C398      1.0  0.01645  0.67761  0.31240  1.0000
  C   C399      1.0  0.04037  0.68496  0.32454  1.0000
  S   S117      1.0  0.02444  0.71305  0.37473  1.0000
  C   C400      1.0  0.02073  0.69955  0.35060  1.0000
  C   C401      1.0  0.99707  0.69274  0.33833  1.0000
  C   C402      1.0  0.99486  0.68156  0.31943  1.0000
  H   H680      1.0  0.05707  0.68186  0.31941  1.0000
  C   C403      1.0  0.16828  0.74688  0.25215  1.0000
  C   C404      1.0  0.04085  0.55265  0.29761  1.0000
  H   H681      1.0  0.33314  0.51122  0.27755  1.0000
  H   H682      1.0  0.04605  0.61815  0.33472  1.0000
  H   H683      1.0  0.11740  0.86176  0.42687  1.0000
  C   C405      1.0  0.01528  0.60585  0.30971  1.0000
  H   H684      1.0  0.30588  0.82706  0.33473  1.0000
  H   H685      1.0  0.11685  0.90837  0.45216  1.0000
  C   C406      1.0  0.27062  0.92058  0.30617  1.0000
  C   C407      1.0  0.27726  0.94753  0.30109  1.0000
  C   C408      1.0  0.27255  0.96537  0.31368  1.0000
  C   C409      1.0  0.26072  0.95648  0.33139  1.0000
  H   H686      1.0  0.04585  0.58136  0.32032  1.0000
  C   C410      1.0  0.11527  0.86905  0.44141  1.0000
  H   H687      1.0  0.28657  0.95486  0.28766  1.0000
  C   C411      1.0  0.03946  0.57882  0.30466  1.0000
  C   C412      1.0  0.21531  0.83247  0.29909  1.0000
  C   C413      1.0  0.04230  0.69551  0.34359  1.0000
  C   C414      1.0  0.08756  0.85791  0.46974  1.0000
  H   H688      1.0  0.19532  0.81308  0.29702  1.0000
  H   H689      1.0  0.06166  0.84816  0.49409  1.0000
  S   S118      1.0  0.14245  0.72517  0.26712  1.0000
  H   H690      1.0  0.10935  0.82556  0.46353  1.0000
  Fe  Fe59      1.0  0.23182  0.97296  0.37421  1.0000
  N   N29       1.0  0.07461  0.78519  0.33009  1.0000
  C   C415      1.0  0.04379  0.76705  0.32543  1.0000
  C   C416      1.0  0.08899  0.78160  0.31316  1.0000
  C   C417      1.0  0.07986  0.81487  0.33189  1.0000
  C   C418      1.0  0.08289  0.77660  0.34880  1.0000
  H   H691      1.0  0.00413  0.55980  0.27184  1.0000
  C   C419      1.0  0.08404  0.75176  0.30861  1.0000
  C   C420      1.0  0.11026  0.83758  0.33564  1.0000
  C   C421      1.0  0.11385  0.78422  0.35272  1.0000
  H   H692      1.0  0.03712  0.77155  0.31109  1.0000
  H   H693      1.0  0.03848  0.74476  0.32428  1.0000
  H   H694      1.0  0.11173  0.79500  0.31487  1.0000
  H   H695      1.0  0.08234  0.78850  0.29982  1.0000
  H   H696      1.0  0.07119  0.82006  0.31866  1.0000
  H   H697      1.0  0.06898  0.81794  0.34400  1.0000
  H   H698      1.0  0.07694  0.78518  0.36129  1.0000
  H   H699      1.0  0.07098  0.75367  0.34965  1.0000
  H   H700      1.0  0.06844  0.83873  0.42134  1.0000
  H   H701      1.0  0.04433  0.86252  0.42259  1.0000
  C   C422      1.0  0.11747  0.89782  0.43856  1.0000
  H   H702      1.0  0.08737  0.74201  0.32158  1.0000
  H   H703      1.0  0.06287  0.73832  0.30171  1.0000
  H   H704      1.0  0.09880  0.75224  0.29808  1.0000
  H   H705      1.0  0.11078  0.85817  0.33615  1.0000
  H   H706      1.0  0.12350  0.83795  0.32405  1.0000
  H   H707      1.0  0.11934  0.83611  0.34991  1.0000
  H   H708      1.0  0.12040  0.79163  0.36808  1.0000
  H   H709      1.0  0.12860  0.80068  0.34408  1.0000
  H   H710      1.0  0.11657  0.76541  0.35092  1.0000
  C   C423      1.0  0.00289  0.76399  0.49910  1.0000
  H   H711      1.0  0.20674  0.77978  0.28830  1.0000
  C   C424      1.0  0.09263  0.82182  0.45215  1.0000
  H   H712      1.0  0.10702  0.86346  0.47887  1.0000
  C   C425      1.0  0.20322  0.93663  0.48711  1.0000
  H   H713      1.0  0.46572  0.56024  0.26816  1.0000
  H   H714      1.0  0.18413  0.74739  0.31315  1.0000
  S   S119      1.0  0.18225  0.96534  0.41529  1.0000
  H   H715      1.0  0.07332  0.80451  0.45703  1.0000
  H   H716      1.0  0.03015  0.76557  0.35500  1.0000
  H   H717      1.0  0.22625  0.76367  0.29642  1.0000
  H   H718      1.0  0.06346  0.88029  0.44441  1.0000
  H   H719      1.0  0.20050  0.94073  0.45623  1.0000
  C   C426      1.0  0.09921  0.81003  0.43390  1.0000
  H   H720      1.0  0.25360  0.89105  0.32811  1.0000
  H   H721      1.0  0.22987  0.82473  0.32657  1.0000
  H   H722      1.0  0.15708  0.97161  0.48076  1.0000
  H   H723      1.0  0.04291  0.82950  0.47219  1.0000
  C   C427      1.0  0.21241  0.94993  0.46980  1.0000
  H   H724      1.0  0.42273  0.51783  0.27525  1.0000
  Fe  Fe60      1.0  0.10246  0.68677  0.25607  1.0000
  S   S120      1.0  0.30573  0.86596  0.25389  1.0000
  S   S121      1.0  0.18651  0.96028  0.36857  1.0000
  C   C428      1.0  0.25896  0.81672  0.28602  1.0000
  H   H725      1.0  0.06064  0.70057  0.35300  1.0000
  N   N30       1.0  0.08941  0.84763  0.44984  1.0000
  C   C429      1.0  0.22008  0.77960  0.30078  1.0000
  H   H726      1.0  0.25590  0.84983  0.31354  1.0000
  C   C430      1.0  0.25356  0.92934  0.33627  1.0000
  H   H727      1.0  0.00301  0.75245  0.33619  1.0000
  C   C431      1.0  0.43144  0.51880  0.26152  1.0000
  H   H728      1.0  0.30608  0.83033  0.30927  1.0000
  H   H729      1.0  0.29484  0.85010  0.32425  1.0000
  H   H730      1.0  0.04717  0.81901  0.43926  1.0000
  C   C432      1.0  0.00578  0.57843  0.27963  1.0000
  H   H731      1.0  0.02835  0.53467  0.30619  1.0000
  H   H732      1.0  0.21106  0.84826  0.30634  1.0000
  H   H733      1.0  0.12115  0.82282  0.43054  1.0000
  H   H734      1.0  0.15354  0.85272  0.49463  1.0000
  Fe  Fe61      1.0  0.99635  0.75594  0.42941  1.0000
  C   C433      1.0  0.20165  0.76817  0.31777  1.0000
  H   H735      1.0  0.01080  0.59409  0.34020  1.0000
  N   N31       1.0  0.24522  0.80762  0.30461  1.0000
  C   C434      1.0  0.02371  0.61179  0.33155  1.0000
  H   H736      1.0  0.02341  0.59598  0.27331  1.0000
  C   C435      1.0  0.23736  0.82900  0.31184  1.0000
  C   C436      1.0  0.98917  0.55506  0.31060  1.0000
  H   H737      1.0  0.05613  0.59685  0.29791  1.0000
  H   H738      1.0  0.03056  0.84914  0.44468  1.0000
  C   C437      1.0  0.29444  0.82977  0.32197  1.0000
  S   S122      1.0  0.06806  0.69774  0.25229  1.0000
  H   H739      1.0  0.25626  0.80353  0.33434  1.0000
  H   H740      1.0  0.08527  0.80808  0.42116  1.0000
  H   H741      1.0  0.01877  0.78543  0.50095  1.0000
  H   H742      1.0  0.13416  0.87232  0.45043  1.0000
  H   H743      1.0  0.08613  0.87741  0.46955  1.0000
  H   H744      1.0  0.10162  0.89674  0.42747  1.0000
  C   C438      1.0  0.06306  0.83740  0.48078  1.0000
  C   C439      1.0  0.99557  0.75055  0.48062  1.0000
  Fe  Fe62      1.0  0.22765  0.97809  0.41873  1.0000
  S   S123      1.0  0.01282  0.76918  0.46077  1.0000
  C   C440      1.0  0.05033  0.85941  0.43751  1.0000
  H   H745      1.0  0.18433  0.91711  0.48670  1.0000
  C   C441      1.0  0.45609  0.54298  0.25757  1.0000
  Fe  Fe63      1.0  0.99904  0.73068  0.38934  1.0000
  H   H746      1.0  0.46953  0.88659  0.27095  1.0000
  C   C442      1.0  0.02456  0.76902  0.34012  1.0000
  H   H747      1.0  0.06597  0.81959  0.48539  1.0000
  C   C443      1.0  0.16256  0.98068  0.49578  1.0000
  C   C444      1.0  0.23732  0.97482  0.47004  1.0000
  H   H748      1.0  0.17132  0.78446  0.26513  1.0000
  H   H749      1.0  0.13789  0.91130  0.43285  1.0000
  H   H750      1.0  0.02075  0.62959  0.33658  1.0000
  H   H751      1.0  0.42922  0.89025  0.28465  1.0000
  N   N32       1.0  0.01197  0.57874  0.30108  1.0000
  H   H752      1.0  0.38363  0.54999  0.27026  1.0000
  H   H753      1.0  0.27458  0.78566  0.28693  1.0000
  C   C445      1.0  0.45027  0.90832  0.28437  1.0000
  H   H754      1.0  0.45016  0.91835  0.27069  1.0000
  H   H755      1.0  0.28740  0.80959  0.26870  1.0000
  H   H756      1.0  0.99558  0.60706  0.30758  1.0000
  C   C446      1.0  0.26861  0.79720  0.27649  1.0000
  C   C447      1.0  0.17984  0.77585  0.25494  1.0000
  C   C448      1.0  0.25268  0.98636  0.48776  1.0000
  H   H757      1.0  0.25207  0.78197  0.26599  1.0000
  C   C449      1.0  0.32900  0.49223  0.26891  1.0000
  H   H758      1.0  0.45337  0.92280  0.29677  1.0000
  H   H759      1.0  0.46550  0.88150  0.29547  1.0000
  S   S124      1.0  0.25633  0.98038  0.34708  1.0000
  H   H760      1.0  0.99718  0.55197  0.32491  1.0000
  H   H761      1.0  0.98266  0.60203  0.27578  1.0000
  H   H762      1.0  0.36968  0.50649  0.25908  1.0000
  H   H763      1.0  0.11576  0.53651  0.25382  1.0000
  H   H764      1.0  0.38098  0.58060  0.26551  1.0000
  H   H765      1.0  0.47317  0.91910  0.32813  1.0000
  H   H766      1.0  0.27835  0.98631  0.30972  1.0000
  C   C450      1.0  0.38050  0.56187  0.25854  1.0000
  H   H767      1.0  0.33615  0.54246  0.25660  1.0000
  H   H768      1.0  0.17139  0.98698  0.32782  1.0000
  C   C451      1.0  0.09433  0.53217  0.25179  1.0000
  C   C452      1.0  0.34821  0.49832  0.25235  1.0000
  H   H769      1.0  0.02560  0.81103  0.65818  1.0000
  S   S125      1.0  0.17022  0.96399  0.54919  1.0000
  H   H770      1.0  0.01025  0.82094  0.60622  1.0000
  C   C453      1.0  0.99704  0.83078  0.60920  1.0000
  C   C454      1.0  0.04547  0.89933  0.61445  1.0000
  N   N33       1.0  0.13042  0.84907  0.54116  1.0000
  Fe  Fe64      1.0  0.15629  0.94471  0.57735  1.0000
  S   S126      1.0  0.10951  0.91689  0.57707  1.0000
  S   S127      1.0  0.18944  0.93178  0.58093  1.0000
  Fe  Fe65      1.0  0.00254  0.76278  0.59477  1.0000
  C   C455      1.0  0.10449  0.82787  0.54971  1.0000
  S   S128      1.0  0.04840  0.79223  0.60257  1.0000
  C   C456      1.0  0.98975  0.74986  0.51527  1.0000
  H   H771      1.0  0.05147  0.87888  0.63827  1.0000
  C   C457      1.0  0.02722  0.82114  0.64429  1.0000
  H   H772      1.0  0.15469  0.89411  0.54092  1.0000
  C   C458      1.0  0.15518  0.84935  0.55217  1.0000
  C   C459      1.0  0.11273  0.88412  0.53133  1.0000
  C   C460      1.0  0.07673  0.81652  0.53730  1.0000
  Fe  Fe66      1.0  0.21601  0.97406  0.59643  1.0000
  H   H773      1.0  0.17596  0.85404  0.58068  1.0000
  H   H774      1.0  0.09423  0.87976  0.53932  1.0000
  H   H775      1.0  0.15468  0.87058  0.57962  1.0000
  H   H776      1.0  0.99295  0.87909  0.61766  1.0000
  H   H777      1.0  0.99561  0.76039  0.52942  1.0000
  C   C461      1.0  0.09351  0.88206  0.58381  1.0000
  C   C462      1.0  0.06664  0.86378  0.57583  1.0000
  C   C463      1.0  0.05288  0.83605  0.58108  1.0000
  C   C464      1.0  0.06560  0.82649  0.59475  1.0000
  C   C465      1.0  0.09263  0.84469  0.60259  1.0000
  C   C466      1.0  0.10662  0.87234  0.59707  1.0000
  H   H778      1.0  0.05642  0.87113  0.56550  1.0000
  H   H779      1.0  0.03233  0.82216  0.57467  1.0000
  H   H780      1.0  0.10269  0.83745  0.61312  1.0000
  H   H781      1.0  0.12727  0.88628  0.60339  1.0000
  H   H782      1.0  0.02038  0.80448  0.63278  1.0000
  H   H783      1.0  0.01450  0.84910  0.65729  1.0000
  N   N34       1.0  0.00933  0.85132  0.62633  1.0000
  H   H784      1.0  0.15655  0.83008  0.54858  1.0000
  C   C467      1.0  0.99268  0.86628  0.62988  1.0000
  H   H785      1.0  0.13026  0.81995  0.51952  1.0000
  H   H786      1.0  0.05957  0.80354  0.54634  1.0000
  C   C468      1.0  0.99231  0.84208  0.59009  1.0000
  C   C469      1.0  0.15592  0.85197  0.57442  1.0000
  H   H787      1.0  0.13138  0.88271  0.55868  1.0000
  C   C470      1.0  0.13335  0.87785  0.54347  1.0000
  H   H788      1.0  0.17572  0.86389  0.51627  1.0000
  H   H789      1.0  0.11188  0.83737  0.51162  1.0000
  H   H790      1.0  0.07573  0.80264  0.52504  1.0000
  H   H791      1.0  0.13922  0.83326  0.58035  1.0000
  H   H792      1.0  0.17499  0.86688  0.54808  1.0000
  H   H793      1.0  0.04967  0.86208  0.61585  1.0000
  H   H794      1.0  0.10156  0.83636  0.56354  1.0000
  C   C471      1.0  0.00852  0.83529  0.64392  1.0000
  H   H795      1.0  0.04197  0.91339  0.62438  1.0000
  H   H796      1.0  0.10611  0.87306  0.51702  1.0000
  C   C472      1.0  0.21843  0.94846  0.50488  1.0000
  C   C473      1.0  0.40548  0.98352  0.75114  1.0000
  C   C474      1.0  0.03939  0.87196  0.62398  1.0000
  H   H797      1.0  0.04949  0.83591  0.64322  1.0000
  H   H798      1.0  0.10660  0.80916  0.55339  1.0000
  H   H799      1.0  0.06774  0.91032  0.61138  1.0000
  H   H800      1.0  0.07223  0.83296  0.53203  1.0000
  H   H801      1.0  0.12307  0.90653  0.52837  1.0000
  Fe  Fe67      1.0  0.20475  0.95339  0.55337  1.0000
  C   C475      1.0  0.13071  0.84055  0.52043  1.0000
  S   S129      1.0  0.23555  0.97967  0.62746  1.0000
  H   H802      1.0  0.03327  0.89637  0.60063  1.0000
  S   S130      1.0  0.20726  0.93062  0.52631  1.0000
  C   C476      1.0  0.24314  0.97349  0.50512  1.0000
  H   H803      1.0  0.15609  0.88149  0.50889  1.0000
  H   H804      1.0  0.01202  0.85730  0.58459  1.0000
  H   H805      1.0  0.00224  0.88122  0.64264  1.0000
  H   H806      1.0  0.98714  0.81831  0.64553  1.0000
  H   H807      1.0  0.98246  0.82463  0.57900  1.0000
  C   C477      1.0  0.15557  0.86102  0.50968  1.0000
  S   S131      1.0  0.98605  0.71675  0.58797  1.0000
  H   H808      1.0  0.25096  0.98519  0.66806  1.0000
  S   S132      1.0  0.18130  0.98547  0.59433  1.0000
  H   H809      1.0  0.38746  0.97825  0.74063  1.0000
  H   H810      1.0  0.25532  0.98256  0.51862  1.0000
  H   H811      1.0  0.15883  0.96327  0.50518  1.0000
  H   H812      1.0  0.99274  0.74516  0.83645  1.0000
  N   N35       1.0  0.14441  0.87777  0.95371  1.0000
  H   H813      1.0  0.07540  0.75503  0.86538  1.0000
  H   H814      1.0  0.01212  0.73943  0.79634  1.0000
  S   S133      1.0  0.18027  0.96415  0.90616  1.0000
  H   H815      1.0  0.13710  0.91041  0.92225  1.0000
  Fe  Fe68      1.0  0.18434  0.93598  0.88394  1.0000
  S   S134      1.0  0.15485  0.88916  0.88082  1.0000
  S   S135      1.0  0.22891  0.94804  0.89359  1.0000
  Fe  Fe69      1.0  0.99496  0.77871  0.89364  1.0000
  S   S136      1.0  0.02459  0.82489  0.89133  1.0000
  S   S137      1.0  0.00566  0.74527  0.90235  1.0000
  C   C478      1.0  0.18550  0.90480  0.93291  1.0000
  C   C479      1.0  0.11868  0.87183  0.88392  1.0000
  C   C480      1.0  0.10285  0.88579  0.88380  1.0000
  C   C481      1.0  0.07412  0.87109  0.88616  1.0000
  C   C482      1.0  0.06092  0.84239  0.88882  1.0000
  C   C483      1.0  0.07681  0.82850  0.88922  1.0000
  C   C484      1.0  0.10546  0.84310  0.88654  1.0000
  H   H816      1.0  0.11269  0.90787  0.88176  1.0000
  H   H817      1.0  0.06203  0.88207  0.88588  1.0000
  H   H818      1.0  0.06700  0.80653  0.89157  1.0000
  H   H819      1.0  0.11756  0.83215  0.88670  1.0000
  C   C485      1.0  0.00136  0.73132  0.80961  1.0000
  C   C486      1.0  0.19688  0.96832  0.96659  1.0000
  H   H820      1.0  0.13299  0.83542  0.96030  1.0000
  C   C487      1.0  0.16549  0.88773  0.97091  1.0000
  H   H821      1.0  0.16114  0.95716  0.98305  1.0000
  H   H822      1.0  0.99928  0.79865  0.83999  1.0000
  H   H823      1.0  0.01864  0.79565  0.99620  1.0000
  H   H824      1.0  0.08495  0.84119  0.93963  1.0000
  H   H825      1.0  0.10837  0.83276  0.92668  1.0000
  H   H826      1.0  0.02936  0.74735  0.85712  1.0000
  H   H827      1.0  0.41307  0.98648  0.80428  1.0000
  H   H828      1.0  0.02763  0.79147  0.79720  1.0000
  H   H829      1.0  0.18153  0.90967  0.96967  1.0000
  H   H830      1.0  0.06043  0.82142  0.80475  1.0000
  C   C488      1.0  0.04359  0.75502  0.84524  1.0000
  C   C489      1.0  0.15934  0.87736  0.93620  1.0000
  H   H831      1.0  0.18804  0.98520  0.81995  1.0000
  H   H832      1.0  0.00166  0.77224  0.96351  1.0000
  H   H833      1.0  0.06056  0.81333  0.84741  1.0000
  H   H834      1.0  0.02502  0.81824  0.82333  1.0000
  H   H835      1.0  0.98923  0.66328  0.82302  1.0000
  H   H836      1.0  0.03173  0.79021  0.85976  1.0000
  H   H837      1.0  0.37878  0.96564  0.80972  1.0000
  H   H838      1.0  0.31272  0.93648  0.77470  1.0000
  H   H839      1.0  0.25222  0.96658  0.82011  1.0000
  H   H840      1.0  0.05822  0.76552  0.80996  1.0000
  H   H841      1.0  0.04108  0.73610  0.83722  1.0000
  H   H842      1.0  0.19146  0.90403  0.91800  1.0000
  H   H843      1.0  0.07902  0.78889  0.86270  1.0000
  H   H844      1.0  0.14682  0.91844  0.95715  1.0000
  H   H845      1.0  0.07729  0.79728  0.82316  1.0000
  H   H846      1.0  0.17703  0.87550  0.97160  1.0000
  H   H847      1.0  0.32528  0.96390  0.79272  1.0000
  C   C490      1.0  0.05594  0.78287  0.81686  1.0000
  H   H848      1.0  0.05801  0.79536  0.78725  1.0000
  H   H849      1.0  0.34913  0.97872  0.76182  1.0000
  H   H850      1.0  0.16592  0.86095  0.93703  1.0000
  H   H851      1.0  0.00728  0.71609  0.81554  1.0000
  H   H852      1.0  0.20347  0.90778  0.94277  1.0000
  H   H853      1.0  0.11434  0.89075  0.96183  1.0000
  H   H854      1.0  0.11137  0.84812  0.96993  1.0000
  H   H855      1.0  0.40635  0.96446  0.75495  1.0000
  N   N36       1.0  0.03596  0.77279  0.83248  1.0000
  C   C491      1.0  0.13156  0.89687  0.95212  1.0000
  C   C492      1.0  0.27198  0.98311  0.81648  1.0000
  H   H856      1.0  0.08781  0.81094  0.94432  1.0000
  C   C493      1.0  0.22453  0.97369  0.96701  1.0000
  H   H857      1.0  0.08892  0.77241  0.84401  1.0000
  C   C494      1.0  0.02178  0.81173  0.83828  1.0000
  H   H858      1.0  0.41590  0.95285  0.78515  1.0000
  C   C495      1.0  0.03849  0.79695  0.84509  1.0000
  C   C496      1.0  0.12020  0.89946  0.93189  1.0000
  C   C497      1.0  0.10002  0.83300  0.94076  1.0000
  H   H859      1.0  0.14556  0.87175  0.92275  1.0000
  Fe  Fe70      1.0  0.24157  0.98160  0.87214  1.0000
  C   C498      1.0  0.07352  0.76904  0.85475  1.0000
  H   H860      1.0  0.33570  0.93694  0.79415  1.0000
  H   H861      1.0  0.10515  0.87933  0.92474  1.0000
  C   C499      1.0  0.12279  0.84852  0.95710  1.0000
  H   H862      1.0  0.18211  0.92312  0.93471  1.0000
  C   C500      1.0  0.15400  0.88697  0.99080  1.0000
  H   H863      1.0  0.10930  0.91211  0.93319  1.0000
  C   C501      1.0  0.18264  0.96160  0.98356  1.0000
  H   H864      1.0  0.37906  0.93364  0.77834  1.0000
  H   H865      1.0  0.14204  0.86546  0.99542  1.0000
  H   H866      1.0  0.02850  0.83086  0.84768  1.0000
  C   C502      1.0  0.00630  0.75486  0.82452  1.0000
  C   C503      1.0  0.04997  0.79877  0.80083  1.0000
  S   S138      1.0  0.19734  0.96727  0.86084  1.0000
  C   C504      1.0  0.99349  0.76081  0.97617  1.0000
  H   H867      1.0  0.35730  0.95135  0.76234  1.0000
  C   C505      1.0  0.33128  0.95033  0.78436  1.0000
  Fe  Fe71      1.0  0.22499  0.97730  0.91498  1.0000
  C   C506      1.0  0.23791  0.97289  0.98467  1.0000
  C   C507      1.0  0.35567  0.96693  0.77188  1.0000
  H   H868      1.0  0.26642  0.96890  0.78651  1.0000
  H   H869      1.0  0.39128  0.93220  0.80191  1.0000
  C   C508      1.0  0.39482  0.94643  0.78999  1.0000
  C   C509      1.0  0.00300  0.77404  0.99473  1.0000
  C   C510      1.0  0.39222  0.97185  0.79736  1.0000
  H   H870      1.0  0.18647  0.96927  0.95317  1.0000
  S   S139      1.0  0.24327  0.98193  0.94603  1.0000
  H   H871      1.0  0.99738  0.76705  0.81735  1.0000
  H   H872      1.0  0.25936  0.97714  0.98515  1.0000
  H   H873      1.0  0.14126  0.89782  0.99118  1.0000
  C   C511      1.0  0.28011  0.98453  0.79740  1.0000
  N   N37       1.0  0.38297  0.98632  0.78275  1.0000
  S   S140      1.0  0.98292  0.69311  0.85546  1.0000
  C   C512      1.0  0.19590  0.96049  0.00115  1.0000
  C   C513      1.0  0.22372  0.96637  0.00169  1.0000
  Fe  Fe72      1.0  0.94917  0.18114  0.08735  1.0000
  S   S141      1.0  0.94817  0.22183  0.08582  1.0000
  S   S142      1.0  0.91509  0.13628  0.08124  1.0000
  H   H874      1.0  0.95023  0.21083  0.02641  1.0000
  C   C514      1.0  0.92098  0.13119  0.13739  1.0000
  H   H875      1.0  0.82115  0.03521  0.03093  1.0000
  H   H876      1.0  0.86908  0.12695  0.13222  1.0000
  C   C515      1.0  0.96184  0.22235  0.01467  1.0000
  H   H877      1.0  0.90908  0.19215  0.19631  1.0000
  Fe  Fe73      1.0  0.76444  0.02231  0.10128  1.0000
  C   C516      1.0  0.90286  0.18290  0.16527  1.0000
  S   S143      1.0  0.79155  0.06913  0.10704  1.0000
  H   H878      1.0  0.89894  0.20536  0.11227  1.0000
  H   H879      1.0  0.94277  0.17000  0.15437  1.0000
  C   C517      1.0  0.82273  0.04614  0.04494  1.0000
  H   H880      1.0  0.83087  0.08586  0.05656  1.0000
  H   H881      1.0  0.89894  0.15659  0.19013  1.0000
  C   C518      1.0  0.88064  0.11823  0.08835  1.0000
  C   C519      1.0  0.86855  0.08933  0.08986  1.0000
  C   C520      1.0  0.84119  0.07399  0.09532  1.0000
  C   C521      1.0  0.82560  0.08742  0.09934  1.0000
  C   C522      1.0  0.83749  0.11627  0.09752  1.0000
  C   C523      1.0  0.86477  0.13157  0.09183  1.0000
  H   H882      1.0  0.88050  0.07873  0.08693  1.0000
  H   H883      1.0  0.83232  0.05181  0.09666  1.0000
  H   H884      1.0  0.82545  0.12679  0.10041  1.0000
  H   H885      1.0  0.87342  0.15360  0.08994  1.0000
  C   C524      1.0  0.92127  0.15223  0.15274  1.0000
  C   C525      1.0  0.91153  0.17803  0.18575  1.0000
  H   H886      1.0  0.78563  0.06629  0.06484  1.0000
  H   H887      1.0  0.92716  0.14032  0.12331  1.0000
  C   C526      1.0  0.86056  0.11905  0.16182  1.0000
  H   H888      1.0  0.76702  0.03686  0.04896  1.0000
  C   C527      1.0  0.89034  0.19314  0.12505  1.0000
  H   H889      1.0  0.88302  0.18379  0.16602  1.0000
  H   H890      1.0  0.85857  0.12928  0.17511  1.0000
  H   H891      1.0  0.86846  0.17795  0.12069  1.0000
  H   H892      1.0  0.93382  0.18335  0.18699  1.0000
  C   C528      1.0  0.80235  0.10279  0.03196  1.0000
  H   H893      1.0  0.93652  0.12454  0.14223  1.0000
  C   C529      1.0  0.81341  0.12286  0.05005  1.0000
  N   N38       1.0  0.90056  0.16284  0.14898  1.0000
  H   H894      1.0  0.83539  0.12865  0.05423  1.0000
  N   N39       1.0  0.79614  0.07327  0.03520  1.0000
  C   C530      1.0  0.82326  0.07435  0.04229  1.0000
  H   H895      1.0  0.83939  0.10227  0.15704  1.0000
  C   C531      1.0  0.87130  0.13942  0.14566  1.0000
  Fe  Fe74      1.0  0.97737  0.23581  0.11304  1.0000
  H   H896      1.0  0.83984  0.08600  0.03243  1.0000
  H   H897      1.0  0.87353  0.10880  0.16492  1.0000
  H   H898      1.0  0.96706  0.15016  0.00791  1.0000
  H   H899      1.0  0.84255  0.04980  0.05270  1.0000
  C   C532      1.0  0.77528  0.05977  0.05002  1.0000
  S   S144      1.0  0.77818  0.99589  0.08498  1.0000
  H   H900      1.0  0.80074  0.11424  0.06249  1.0000
  H   H901      1.0  0.91822  0.14168  0.16651  1.0000
  H   H902      1.0  0.89117  0.20801  0.13650  1.0000
  H   H903      1.0  0.85620  0.14750  0.14337  1.0000
  H   H904      1.0  0.97173  0.26581  0.18248  1.0000
  H   H905      1.0  0.75114  0.07785  0.06274  1.0000
  H   H906      1.0  0.90628  0.16524  0.11825  1.0000
  H   H907      1.0  0.92990  0.19521  0.13238  1.0000
  H   H908      1.0  0.91875  0.20456  0.16266  1.0000
  H   H909      1.0  0.80581  0.03242  0.05375  1.0000
  H   H910      1.0  0.81801  0.11179  0.02104  1.0000
  H   H911      1.0  0.74675  0.07521  0.03678  1.0000
  C   C533      1.0  0.90789  0.17875  0.13089  1.0000
  H   H912      1.0  0.90065  0.11212  0.13540  1.0000
  S   S145      1.0  0.72484  0.00831  0.08247  1.0000
  H   H913      1.0  0.81291  0.14242  0.04679  1.0000
  H   H914      1.0  0.78415  0.10418  0.02559  1.0000
  C   C534      1.0  0.74996  0.06529  0.04959  1.0000
  H   H915      1.0  0.73067  0.04523  0.05009  1.0000
  H   H916      1.0  0.74127  0.03989  0.01427  1.0000
  S   S146      1.0  0.97556  0.19397  0.11527  1.0000
  S   S147      1.0  0.97072  0.25057  0.14261  1.0000
  H   H917      1.0  0.78317  0.03505  0.01810  1.0000
  C   C535      1.0  0.78665  0.05652  0.01621  1.0000
  C   C536      1.0  0.75934  0.05285  0.00602  1.0000
  H   H918      1.0  0.80306  0.06562  0.00582  1.0000
  S   S148      1.0  0.74402  0.99020  0.12319  1.0000
  H   H919      1.0  0.75977  0.07276  0.00278  1.0000
  C   C537      1.0  0.92763  0.16069  0.48106  1.0000
  H   H920      1.0  0.97544  0.07123  0.36991  1.0000
  H   H921      1.0  0.93778  0.34718  0.38801  1.0000
  H   H922      1.0  0.97673  0.07868  0.39468  1.0000
  C   C538      1.0  0.95894  0.35172  0.38430  1.0000
  H   H923      1.0  0.93562  0.07981  0.36328  1.0000
  Fe  Fe75      1.0  0.95594  0.18190  0.38866  1.0000
  S   S149      1.0  0.92462  0.13935  0.37509  1.0000
  S   S150      1.0  0.95357  0.22204  0.39083  1.0000
  Fe  Fe76      1.0  0.77721  0.01576  0.40407  1.0000
  H   H924      1.0  0.96946  0.29560  0.30844  1.0000
  S   S151      1.0  0.80857  0.06182  0.40948  1.0000
  C   C539      1.0  0.74326  0.99696  0.47735  1.0000
  H   H925      1.0  0.90003  0.10965  0.48618  1.0000
  C   C540      1.0  0.89310  0.11756  0.38548  1.0000
  C   C541      1.0  0.87767  0.08952  0.37886  1.0000
  C   C542      1.0  0.85220  0.07185  0.38648  1.0000
  C   C543      1.0  0.84153  0.08229  0.40042  1.0000
  C   C544      1.0  0.85706  0.11028  0.40710  1.0000
  C   C545      1.0  0.88280  0.12776  0.39982  1.0000
  H   H926      1.0  0.88545  0.08139  0.36780  1.0000
  H   H927      1.0  0.84072  0.05026  0.38146  1.0000
  H   H928      1.0  0.84901  0.11855  0.41789  1.0000
  H   H929      1.0  0.89438  0.14928  0.40503  1.0000
  H   H930      1.0  0.82072  0.05635  0.33486  1.0000
  H   H931      1.0  0.89112  0.14002  0.45988  1.0000
  H   H932      1.0  0.71412  0.04606  0.30732  1.0000
  H   H933      1.0  0.95742  0.34673  0.36867  1.0000
  H   H934      1.0  0.83113  0.11273  0.34318  1.0000
  C   C546      1.0  0.75296  0.00874  0.49628  1.0000
  S   S152      1.0  0.95619  0.23729  0.44742  1.0000
  H   H935      1.0  0.97210  0.37447  0.38712  1.0000
  H   H936      1.0  0.82065  0.08513  0.35892  1.0000
  H   H937      1.0  0.80574  0.03471  0.35499  1.0000
  H   H938      1.0  0.93695  0.24015  0.48477  1.0000
  H   H939      1.0  0.81164  0.11252  0.36268  1.0000
  H   H940      1.0  0.96838  0.12276  0.35629  1.0000
  H   H941      1.0  0.80564  0.01955  0.33217  1.0000
  H   H942      1.0  0.97322  0.30546  0.42711  1.0000
  H   H943      1.0  0.90479  0.17740  0.46341  1.0000
  H   H944      1.0  0.94489  0.18223  0.48362  1.0000
  C   C547      1.0  0.91019  0.16022  0.46270  1.0000
  H   H945      1.0  0.75913  0.01223  0.33463  1.0000
  C   C548      1.0  0.94378  0.29299  0.36215  1.0000
  C   C549      1.0  0.89192  0.12020  0.49589  1.0000
  H   H946      1.0  0.92279  0.16376  0.45004  1.0000
  H   H947      1.0  0.93772  0.14789  0.47718  1.0000
  C   C550      1.0  0.94272  0.07958  0.37850  1.0000
  S   S153      1.0  0.73165  0.00408  0.40286  1.0000
  H   H948      1.0  0.73137  0.05792  0.37203  1.0000
  N   N40       1.0  0.91212  0.15085  0.49902  1.0000
  H   H949      1.0  0.72249  0.02646  0.33787  1.0000
  N   N41       1.0  0.76695  0.05409  0.34202  1.0000
  C   C551      1.0  0.73825  0.04721  0.33356  1.0000
  C   C552      1.0  0.76467  0.04924  0.36325  1.0000
  C   C553      1.0  0.77501  0.03404  0.33260  1.0000
  C   C554      1.0  0.78690  0.08373  0.33803  1.0000
  C   C555      1.0  0.73452  0.04709  0.31140  1.0000
  C   C556      1.0  0.75418  0.06650  0.37470  1.0000
  C   C557      1.0  0.80347  0.03675  0.33930  1.0000
  C   C558      1.0  0.81373  0.09874  0.35165  1.0000
  H   H950      1.0  0.93117  0.27119  0.35629  1.0000
  H   H951      1.0  0.73169  0.06219  0.33934  1.0000
  H   H952      1.0  0.78456  0.05299  0.37069  1.0000
  H   H953      1.0  0.75035  0.02698  0.36535  1.0000
  Fe  Fe77      1.0  0.97290  0.22613  0.42121  1.0000
  H   H954      1.0  0.77566  0.03622  0.31677  1.0000
  H   H955      1.0  0.79324  0.08496  0.32299  1.0000
  H   H956      1.0  0.77634  0.09682  0.33897  1.0000
  H   H957      1.0  0.73388  0.02832  0.30440  1.0000
  H   H958      1.0  0.95480  0.30505  0.34994  1.0000
  H   H959      1.0  0.75076  0.06610  0.30550  1.0000
  H   H960      1.0  0.75830  0.06530  0.39039  1.0000
  H   H961      1.0  0.76475  0.08872  0.37151  1.0000
  H   H962      1.0  0.97628  0.14075  0.38670  1.0000
  H   H963      1.0  0.97371  0.27020  0.33662  1.0000
  H   H964      1.0  0.97362  0.27617  0.41465  1.0000
  C   C559      1.0  0.95553  0.23798  0.48707  1.0000
  H   H965      1.0  0.92928  0.05844  0.38334  1.0000
  H   H966      1.0  0.93899  0.09434  0.38745  1.0000
  C   C560      1.0  0.96949  0.23632  0.47108  1.0000
  H   H967      1.0  0.92885  0.29970  0.36709  1.0000
  C   C561      1.0  0.96354  0.29349  0.37897  1.0000
  H   H968      1.0  0.87215  0.11702  0.48822  1.0000
  H   H969      1.0  0.88088  0.16306  0.49019  1.0000
  S   S154      1.0  0.97245  0.18500  0.41932  1.0000
  C   C562      1.0  0.97334  0.08567  0.38046  1.0000
  H   H970      1.0  0.77326  0.02662  0.49880  1.0000
  C   C563      1.0  0.96946  0.33563  0.39750  1.0000
  H   H971      1.0  0.96565  0.12129  0.41549  1.0000
  H   H972      1.0  0.97459  0.28232  0.37361  1.0000
  H   H973      1.0  0.75617  0.00567  0.46550  1.0000
  H   H974      1.0  0.95134  0.32022  0.40484  1.0000
  H   H975      1.0  0.94963  0.28011  0.38971  1.0000
  Fe  Fe78      1.0  0.90889  0.28912  0.72471  1.0000
  S   S155      1.0  0.87577  0.30003  0.71471  1.0000
  S   S156      1.0  0.93833  0.28153  0.70585  1.0000
  Fe  Fe79      1.0  0.84903  0.26886  0.73517  1.0000
  H   H976      1.0  0.84939  0.11218  0.60968  1.0000
  H   H977      1.0  0.54324  0.46738  0.70336  1.0000
  C   C564      1.0  0.73057  0.17578  0.73255  1.0000
  H   H978      1.0  0.87425  0.17859  0.52204  1.0000
  H   H979      1.0  0.54595  0.48517  0.67135  1.0000
  H   H980      1.0  0.60103  0.00695  0.65353  1.0000
  H   H981      1.0  0.91477  0.18051  0.63673  1.0000
  H   H982      1.0  0.75168  0.19703  0.70795  1.0000
  H   H983      1.0  0.80196  0.33182  0.69990  1.0000
  H   H984      1.0  0.90349  0.26078  0.63684  1.0000
  S   S157      1.0  0.61872  0.03069  0.73594  1.0000
  S   S158      1.0  0.56796  0.06442  0.72500  1.0000
  Fe  Fe80      1.0  0.65863  0.05931  0.72278  1.0000
  S   S159      1.0  0.68292  0.05621  0.69750  1.0000
  S   S160      1.0  0.64861  0.09496  0.72299  1.0000
  H   H985      1.0  0.96825  0.34046  0.71702  1.0000
  C   C565      1.0  0.66124  0.99302  0.65618  1.0000
  H   H986      1.0  0.97459  0.39905  0.67462  1.0000
  S   S161      1.0  0.82265  0.03105  0.61468  1.0000
  S   S162      1.0  0.75067  0.02269  0.59216  1.0000
  H   H987      1.0  0.65178  0.08252  0.68202  1.0000
  Fe  Fe81      1.0  0.93830  0.16795  0.57755  1.0000
  S   S163      1.0  0.89924  0.13067  0.56501  1.0000
  S   S164      1.0  0.94077  0.20866  0.57011  1.0000
  C   C566      1.0  0.95455  0.14653  0.51290  1.0000
  H   H988      1.0  0.51786  0.12715  0.72903  1.0000
  H   H989      1.0  0.55555  0.44951  0.68821  1.0000
  C   C567      1.0  0.84460  0.05784  0.60050  1.0000
  C   C568      1.0  0.87187  0.07634  0.60766  1.0000
  C   C569      1.0  0.88913  0.09868  0.59684  1.0000
  C   C570      1.0  0.87922  0.10228  0.57872  1.0000
  C   C571      1.0  0.85223  0.08336  0.57142  1.0000
  C   C572      1.0  0.83490  0.06133  0.58231  1.0000
  H   H990      1.0  0.87946  0.07370  0.62174  1.0000
  H   H991      1.0  0.90998  0.11313  0.60255  1.0000
  H   H992      1.0  0.84443  0.08599  0.55740  1.0000
  H   H993      1.0  0.81392  0.04718  0.57665  1.0000
  C   C573      1.0  0.49106  0.42166  0.74098  1.0000
  H   H994      1.0  0.61833  0.05932  0.63017  1.0000
  H   H995      1.0  0.79511  0.11584  0.61307  1.0000
  C   C574      1.0  0.75319  0.19597  0.72345  1.0000
  H   H996      1.0  0.80360  0.09836  0.59401  1.0000
  C   C575      1.0  0.68290  0.03482  0.67763  1.0000
  C   C576      1.0  0.66058  0.00857  0.67250  1.0000
  H   H997      1.0  0.63296  0.03718  0.65807  1.0000
  C   C577      1.0  0.68443  0.00311  0.64500  1.0000
  C   C578      1.0  0.70693  0.02919  0.65032  1.0000
  C   C579      1.0  0.70604  0.04498  0.66641  1.0000
  C   C580      1.0  0.96220  0.34587  0.67852  1.0000
  H   H998      1.0  0.76317  0.28743  0.70580  1.0000
  H   H999      1.0  0.72340  0.06527  0.67009  1.0000
  C   C581      1.0  0.88411  0.10285  0.51393  1.0000
  C   C582      1.0  0.76901  0.31531  0.73130  1.0000
  C   C583      1.0  0.51641  0.06261  0.71801  1.0000
  H   H1000     1.0  0.52058  0.06257  0.70300  1.0000
  C   C584      1.0  0.93631  0.26870  0.68153  1.0000
  C   C585      1.0  0.91703  0.26814  0.66719  1.0000
  Fe  Fe82      1.0  0.89051  0.33197  0.73983  1.0000
  C   C586      1.0  0.93785  0.25232  0.64246  1.0000
  C   C587      1.0  0.95673  0.25231  0.65687  1.0000
  C   C588      1.0  0.95613  0.26072  0.67617  1.0000
  H   H1001     1.0  0.90176  0.27437  0.67094  1.0000
  C   C589      1.0  0.60915  0.03672  0.63208  1.0000
  H   H1002     1.0  0.55721  0.00718  0.65714  1.0000
  H   H1003     1.0  0.88921  0.41597  0.70789  1.0000
  H   H1004     1.0  0.60088  0.99462  0.69584  1.0000
  H   H1005     1.0  0.82365  0.35891  0.71782  1.0000
  H   H1006     1.0  0.79976  0.08613  0.61764  1.0000
  H   H1007     1.0  0.88854  0.14554  0.63882  1.0000
  H   H1008     1.0  0.49560  0.20491  0.73777  1.0000
  S   S165      1.0  0.93855  0.24362  0.61756  1.0000
  C   C590      1.0  0.53627  0.06349  0.73228  1.0000
  C   C591      1.0  0.58591  0.00176  0.69051  1.0000
  H   H1009     1.0  0.71176  0.16150  0.72411  1.0000
  C   C592      1.0  0.81746  0.16414  0.74248  1.0000
  H   H1010     1.0  0.91360  0.34629  0.67332  1.0000
  H   H1011     1.0  0.60434  0.08108  0.67922  1.0000
  H   H1012     1.0  0.83009  0.15898  0.73287  1.0000
  H   H1013     1.0  0.52827  0.02747  0.66871  1.0000
  H   H1014     1.0  0.95459  0.23820  0.51823  1.0000
  H   H1015     1.0  0.59567  0.04426  0.69797  1.0000
  H   H1016     1.0  0.55798  0.05752  0.67933  1.0000
  C   C593      1.0  0.51370  0.13527  0.74257  1.0000
  N   N42       1.0  0.79232  0.31066  0.73968  1.0000
  C   C594      1.0  0.75125  0.29515  0.71414  1.0000
  C   C595      1.0  0.61076  0.02995  0.65336  1.0000
  H   H1017     1.0  0.96509  0.14690  0.52709  1.0000
  C   C596      1.0  0.64325  0.08813  0.66911  1.0000
  H   H1018     1.0  0.60461  0.07960  0.65382  1.0000
  H   H1019     1.0  0.72482  0.03737  0.64184  1.0000
  H   H1020     1.0  0.65050  0.11082  0.67074  1.0000
  H   H1021     1.0  0.74406  0.30608  0.70385  1.0000
  H   H1022     1.0  0.62399  0.04021  0.69094  1.0000
  H   H1023     1.0  0.73292  0.27698  0.71922  1.0000
  C   C597      1.0  0.92048  0.36427  0.68382  1.0000
  S   S166      1.0  0.95559  0.18148  0.60816  1.0000
  H   H1024     1.0  0.92947  0.38393  0.67630  1.0000
  H   H1025     1.0  0.88926  0.46068  0.71575  1.0000
  C   C598      1.0  0.96540  0.23674  0.50604  1.0000
  H   H1026     1.0  0.97840  0.32331  0.66191  1.0000
  C   C599      1.0  0.53020  0.06355  0.75162  1.0000
  C   C600      1.0  0.48509  0.06179  0.74221  1.0000
  C   C601      1.0  0.61121  0.07265  0.66712  1.0000
  S   S167      1.0  0.80556  0.23939  0.72195  1.0000
  C   C602      1.0  0.91805  0.26036  0.64782  1.0000
  H   H1027     1.0  0.55792  0.43276  0.74934  1.0000
  H   H1028     1.0  0.50911  0.39452  0.74512  1.0000
  H   H1029     1.0  0.83815  0.34250  0.70335  1.0000
  C   C603      1.0  0.52514  0.47162  0.74283  1.0000
  H   H1030     1.0  0.50020  0.16029  0.72716  1.0000
  H   H1031     1.0  0.56463  0.03898  0.64715  1.0000
  H   H1032     1.0  0.94557  0.18011  0.51899  1.0000
  S   S168      1.0  0.74884  0.01491  0.53522  1.0000
  H   H1033     1.0  0.84130  0.12388  0.63114  1.0000
  Fe  Fe83      1.0  0.60971  0.06724  0.73783  1.0000
  N   N43       1.0  0.85194  0.15283  0.60821  1.0000
  C   C604      1.0  0.83878  0.12366  0.61513  1.0000
  C   C605      1.0  0.88284  0.16516  0.61288  1.0000
  C   C606      1.0  0.84595  0.15065  0.58662  1.0000
  C   C607      1.0  0.83945  0.16883  0.61800  1.0000
  C   C608      1.0  0.89209  0.16628  0.63439  1.0000
  C   C609      1.0  0.85868  0.17791  0.57612  1.0000
  C   C610      1.0  0.85701  0.20088  0.61969  1.0000
  H   H1034     1.0  0.80975  0.36851  0.74785  1.0000
  C   C611      1.0  0.77776  0.21466  0.73423  1.0000
  H   H1035     1.0  0.89447  0.18651  0.60806  1.0000
  H   H1036     1.0  0.89119  0.15327  0.60475  1.0000
  H   H1037     1.0  0.85296  0.13666  0.57978  1.0000
  H   H1038     1.0  0.82325  0.14109  0.58272  1.0000
  H   H1039     1.0  0.81885  0.16365  0.61069  1.0000
  H   H1040     1.0  0.83531  0.16238  0.63308  1.0000
  Fe  Fe84      1.0  0.77894  0.00511  0.60113  1.0000
  H   H1041     1.0  0.77756  0.16301  0.74240  1.0000
  H   H1042     1.0  0.57141  0.99798  0.70202  1.0000
  H   H1043     1.0  0.84908  0.19110  0.57988  1.0000
  H   H1044     1.0  0.85415  0.17281  0.56034  1.0000
  H   H1045     1.0  0.88155  0.18965  0.57857  1.0000
  H   H1046     1.0  0.84291  0.21025  0.61823  1.0000
  H   H1047     1.0  0.87232  0.21013  0.60879  1.0000
  H   H1048     1.0  0.86778  0.20794  0.63432  1.0000
  N   N44       1.0  0.76975  0.12247  0.73145  1.0000
  C   C612      1.0  0.78230  0.11080  0.71756  1.0000
  H   H1049     1.0  0.77233  0.26634  0.73191  1.0000
  C   C613      1.0  0.74083  0.11608  0.72412  1.0000
  H   H1050     1.0  0.84134  0.36513  0.74891  1.0000
  C   C614      1.0  0.76514  0.07940  0.71210  1.0000
  C   C615      1.0  0.49741  0.44980  0.74024  1.0000
  C   C616      1.0  0.73765  0.12468  0.70352  1.0000
  H   H1051     1.0  0.62115  0.02897  0.62377  1.0000
  H   H1052     1.0  0.78655  0.12204  0.70398  1.0000
  H   H1053     1.0  0.80288  0.11400  0.72365  1.0000
  H   H1054     1.0  0.92353  0.14891  0.52923  1.0000
  H   H1055     1.0  0.78960  0.16302  0.71941  1.0000
  H   H1056     1.0  0.72627  0.09356  0.72459  1.0000
  H   H1057     1.0  0.73238  0.12632  0.73370  1.0000
  H   H1058     1.0  0.83143  0.99060  0.58369  1.0000
  C   C617      1.0  0.89078  0.44836  0.72725  1.0000
  H   H1059     1.0  0.77628  0.07340  0.70164  1.0000
  H   H1060     1.0  0.76258  0.06667  0.72476  1.0000
  H   H1061     1.0  0.80966  0.29708  0.71667  1.0000
  C   C618      1.0  0.60165  0.03322  0.68704  1.0000
  H   H1062     1.0  0.83465  0.32173  0.73352  1.0000
  C   C619      1.0  0.81951  0.33872  0.71103  1.0000
  H   H1063     1.0  0.71558  0.11946  0.70024  1.0000
  H   H1064     1.0  0.74262  0.11313  0.69246  1.0000
  H   H1065     1.0  0.75010  0.14729  0.70202  1.0000
  C   C620      1.0  0.56727  0.02990  0.66078  1.0000
  H   H1066     1.0  0.86737  0.08155  0.50963  1.0000
  H   H1067     1.0  0.88166  0.17429  0.64397  1.0000
  C   C621      1.0  0.89080  0.42285  0.72282  1.0000
  H   H1068     1.0  0.58747  0.02602  0.62558  1.0000
  H   H1069     1.0  0.64277  0.00025  0.68101  1.0000
  H   H1070     1.0  0.75241  0.08701  0.74926  1.0000
  H   H1071     1.0  0.57857  0.48739  0.66871  1.0000
  N   N45       1.0  0.59767  0.04135  0.66703  1.0000
  Fe  Fe85      1.0  0.96015  0.22324  0.60065  1.0000
  H   H1072     1.0  0.75470  0.31385  0.74250  1.0000
  C   C622      1.0  0.81436  0.31618  0.72563  1.0000
  H   H1073     1.0  0.94338  0.32609  0.68108  1.0000
  C   C623      1.0  0.80749  0.10535  0.60952  1.0000
  H   H1074     1.0  0.77651  0.33689  0.72680  1.0000
  Fe  Fe86      1.0  0.74131  0.99578  0.56465  1.0000
  S   S169      1.0  0.89243  0.37377  0.73079  1.0000
  H   H1075     1.0  0.88715  0.99318  0.63757  1.0000
  H   H1076     1.0  0.74446  0.07376  0.70494  1.0000
  C   C624      1.0  0.89294  0.45801  0.74647  1.0000
  C   C625      1.0  0.94046  0.36415  0.70037  1.0000
  H   H1077     1.0  0.54791  0.02373  0.68860  1.0000
  S   S170      1.0  0.92588  0.32294  0.74886  1.0000
  C   C626      1.0  0.49118  0.06182  0.72288  1.0000
  H   H1078     1.0  0.97220  0.24638  0.65309  1.0000
  H   H1079     1.0  0.65236  0.08454  0.65618  1.0000
  H   H1080     1.0  0.95727  0.35273  0.66456  1.0000
  H   H1081     1.0  0.90183  0.10062  0.52050  1.0000
  C   C627      1.0  0.89281  0.40620  0.73743  1.0000
  C   C628      1.0  0.76811  0.10939  0.75054  1.0000
  C   C629      1.0  0.78753  0.15354  0.73360  1.0000
  H   H1082     1.0  0.92898  0.34443  0.70767  1.0000
  H   H1083     1.0  0.97048  0.38139  0.73588  1.0000
  S   S171      1.0  0.97940  0.17850  0.56645  1.0000
  H   H1084     1.0  0.97131  0.26120  0.68702  1.0000
  C   C630      1.0  0.54743  0.46589  0.74605  1.0000
  H   H1085     1.0  0.94451  0.12495  0.50655  1.0000
  H   H1086     1.0  0.90144  0.36238  0.69005  1.0000
  H   H1087     1.0  0.94339  0.38098  0.71103  1.0000
  C   C631      1.0  0.78138  0.28081  0.74491  1.0000
  H   H1088     1.0  0.53368  0.15293  0.74835  1.0000
  H   H1089     1.0  0.97093  0.16032  0.50365  1.0000
  H   H1090     1.0  0.57953  0.47614  0.70527  1.0000
  C   C632      1.0  0.56107  0.47015  0.69510  1.0000
  H   H1091     1.0  0.79878  0.27724  0.75071  1.0000
  N   N46       1.0  0.96802  0.36728  0.69470  1.0000
  C   C633      1.0  0.88171  0.16296  0.52076  1.0000
  H   H1092     1.0  0.82762  0.18719  0.74425  1.0000
  H   H1093     1.0  0.89525  0.16607  0.53400  1.0000
  H   H1094     1.0  0.84984  0.99696  0.62082  1.0000
  H   H1095     1.0  0.87214  0.99644  0.60417  1.0000
  S   S172      1.0  0.88119  0.25585  0.74374  1.0000
  H   H1096     1.0  0.87617  0.11126  0.52513  1.0000
  C   C634      1.0  0.54970  0.03514  0.67532  1.0000
  H   H1097     1.0  0.86292  0.14241  0.52014  1.0000
  C   C635      1.0  0.73652  0.99779  0.51193  1.0000
  C   C636      1.0  0.51329  0.41588  0.74446  1.0000
  S   S173      1.0  0.68314  0.07296  0.75170  1.0000
  C   C637      1.0  0.54112  0.43773  0.74685  1.0000
  C   C638      1.0  0.49122  0.14425  0.73791  1.0000
  C   C639      1.0  0.93340  0.15726  0.51572  1.0000
  H   H1098     1.0  0.91167  0.19007  0.50210  1.0000
  C   C640      1.0  0.89698  0.16746  0.50216  1.0000
  Fe  Fe87      1.0  0.96339  0.17351  0.89763  1.0000
  S   S174      1.0  0.94400  0.20125  0.90063  1.0000
  S   S175      1.0  0.93631  0.12892  0.88698  1.0000
  H   H1099     1.0  0.88468  0.14086  0.84815  1.0000
  S   S176      1.0  0.63191  0.08206  0.76749  1.0000
  C   C641      1.0  0.65644  0.00705  0.82479  1.0000
  Fe  Fe88      1.0  0.64308  0.04727  0.76495  1.0000
  H   H1100     1.0  0.75801  0.10985  0.78037  1.0000
  C   C642      1.0  0.91578  0.26591  0.83377  1.0000
  Fe  Fe89      1.0  0.78459  0.03278  0.91097  1.0000
  S   S177      1.0  0.81972  0.07381  0.92278  1.0000
  S   S178      1.0  0.74153  0.02785  0.90765  1.0000
  H   H1101     1.0  0.95179  0.27732  0.79379  1.0000
  H   H1102     1.0  0.51681  0.20396  0.79228  1.0000
  S   S179      1.0  0.90036  0.28102  0.79930  1.0000
  H   H1103     1.0  0.89685  0.05154  0.91659  1.0000
  S   S180      1.0  0.63823  0.01966  0.79042  1.0000
  Fe  Fe90      1.0  0.97939  0.23206  0.88468  1.0000
  H   H1104     1.0  0.82955  0.03762  0.94763  1.0000
  H   H1105     1.0  0.82804  0.15760  0.84998  1.0000
  H   H1106     1.0  0.89631  0.40346  0.76817  1.0000
  H   H1107     1.0  0.82616  0.10837  0.84457  1.0000
  H   H1108     1.0  0.48174  0.19121  0.78337  1.0000
  C   C643      1.0  0.75920  0.27035  0.75980  1.0000
  H   H1109     1.0  0.82825  0.37085  0.77035  1.0000
  C   C644      1.0  0.87306  0.18124  0.88124  1.0000
  H   H1110     1.0  0.83625  0.18807  0.87739  1.0000
  H   H1111     1.0  0.88295  0.17582  0.89372  1.0000
  C   C645      1.0  0.75654  0.19346  0.76343  1.0000
  C   C646      1.0  0.88789  0.04909  0.93082  1.0000
  C   C647      1.0  0.96340  0.26628  0.82132  1.0000
  H   H1112     1.0  0.84715  0.20344  0.84470  1.0000
  H   H1113     1.0  0.89989  0.15269  0.87200  1.0000
  C   C648      1.0  0.89023  0.15786  0.85929  1.0000
  C   C649      1.0  0.94627  0.27232  0.80841  1.0000
  H   H1114     1.0  0.73986  0.12182  0.76448  1.0000
  C   C650      1.0  0.66430  0.02010  0.80727  1.0000
  C   C651      1.0  0.69225  0.03182  0.80328  1.0000
  H   H1115     1.0  0.73330  0.03889  0.81308  1.0000
  H   H1116     1.0  0.69864  0.04175  0.78985  1.0000
  C   C652      1.0  0.70404  0.01728  0.83410  1.0000
  H   H1117     1.0  0.93129  0.17996  0.84879  1.0000
  S   S181      1.0  0.77280  0.99513  0.92802  1.0000
  H   H1118     1.0  0.93197  0.19433  0.99244  1.0000
  C   C653      1.0  0.90394  0.11350  0.89694  1.0000
  C   C654      1.0  0.89936  0.12599  0.91311  1.0000
  C   C655      1.0  0.87334  0.11361  0.92083  1.0000
  C   C656      1.0  0.85168  0.08888  0.91230  1.0000
  C   C657      1.0  0.85612  0.07652  0.89597  1.0000
  C   C658      1.0  0.88232  0.08870  0.88841  1.0000
  H   H1119     1.0  0.91595  0.14507  0.91984  1.0000
  H   H1120     1.0  0.87002  0.12328  0.93348  1.0000
  H   H1121     1.0  0.83940  0.05768  0.88914  1.0000
  H   H1122     1.0  0.88576  0.07913  0.87577  1.0000
  C   C659      1.0  0.95679  0.25979  0.84050  1.0000
  H   H1123     1.0  0.78877  0.32584  0.76793  1.0000
  H   H1124     1.0  0.86273  0.05824  0.96103  1.0000
  C   C660      1.0  0.92238  0.27240  0.81458  1.0000
  N   N47       1.0  0.48209  0.15497  0.75485  1.0000
  Fe  Fe91      1.0  0.97228  0.21776  0.92806  1.0000
  H   H1125     1.0  0.81867  0.08814  0.86532  1.0000
  H   H1126     1.0  0.92056  0.08408  0.94815  1.0000
  H   H1127     1.0  0.75785  0.19264  0.77896  1.0000
  H   H1128     1.0  0.86868  0.01550  0.96409  1.0000
  H   H1129     1.0  0.90656  0.18756  0.83642  1.0000
  C   C661      1.0  0.50739  0.17760  0.76603  1.0000
  H   H1130     1.0  0.50010  0.40726  0.78939  1.0000
  H   H1131     1.0  0.85022  0.15248  0.83463  1.0000
  H   H1132     1.0  0.50720  0.11829  0.75259  1.0000
  H   H1133     1.0  0.75194  0.24783  0.76136  1.0000
  H   H1134     1.0  0.89659  0.44825  0.77600  1.0000
  C   C662      1.0  0.76011  0.12223  0.76753  1.0000
  H   H1135     1.0  0.50524  0.44242  0.78917  1.0000
  S   S182      1.0  0.98009  0.25364  0.85633  1.0000
  C   C663      1.0  0.93273  0.25954  0.84660  1.0000
  C   C664      1.0  0.91303  0.06138  0.94591  1.0000
  H   H1136     1.0  0.83555  0.02681  0.91736  1.0000
  H   H1137     1.0  0.90801  0.05285  0.96028  1.0000
  S   S183      1.0  0.72965  0.01440  0.84954  1.0000
  C   C665      1.0  0.95158  0.21298  0.99539  1.0000
  C   C666      1.0  0.71187  0.03013  0.81651  1.0000
  C   C667      1.0  0.50223  0.42514  0.79850  1.0000
  N   N48       1.0  0.86653  0.01938  0.93299  1.0000
  C   C668      1.0  0.96634  0.22766  0.97989  1.0000
  H   H1138     1.0  0.85207  0.10078  0.85648  1.0000
  C   C669      1.0  0.84492  0.03709  0.95839  1.0000
  H   H1139     1.0  0.51774  0.16833  0.77535  1.0000
  H   H1140     1.0  0.83593  0.16770  0.89769  1.0000
  S   S184      1.0  0.95141  0.21604  0.95593  1.0000
  H   H1141     1.0  0.50081  0.06277  0.77151  1.0000
  H   H1142     1.0  0.88923  0.20196  0.87764  1.0000
  C   C670      1.0  0.80507  0.32856  0.75804  1.0000
  H   H1143     1.0  0.88250  0.21010  0.84852  1.0000
  H   H1144     1.0  0.85461  0.12833  0.88587  1.0000
  N   N49       1.0  0.86483  0.15971  0.86480  1.0000
  C   C671      1.0  0.91330  0.18371  0.85085  1.0000
  H   H1145     1.0  0.86387  0.19631  0.82589  1.0000
  H   H1146     1.0  0.85563  0.99133  0.89448  1.0000
  S   S185      1.0  0.78082  0.00996  0.88304  1.0000
  C   C672      1.0  0.84922  0.18524  0.88899  1.0000
  C   C673      1.0  0.84514  0.13215  0.87247  1.0000
  H   H1147     1.0  0.85823  0.20418  0.89885  1.0000
  C   C674      1.0  0.86190  0.19543  0.84172  1.0000
  H   H1148     1.0  0.82584  0.13218  0.87668  1.0000
  C   C675      1.0  0.85034  0.16499  0.84754  1.0000
  H   H1149     1.0  0.92135  0.20262  0.86051  1.0000
  C   C676      1.0  0.82188  0.35999  0.75582  1.0000
  H   H1150     1.0  0.78811  0.10978  0.75508  1.0000
  H   H1151     1.0  0.54498  0.06420  0.76287  1.0000
  H   H1152     1.0  0.89755  0.26614  0.83882  1.0000
  H   H1153     1.0  0.75579  0.04129  0.99191  1.0000
  H   H1154     1.0  0.76780  0.28067  0.77430  1.0000
  H   H1155     1.0  0.86790  0.02813  0.89196  1.0000
  H   H1156     1.0  0.79813  0.22769  0.76277  1.0000
  C   C677      1.0  0.89489  0.44130  0.76107  1.0000
  C   C678      1.0  0.83525  0.10621  0.85865  1.0000
  C   C679      1.0  0.85074  0.00866  0.89656  1.0000
  H   H1157     1.0  0.87843  0.06315  0.93045  1.0000
  H   H1158     1.0  0.50956  0.21841  0.77162  1.0000
  H   H1159     1.0  0.81825  0.15645  0.75698  1.0000
  C   C680      1.0  0.73217  0.17436  0.75260  1.0000
  H   H1160     1.0  0.92755  0.25518  0.86136  1.0000
  Fe  Fe92      1.0  0.89591  0.28984  0.76729  1.0000
  H   H1161     1.0  0.83466  0.03119  0.97213  1.0000
  H   H1162     1.0  0.77611  0.14383  0.77169  1.0000
  Fe  Fe93      1.0  0.73657  0.00273  0.88017  1.0000
  S   S186      1.0  0.70413  0.14958  0.76473  1.0000
  H   H1163     1.0  0.93018  0.05798  0.94089  1.0000
  H   H1164     1.0  0.74063  0.27244  0.75517  1.0000
  S   S187      1.0  0.86148  0.30093  0.75967  1.0000
  H   H1165     1.0  0.82519  0.99144  0.92020  1.0000
  C   C681      1.0  0.67618  0.00594  0.83823  1.0000
  C   C682      1.0  0.50297  0.19856  0.77883  1.0000
  C   C683      1.0  0.84345  0.01143  0.91738  1.0000
  C   C684      1.0  0.50492  0.06267  0.75648  1.0000
  H   H1166     1.0  0.83233  0.00368  0.88654  1.0000
  H   H1167     1.0  0.81923  0.32223  0.76605  1.0000
  H   H1168     1.0  0.52164  0.43258  0.80799  1.0000
  C   C685      1.0  0.85419  0.01563  0.95228  1.0000
  H   H1169     1.0  0.63489  0.99788  0.82803  1.0000
  H   H1170     1.0  0.89146  0.00502  0.91790  1.0000
  H   H1171     1.0  0.52298  0.19033  0.75585  1.0000
  H   H1172     1.0  0.66973  0.99601  0.85165  1.0000
  C   C686      1.0  0.88033  0.00131  0.93134  1.0000
  C   C687      1.0  0.89474  0.41571  0.75665  1.0000
  H   H1173     1.0  0.89682  0.00689  0.94324  1.0000
  C   C688      1.0  0.77938  0.21336  0.75429  1.0000
  Fe  Fe94      1.0  0.67108  0.10691  0.75241  1.0000
  H   H1174     1.0  0.83548  0.99491  0.95246  1.0000
  H   H1175     1.0  0.82876  0.80247  0.02862  1.0000
  H   H1176     1.0  0.67056  0.90404  0.10629  1.0000
  H   H1177     1.0  0.64692  0.88738  0.12395  1.0000
  Fe  Fe95      1.0  0.56435  0.85880  0.22945  1.0000
  H   H1178     1.0  0.71499  0.88303  0.14603  1.0000
  S   S188      1.0  0.57104  0.82217  0.22038  1.0000
  Fe  Fe96      1.0  0.58999  0.91927  0.21887  1.0000
  S   S189      1.0  0.62594  0.95005  0.20191  1.0000
  S   S190      1.0  0.55051  0.88112  0.20806  1.0000
  S   S191      1.0  0.96507  0.72568  0.07689  1.0000
  C   C689      1.0  0.69204  0.78497  0.14870  1.0000
  Fe  Fe97      1.0  0.70538  0.97398  0.10329  1.0000
  H   H1179     1.0  0.87874  0.74670  0.05290  1.0000
  H   H1180     1.0  0.90311  0.77914  0.04494  1.0000
  C   C690      1.0  0.69555  0.87716  0.15338  1.0000
  Fe  Fe98      1.0  0.59466  0.66562  0.23298  1.0000
  S   S192      1.0  0.63112  0.68968  0.21387  1.0000
  S   S193      1.0  0.54962  0.65513  0.22671  1.0000
  Fe  Fe99      1.0  0.71593  0.72105  0.11669  1.0000
  S   S194      1.0  0.74409  0.76443  0.12869  1.0000
  S   S195      1.0  0.68496  0.68662  0.13452  1.0000
  Fe  Fe100     1.0  0.73791  0.73541  0.07552  1.0000
  S   S196      1.0  0.76624  0.77986  0.08530  1.0000
  S   S197      1.0  0.74491  0.72099  0.04617  1.0000
  Fe  Fe101     1.0  0.77681  0.76203  0.11133  1.0000
  S   S198      1.0  0.82178  0.77729  0.12258  1.0000
  Fe  Fe102     1.0  0.73070  0.77745  0.10136  1.0000
  S   S199      1.0  0.71012  0.80502  0.10044  1.0000
  S   S200      1.0  0.74966  0.71767  0.10129  1.0000
  S   S201      1.0  0.70125  0.73390  0.08974  1.0000
  Fe  Fe103     1.0  0.75413  0.96224  0.10471  1.0000
  S   S202      1.0  0.71501  0.94485  0.08538  1.0000
  S   S203      1.0  0.77133  0.93561  0.11836  1.0000
  H   H1181     1.0  0.58588  0.77905  0.21456  1.0000
  C   C691      1.0  0.69808  0.86438  0.17235  1.0000
  H   H1182     1.0  0.70593  0.94222  0.16916  1.0000
  H   H1183     1.0  0.62567  0.85148  0.24413  1.0000
  C   C692      1.0  0.54707  0.74017  0.24984  1.0000
  H   H1184     1.0  0.75514  0.95245  0.17469  1.0000
  Fe  Fe104     1.0  0.73805  0.98057  0.06657  1.0000
  Fe  Fe105     1.0  0.94743  0.74996  0.09254  1.0000
  S   S204      1.0  0.89995  0.73055  0.09049  1.0000
  H   H1185     1.0  0.86336  0.77046  0.07112  1.0000
  C   C693      1.0  0.71104  0.92474  0.16836  1.0000
  C   C694      1.0  0.73592  0.72858  0.02293  1.0000
  H   H1186     1.0  0.70600  0.74058  0.03208  1.0000
  H   H1187     1.0  0.79880  0.70713  0.04182  1.0000
  C   C695      1.0  0.72810  0.84131  0.10514  1.0000
  C   C696      1.0  0.71491  0.85693  0.09953  1.0000
  C   C697      1.0  0.72825  0.88585  0.10312  1.0000
  C   C698      1.0  0.75462  0.89939  0.11284  1.0000
  C   C699      1.0  0.76762  0.88368  0.11882  1.0000
  C   C700      1.0  0.75453  0.85473  0.11481  1.0000
  H   H1188     1.0  0.69448  0.84668  0.09201  1.0000
  H   H1189     1.0  0.71806  0.89759  0.09834  1.0000
  H   H1190     1.0  0.78801  0.89400  0.12638  1.0000
  H   H1191     1.0  0.76480  0.84284  0.11929  1.0000
  C   C701      1.0  0.84335  0.76423  0.11344  1.0000
  C   C702      1.0  0.83222  0.73869  0.10294  1.0000
  C   C703      1.0  0.84986  0.72844  0.09655  1.0000
  C   C704      1.0  0.87887  0.74390  0.10003  1.0000
  C   C705      1.0  0.89004  0.76956  0.11038  1.0000
  C   C706      1.0  0.87233  0.77950  0.11720  1.0000
  H   H1192     1.0  0.81000  0.72657  0.10000  1.0000
  H   H1193     1.0  0.84100  0.70849  0.08868  1.0000
  H   H1194     1.0  0.91231  0.78168  0.11321  1.0000
  H   H1195     1.0  0.88119  0.79924  0.12537  1.0000
  H   H1196     1.0  0.66981  0.87404  0.11623  1.0000
  H   H1197     1.0  0.78946  0.71838  0.13435  1.0000
  H   H1198     1.0  0.71504  0.87961  0.18251  1.0000
  H   H1199     1.0  0.65842  0.80436  0.12216  1.0000
  C   C707      1.0  0.64567  0.68796  0.19178  1.0000
  C   C708      1.0  0.67042  0.71104  0.18713  1.0000
  C   C709      1.0  0.68272  0.71104  0.16977  1.0000
  C   C710      1.0  0.67046  0.68785  0.15673  1.0000
  C   C711      1.0  0.64596  0.66461  0.16149  1.0000
  C   C712      1.0  0.63353  0.66470  0.17880  1.0000
  H   H1200     1.0  0.68014  0.72909  0.19708  1.0000
  H   H1201     1.0  0.70176  0.72896  0.16657  1.0000
  H   H1202     1.0  0.63632  0.64644  0.15164  1.0000
  H   H1203     1.0  0.61459  0.64673  0.18211  1.0000
  C   C713      1.0  0.63562  0.94995  0.17772  1.0000
  C   C714      1.0  0.66324  0.96770  0.17362  1.0000
  C   C715      1.0  0.67175  0.96942  0.15463  1.0000
  C   C716      1.0  0.65256  0.95385  0.13928  1.0000
  C   C717      1.0  0.62497  0.93595  0.14338  1.0000
  C   C718      1.0  0.61662  0.93372  0.16247  1.0000
  C   C719      1.0  0.74839  0.72434  0.00689  1.0000
  H   H1204     1.0  0.60987  0.92380  0.13170  1.0000
  H   H1205     1.0  0.59527  0.92010  0.16527  1.0000
  C   C720      1.0  0.56127  0.79073  0.23200  1.0000
  H   H1206     1.0  0.80286  0.67978  0.13680  1.0000
  C   C721      1.0  0.56513  0.74811  0.23503  1.0000
  C   C722      1.0  0.57205  0.77319  0.22610  1.0000
  C   C723      1.0  0.86230  0.79956  0.01580  1.0000
  C   C724      1.0  0.86738  0.77995  0.05691  1.0000
  N   N50       1.0  0.76986  0.69772  0.15966  1.0000
  C   C725      1.0  0.75502  0.71503  0.16070  1.0000
  C   C726      1.0  0.75022  0.67111  0.14827  1.0000
  C   C727      1.0  0.79539  0.71352  0.14879  1.0000
  C   C728      1.0  0.77751  0.69322  0.17996  1.0000
  C   C729      1.0  0.77209  0.74483  0.16984  1.0000
  C   C730      1.0  0.72359  0.65187  0.15800  1.0000
  C   C731      1.0  0.81377  0.69963  0.14556  1.0000
  C   C732      1.0  0.78455  0.66912  0.18280  1.0000
  H   H1207     1.0  0.74697  0.71687  0.14605  1.0000
  H   H1208     1.0  0.73642  0.70488  0.16914  1.0000
  H   H1209     1.0  0.76023  0.65837  0.14451  1.0000
  C   C733      1.0  0.84803  0.80167  0.03379  1.0000
  H   H1210     1.0  0.87193  0.75845  0.03028  1.0000
  H   H1211     1.0  0.80965  0.73388  0.15637  1.0000
  H   H1212     1.0  0.79563  0.71248  0.18641  1.0000
  H   H1213     1.0  0.76035  0.68945  0.18938  1.0000
  H   H1214     1.0  0.78766  0.75867  0.16013  1.0000
  H   H1215     1.0  0.75787  0.75378  0.17199  1.0000
  H   H1216     1.0  0.78233  0.74548  0.18416  1.0000
  S   S205      1.0  0.97642  0.75870  0.11912  1.0000
  H   H1217     1.0  0.72808  0.64560  0.17222  1.0000
  H   H1218     1.0  0.70972  0.66126  0.15960  1.0000
  H   H1219     1.0  0.76359  0.71712  0.00900  1.0000
  H   H1220     1.0  0.83148  0.71363  0.13736  1.0000
  Fe  Fe106     1.0  0.53825  0.61748  0.24478  1.0000
  H   H1221     1.0  0.80551  0.67727  0.19039  1.0000
  H   H1222     1.0  0.78456  0.65781  0.16945  1.0000
  H   H1223     1.0  0.76977  0.65374  0.19224  1.0000
  C   C734      1.0  0.62502  0.71677  0.13580  1.0000
  H   H1224     1.0  0.63064  0.70567  0.14701  1.0000
  H   H1225     1.0  0.60220  0.70861  0.13599  1.0000
  H   H1226     1.0  0.64552  0.74194  0.17073  1.0000
  H   H1227     1.0  0.62237  0.71467  0.10381  1.0000
  H   H1228     1.0  0.59410  0.71958  0.16519  1.0000
  H   H1229     1.0  0.59611  0.75220  0.15783  1.0000
  H   H1230     1.0  0.67813  0.98052  0.18521  1.0000
  Fe  Fe107     1.0  0.53004  0.89070  0.23278  1.0000
  C   C735      1.0  0.63930  0.79266  0.12986  1.0000
  H   H1231     1.0  0.67898  0.85990  0.14405  1.0000
  C   C736      1.0  0.73515  0.97939  0.01143  1.0000
  N   N51       1.0  0.68967  0.90143  0.15501  1.0000
  C   C737      1.0  0.66813  0.89302  0.11982  1.0000
  H   H1232     1.0  0.71287  0.79151  0.14341  1.0000
  C   C738      1.0  0.82654  0.78521  0.06380  1.0000
  H   H1233     1.0  0.74356  0.67577  0.13397  1.0000
  C   C739      1.0  0.84290  0.81337  0.07539  1.0000
  C   C740      1.0  0.71591  0.73741  0.01993  1.0000
  H   H1234     1.0  0.82066  0.76932  0.07475  1.0000
  H   H1235     1.0  0.80166  0.75210  0.03284  1.0000
  H   H1236     1.0  0.86227  0.82247  0.04076  1.0000
  H   H1237     1.0  0.88382  0.80176  0.06026  1.0000
  H   H1238     1.0  0.83078  0.81373  0.08760  1.0000
  H   H1239     1.0  0.86317  0.81647  0.08190  1.0000
  H   H1240     1.0  0.84568  0.83111  0.06668  1.0000
  H   H1241     1.0  0.83000  0.72438  0.05722  1.0000
  H   H1242     1.0  0.86517  0.81691  0.00655  1.0000
  C   C741      1.0  0.65767  0.89478  0.18330  1.0000
  H   H1243     1.0  0.79915  0.72678  0.06254  1.0000
  C   C742      1.0  0.97264  0.73158  0.00928  1.0000
  H   H1244     1.0  0.63257  0.75806  0.11170  1.0000
  C   C743      1.0  0.60654  0.74254  0.16649  1.0000
  S   S206      1.0  0.66194  0.95598  0.11486  1.0000
  S   S207      1.0  0.74930  0.98064  0.03525  1.0000
  C   C744      1.0  0.62966  0.70661  0.11608  1.0000
  H   H1245     1.0  0.61751  0.68359  0.11468  1.0000
  H   H1246     1.0  0.66723  0.88464  0.19222  1.0000
  C   C745      1.0  0.88046  0.76509  0.04533  1.0000
  H   H1247     1.0  0.91351  0.72078  0.00427  1.0000
  H   H1248     1.0  0.62319  0.79794  0.12398  1.0000
  H   H1249     1.0  0.63521  0.88476  0.18585  1.0000
  H   H1250     1.0  0.68758  0.80246  0.14660  1.0000
  N   N52       1.0  0.84130  0.77935  0.04802  1.0000
  H   H1251     1.0  0.69037  0.93247  0.13598  1.0000
  C   C746      1.0  0.62839  0.76110  0.12681  1.0000
  H   H1252     1.0  0.70333  0.84749  0.16909  1.0000
  H   H1253     1.0  0.71087  0.91823  0.18336  1.0000
  S   S208      1.0  0.60440  0.89645  0.23918  1.0000
  C   C747      1.0  0.63669  0.75250  0.16128  1.0000
  H   H1254     1.0  0.67710  0.74204  0.14158  1.0000
  H   H1255     1.0  0.65162  0.71175  0.11479  1.0000
  H   H1256     1.0  0.60678  0.74871  0.18187  1.0000
  H   H1257     1.0  0.71153  0.63260  0.14866  1.0000
  C   C748      1.0  0.81206  0.72636  0.05093  1.0000
  H   H1258     1.0  0.57366  0.73485  0.23042  1.0000
  H   H1259     1.0  0.71117  0.91749  0.12910  1.0000
  N   N53       1.0  0.64041  0.74776  0.14041  1.0000
  C   C749      1.0  0.54328  0.78287  0.24686  1.0000
  C   C750      1.0  0.67077  0.75788  0.13746  1.0000
  H   H1260     1.0  0.64840  0.77468  0.16624  1.0000
  H   H1261     1.0  0.74478  0.94858  0.14973  1.0000
  C   C751      1.0  0.74141  0.93708  0.16306  1.0000
  H   H1262     1.0  0.82870  0.74653  0.02530  1.0000
  H   H1263     1.0  0.74847  0.92122  0.16161  1.0000
  S   S209      1.0  0.50162  0.57331  0.23515  1.0000
  H   H1264     1.0  0.67819  0.85485  0.17927  1.0000
  C   C752      1.0  0.66078  0.89246  0.16146  1.0000
  H   H1265     1.0  0.66643  0.91685  0.18854  1.0000
  H   H1266     1.0  0.67453  0.76060  0.12190  1.0000
  H   H1267     1.0  0.60530  0.75064  0.12633  1.0000
  H   H1268     1.0  0.80663  0.78395  0.05781  1.0000
  H   H1269     1.0  0.65193  0.90531  0.15505  1.0000
  C   C753      1.0  0.69108  0.91249  0.13518  1.0000
  H   H1270     1.0  0.69370  0.78171  0.16432  1.0000
  C   C754      1.0  0.82094  0.75159  0.03831  1.0000
  H   H1271     1.0  0.82332  0.69709  0.15928  1.0000
  H   H1272     1.0  0.64621  0.87073  0.15613  1.0000
  H   H1273     1.0  0.64317  0.80013  0.14517  1.0000
  H   H1274     1.0  0.51969  0.51801  0.24077  1.0000
  H   H1275     1.0  0.96430  0.72019  0.02191  1.0000
  H   H1276     1.0  0.53460  0.79603  0.25138  1.0000
  S   S210      1.0  0.48382  0.88210  0.23328  1.0000
  H   H1277     1.0  0.84968  0.78023  0.00674  1.0000
  H   H1278     1.0  0.88337  0.80226  0.01966  1.0000
  C   C755      1.0  0.70793  0.97461  0.00716  1.0000
  S   S211      1.0  0.97489  0.79008  0.07928  1.0000
  S   S212      1.0  0.56899  0.93060  0.24239  1.0000
  H   H1279     1.0  0.69442  0.97132  0.01871  1.0000
  H   H1280     1.0  0.96402  0.67681  0.04085  1.0000
  S   S213      1.0  0.58345  0.62657  0.24920  1.0000
  H   H1281     1.0  0.69298  0.98342  0.15179  1.0000
  H   H1282     1.0  0.90116  0.74542  0.00264  1.0000
  C   C756      1.0  0.61018  0.85011  0.27249  1.0000
  S   S214      1.0  0.59239  0.91136  0.29446  1.0000
  H   H1283     1.0  0.55925  0.83752  0.28385  1.0000
  Fe  Fe108     1.0  0.58648  0.65251  0.27604  1.0000
  S   S215      1.0  0.60138  0.64938  0.30715  1.0000
  S   S216      1.0  0.54105  0.64119  0.27237  1.0000
  Fe  Fe109     1.0  0.94754  0.73542  0.39946  1.0000
  S   S217      1.0  0.90032  0.71331  0.39824  1.0000
  H   H1284     1.0  0.49383  0.57090  0.30782  1.0000
  Fe  Fe110     1.0  0.72924  0.72422  0.39122  1.0000
  S   S218      1.0  0.76018  0.76977  0.39363  1.0000
  S   S219      1.0  0.71681  0.70911  0.35926  1.0000
  Fe  Fe111     1.0  0.73483  0.72092  0.43575  1.0000
  S   S220      1.0  0.76563  0.76600  0.44044  1.0000
  S   S221      1.0  0.72456  0.69403  0.46179  1.0000
  Fe  Fe112     1.0  0.73762  0.77255  0.41875  1.0000
  S   S222      1.0  0.72047  0.80262  0.42259  1.0000
  Fe  Fe113     1.0  0.78532  0.75858  0.41492  1.0000
  S   S223      1.0  0.83234  0.77839  0.41439  1.0000
  S   S224      1.0  0.70509  0.72762  0.41543  1.0000
  S   S225      1.0  0.75612  0.71298  0.41117  1.0000
  Fe  Fe114     1.0  0.76372  0.95460  0.40049  1.0000
  S   S226      1.0  0.71767  0.93882  0.39885  1.0000
  S   S227      1.0  0.78454  0.92742  0.39869  1.0000
  H   H1285     1.0  0.86305  0.71556  0.34610  1.0000
  H   H1286     1.0  0.63283  0.72092  0.40072  1.0000
  H   H1287     1.0  0.82849  0.68792  0.34590  1.0000
  H   H1288     1.0  0.87434  0.77541  0.46675  1.0000
  C   C757      1.0  0.73884  0.83719  0.41591  1.0000
  C   C758      1.0  0.76576  0.84815  0.40989  1.0000
  C   C759      1.0  0.77958  0.87586  0.40458  1.0000
  C   C760      1.0  0.76650  0.89262  0.40511  1.0000
  C   C761      1.0  0.73942  0.88143  0.41085  1.0000
  C   C762      1.0  0.72569  0.85384  0.41628  1.0000
  H   H1289     1.0  0.77603  0.83541  0.40951  1.0000
  H   H1290     1.0  0.80053  0.88440  0.40011  1.0000
  H   H1291     1.0  0.72912  0.89408  0.41119  1.0000
  H   H1292     1.0  0.70476  0.84532  0.42075  1.0000
  C   C763      1.0  0.88182  0.73165  0.40318  1.0000
  C   C764      1.0  0.85365  0.71681  0.40685  1.0000
  C   C765      1.0  0.83828  0.73083  0.41062  1.0000
  C   C766      1.0  0.85092  0.75981  0.41050  1.0000
  C   C767      1.0  0.87916  0.77461  0.40710  1.0000
  C   C768      1.0  0.89458  0.76064  0.40349  1.0000
  H   H1293     1.0  0.84370  0.69439  0.40683  1.0000
  H   H1294     1.0  0.81670  0.71927  0.41364  1.0000
  H   H1295     1.0  0.88912  0.79704  0.40703  1.0000
  H   H1296     1.0  0.91622  0.77230  0.40060  1.0000
  H   H1297     1.0  0.83850  0.71177  0.32670  1.0000
  C   C769      1.0  0.50724  0.93467  0.30881  1.0000
  H   H1298     1.0  0.65620  0.73927  0.32740  1.0000
  H   H1299     1.0  0.92214  0.74303  0.43676  1.0000
  C   C770      1.0  0.70010  0.96366  0.48938  1.0000
  H   H1300     1.0  0.98024  0.69557  0.34351  1.0000
  C   C771      1.0  0.72202  0.70707  0.48485  1.0000
  C   C772      1.0  0.96202  0.70859  0.49464  1.0000
  H   H1301     1.0  0.57584  0.79718  0.28219  1.0000
  H   H1302     1.0  0.94579  0.74363  0.45551  1.0000
  H   H1303     1.0  0.60993  0.79915  0.26037  1.0000
  H   H1304     1.0  0.51824  0.89856  0.27180  1.0000
  C   C773      1.0  0.51450  0.57178  0.30747  1.0000
  C   C774      1.0  0.63358  0.66763  0.32144  1.0000
  C   C775      1.0  0.63408  0.66388  0.34142  1.0000
  C   C776      1.0  0.65912  0.67704  0.35330  1.0000
  C   C777      1.0  0.68422  0.69378  0.34529  1.0000
  C   C778      1.0  0.68374  0.69762  0.32532  1.0000
  C   C779      1.0  0.65860  0.68490  0.31351  1.0000
  H   H1305     1.0  0.61494  0.65051  0.34776  1.0000
  H   H1306     1.0  0.65908  0.67357  0.36856  1.0000
  H   H1307     1.0  0.70296  0.71040  0.31889  1.0000
  H   H1308     1.0  0.65867  0.68795  0.29819  1.0000
  C   C780      1.0  0.63417  0.85591  0.25943  1.0000
  C   C781      1.0  0.62474  0.92770  0.30878  1.0000
  C   C782      1.0  0.62480  0.92462  0.32885  1.0000
  C   C783      1.0  0.64978  0.93722  0.34085  1.0000
  C   C784      1.0  0.67514  0.95341  0.33296  1.0000
  C   C785      1.0  0.67506  0.95641  0.31287  1.0000
  C   C786      1.0  0.65013  0.94356  0.30084  1.0000
  H   H1309     1.0  0.60535  0.91250  0.33523  1.0000
  H   H1310     1.0  0.64449  0.72013  0.34876  1.0000
  C   C787      1.0  0.50843  0.94103  0.27395  1.0000
  H   H1311     1.0  0.65054  0.94622  0.28547  1.0000
  H   H1312     1.0  0.88030  0.74539  0.44352  1.0000
  H   H1313     1.0  0.71803  0.91318  0.44269  1.0000
  S   S228      1.0  0.97407  0.74837  0.37404  1.0000
  H   H1314     1.0  0.65321  0.84373  0.29233  1.0000
  C   C788      1.0  0.90984  0.70458  0.45040  1.0000
  H   H1315     1.0  0.76620  0.88705  0.48040  1.0000
  C   C789      1.0  0.63942  0.84825  0.30111  1.0000
  H   H1316     1.0  0.56777  0.58679  0.30745  1.0000
  H   H1317     1.0  0.96106  0.56615  0.28097  1.0000
  H   H1318     1.0  0.88120  0.69933  0.48170  1.0000
  C   C790      1.0  0.78967  0.70891  0.49652  1.0000
  H   H1319     1.0  0.77181  0.73751  0.31018  1.0000
  N   N54       1.0  0.67205  0.77156  0.36885  1.0000
  C   C791      1.0  0.68692  0.80276  0.37255  1.0000
  C   C792      1.0  0.69410  0.76278  0.36666  1.0000
  C   C793      1.0  0.65666  0.75890  0.38640  1.0000
  C   C794      1.0  0.65226  0.76439  0.35109  1.0000
  C   C795      1.0  0.66894  0.81613  0.37845  1.0000
  C   C796      1.0  0.71386  0.77650  0.35064  1.0000
  C   C797      1.0  0.64368  0.73631  0.34002  1.0000
  H   H1320     1.0  0.70407  0.80910  0.38400  1.0000
  H   H1321     1.0  0.69714  0.81337  0.35956  1.0000
  H   H1322     1.0  0.68520  0.74014  0.36394  1.0000
  H   H1323     1.0  0.70719  0.76733  0.38046  1.0000
  H   H1324     1.0  0.67119  0.76650  0.39961  1.0000
  H   H1325     1.0  0.64053  0.76537  0.38866  1.0000
  H   H1326     1.0  0.63289  0.76477  0.35476  1.0000
  H   H1327     1.0  0.66165  0.78044  0.34033  1.0000
  H   H1328     1.0  0.65003  0.80931  0.36859  1.0000
  H   H1329     1.0  0.66326  0.81193  0.39356  1.0000
  H   H1330     1.0  0.68133  0.83907  0.37800  1.0000
  H   H1331     1.0  0.70253  0.77552  0.33671  1.0000
  H   H1332     1.0  0.72906  0.79838  0.35495  1.0000
  H   H1333     1.0  0.72610  0.76540  0.34832  1.0000
  H   H1334     1.0  0.62187  0.72763  0.33387  1.0000
  H   H1335     1.0  0.59494  0.83601  0.31959  1.0000
  H   H1336     1.0  0.53068  0.87496  0.29594  1.0000
  H   H1337     1.0  0.48617  0.89466  0.32400  1.0000
  C   C798      1.0  0.61157  0.79412  0.27558  1.0000
  H   H1338     1.0  0.95416  0.52263  0.29242  1.0000
  C   C799      1.0  0.72475  0.73368  0.48763  1.0000
  H   H1339     1.0  0.56041  0.54315  0.26365  1.0000
  H   H1340     1.0  0.61069  0.87052  0.27529  1.0000
  C   C800      1.0  0.70401  0.89438  0.44999  1.0000
  S   S229      1.0  0.70739  0.97098  0.34733  1.0000
  H   H1341     1.0  0.76408  0.92058  0.44399  1.0000
  C   C801      1.0  0.72000  0.88406  0.46365  1.0000
  H   H1342     1.0  0.60210  0.86652  0.30737  1.0000
  H   H1343     1.0  0.65351  0.89212  0.29430  1.0000
  H   H1344     1.0  0.68880  0.89840  0.45750  1.0000
  H   H1345     1.0  0.86885  0.71771  0.45876  1.0000
  H   H1346     1.0  0.81154  0.71749  0.49293  1.0000
  N   N55       1.0  0.91190  0.74959  0.46531  1.0000
  S   S230      1.0  0.70323  0.95912  0.45011  1.0000
  C   C802      1.0  0.71726  0.69039  0.50078  1.0000
  H   H1347     1.0  0.67713  0.88657  0.31009  1.0000
  H   H1348     1.0  0.52990  0.94532  0.31326  1.0000
  H   H1349     1.0  0.64490  0.84336  0.26175  1.0000
  C   C803      1.0  0.71662  0.97450  0.47375  1.0000
  H   H1350     1.0  0.61177  0.59985  0.29652  1.0000
  Fe  Fe115     1.0  0.72543  0.97296  0.37854  1.0000
  C   C804      1.0  0.59462  0.58083  0.28903  1.0000
  C   C805      1.0  0.65479  0.87978  0.30635  1.0000
  C   C806      1.0  0.86743  0.75358  0.47045  1.0000
  H   H1351     1.0  0.73285  0.87808  0.45475  1.0000
  H   H1352     1.0  0.92434  0.78605  0.44846  1.0000
  H   H1353     1.0  0.55396  0.95880  0.27242  1.0000
  H   H1354     1.0  0.78951  0.92239  0.46253  1.0000
  H   H1355     1.0  0.62309  0.71793  0.37565  1.0000
  Fe  Fe116     1.0  0.72786  0.97113  0.42327  1.0000
  C   C807      1.0  0.92771  0.78064  0.46342  1.0000
  H   H1356     1.0  0.50197  0.51053  0.31524  1.0000
  S   S231      1.0  0.53808  0.70905  0.26173  1.0000
  H   H1357     1.0  0.88747  0.69457  0.44561  1.0000
  H   H1358     1.0  0.59552  0.56274  0.29519  1.0000
  C   C808      1.0  0.51727  0.51947  0.25645  1.0000
  C   C809      1.0  0.56259  0.83232  0.29872  1.0000
  C   C810      1.0  0.91596  0.74340  0.48594  1.0000
  H   H1359     1.0  0.50558  0.92517  0.33909  1.0000
  H   H1360     1.0  0.52371  0.89162  0.31541  1.0000
  C   C811      1.0  0.51664  0.56004  0.28762  1.0000
  N   N56       1.0  0.61060  0.83715  0.29138  1.0000
  H   H1361     1.0  0.51672  0.55983  0.31947  1.0000
  H   H1362     1.0  0.93667  0.74442  0.48860  1.0000
  C   C812      1.0  0.59745  0.80596  0.28868  1.0000
  C   C813      1.0  0.97458  0.52649  0.29924  1.0000
  H   H1363     1.0  0.63867  0.83758  0.31470  1.0000
  C   C814      1.0  0.59368  0.84371  0.30505  1.0000
  C   C815      1.0  0.51043  0.50721  0.30185  1.0000
  H   H1364     1.0  0.59591  0.79651  0.30289  1.0000
  H   H1365     1.0  0.91352  0.69643  0.46408  1.0000
  H   H1366     1.0  0.72813  0.74668  0.47552  1.0000
  H   H1367     1.0  0.94636  0.68703  0.49287  1.0000
  H   H1368     1.0  0.64936  0.93477  0.35624  1.0000
  H   H1369     1.0  0.53972  0.98012  0.26406  1.0000
  H   H1370     1.0  0.56691  0.59819  0.28394  1.0000
  S   S232      1.0  0.60008  0.69164  0.26031  1.0000
  H   H1371     1.0  0.53023  0.59400  0.30991  1.0000
  H   H1372     1.0  0.52197  0.75151  0.26701  1.0000
  S   S233      1.0  0.54149  0.86525  0.25318  1.0000
  H   H1373     1.0  0.55364  0.84200  0.30837  1.0000
  H   H1374     1.0  0.51691  0.50079  0.26263  1.0000
  H   H1375     1.0  0.59033  0.83711  0.26369  1.0000
  C   C816      1.0  0.92343  0.73648  0.45166  1.0000
  C   C817      1.0  0.77608  0.93147  0.45766  1.0000
  S   S234      1.0  0.97039  0.71441  0.41364  1.0000
  H   H1376     1.0  0.84474  0.74216  0.46637  1.0000
  H   H1377     1.0  0.96956  0.71207  0.46434  1.0000
  H   H1378     1.0  0.49644  0.54151  0.28379  1.0000
  H   H1379     1.0  0.64675  0.88500  0.31926  1.0000
  N   N57       1.0  0.80445  0.72509  0.35096  1.0000
  C   C818      1.0  0.80025  0.74351  0.36539  1.0000
  C   C819      1.0  0.78350  0.69533  0.35360  1.0000
  C   C820      1.0  0.80019  0.73198  0.33060  1.0000
  C   C821      1.0  0.83378  0.72960  0.35426  1.0000
  C   C822      1.0  0.81829  0.77507  0.36360  1.0000
  C   C823      1.0  0.78712  0.68320  0.37272  1.0000
  C   C824      1.0  0.77249  0.73223  0.32546  1.0000
  C   C825      1.0  0.84093  0.70991  0.34243  1.0000
  H   H1380     1.0  0.77814  0.73885  0.36488  1.0000
  H   H1381     1.0  0.80484  0.73931  0.38033  1.0000
  H   H1382     1.0  0.78324  0.68136  0.34160  1.0000
  H   H1383     1.0  0.76209  0.69289  0.35298  1.0000
  H   H1384     1.0  0.81739  0.75244  0.32717  1.0000
  H   H1385     1.0  0.80086  0.71674  0.32006  1.0000
  H   H1386     1.0  0.84900  0.75101  0.35083  1.0000
  H   H1387     1.0  0.83880  0.72808  0.36974  1.0000
  H   H1388     1.0  0.81489  0.78205  0.34936  1.0000
  H   H1389     1.0  0.81266  0.78632  0.37451  1.0000
  H   H1390     1.0  0.84067  0.78175  0.36686  1.0000
  H   H1391     1.0  0.78456  0.69425  0.38531  1.0000
  H   H1392     1.0  0.77062  0.66127  0.37278  1.0000
  H   H1393     1.0  0.80728  0.68309  0.37466  1.0000
  H   H1394     1.0  0.77016  0.74806  0.33428  1.0000
  H   H1395     1.0  0.75429  0.71159  0.32676  1.0000
  C   C826      1.0  0.64123  0.72698  0.38640  1.0000
  C   C827      1.0  0.88196  0.74047  0.45882  1.0000
  H   H1396     1.0  0.91983  0.69816  0.43927  1.0000
  H   H1397     1.0  0.65492  0.71747  0.38441  1.0000
  H   H1398     1.0  0.54449  0.56349  0.25612  1.0000
  N   N58       1.0  0.73743  0.90389  0.48029  1.0000
  H   H1399     1.0  0.71473  0.66964  0.49873  1.0000
  H   H1400     1.0  0.55067  0.80955  0.30008  1.0000
  H   H1401     1.0  0.49555  0.86597  0.29892  1.0000
  Fe  Fe117     1.0  0.58107  0.90469  0.26167  1.0000
  C   C828      1.0  0.54201  0.54626  0.26546  1.0000
  C   C829      1.0  0.75727  0.93181  0.47331  1.0000
  H   H1402     1.0  0.59895  0.58197  0.27357  1.0000
  H   H1403     1.0  0.63340  0.80061  0.28058  1.0000
  N   N59       1.0  0.54071  0.55401  0.28620  1.0000
  C   C830      1.0  0.89411  0.71536  0.49307  1.0000
  S   S235      1.0  0.77146  0.98686  0.37880  1.0000
  C   C831      1.0  0.49190  0.91688  0.32556  1.0000
  S   S236      1.0  0.77343  0.98464  0.42591  1.0000
  H   H1404     1.0  0.54796  0.54131  0.31421  1.0000
  H   H1405     1.0  0.70793  0.91842  0.48622  1.0000
  H   H1406     1.0  0.67938  0.94644  0.48677  1.0000
  H   H1407     1.0  0.79018  0.95319  0.45421  1.0000
  C   C832      1.0  0.52067  0.90703  0.28692  1.0000
  C   C833      1.0  0.56683  0.58075  0.29192  1.0000
  C   C834      1.0  0.53947  0.53192  0.29937  1.0000
  H   H1408     1.0  0.51774  0.57532  0.27688  1.0000
  H   H1409     1.0  0.97237  0.56038  0.31361  1.0000
  H   H1410     1.0  0.70402  0.86424  0.46896  1.0000
  H   H1411     1.0  0.55305  0.52326  0.29455  1.0000
  H   H1412     1.0  0.87059  0.75257  0.48621  1.0000
  H   H1413     1.0  0.69195  0.87802  0.43847  1.0000
  H   H1414     1.0  0.69447  0.96885  0.30653  1.0000
  H   H1415     1.0  0.96794  0.81747  0.46851  1.0000
  S   S237      1.0  0.97234  0.77602  0.41634  1.0000
  H   H1416     1.0  0.60027  0.77106  0.27566  1.0000
  H   H1417     1.0  0.77150  0.94566  0.48545  1.0000
  N   N60       1.0  0.50189  0.91995  0.28919  1.0000
  C   C835      1.0  0.95940  0.79457  0.46843  1.0000
  H   H1418     1.0  0.92003  0.79160  0.47308  1.0000
  H   H1419     1.0  0.78242  0.72456  0.49432  1.0000
  H   H1420     1.0  0.54287  0.92276  0.28957  1.0000
  H   H1421     1.0  0.49489  0.50208  0.28955  1.0000
  H   H1422     1.0  0.50444  0.93079  0.25925  1.0000
  H   H1423     1.0  0.74595  0.94287  0.46767  1.0000
  C   C836      1.0  0.53828  0.96551  0.27533  1.0000
  C   C837      1.0  0.97506  0.72277  0.47844  1.0000
  C   C838      1.0  0.51689  0.88358  0.30023  1.0000
  H   H1424     1.0  0.50103  0.95137  0.30806  1.0000
  H   H1425     1.0  0.49471  0.95086  0.27434  1.0000
  H   H1426     1.0  0.97020  0.78914  0.45744  1.0000
  H   H1427     1.0  0.96489  0.78967  0.48289  1.0000
  H   H1428     1.0  0.77689  0.69140  0.48585  1.0000
  H   H1429     1.0  0.91633  0.75979  0.49596  1.0000
  H   H1430     1.0  0.97619  0.67580  0.31021  1.0000
  Fe  Fe118     1.0  0.55492  0.67907  0.25481  1.0000
  H   H1431     1.0  0.72305  0.84748  0.49050  1.0000
  H   H1432     1.0  0.96976  0.50985  0.30955  1.0000
  C   C839      1.0  0.53611  0.75761  0.25566  1.0000
  H   H1433     1.0  0.49707  0.51914  0.25761  1.0000
  C   C840      1.0  0.75400  0.89195  0.49064  1.0000
  H   H1434     1.0  0.70134  0.88731  0.49714  1.0000
  C   C841      1.0  0.97932  0.58049  0.27346  1.0000
  H   H1435     1.0  0.51265  0.48824  0.30395  1.0000
  C   C842      1.0  0.71845  0.90772  0.49354  1.0000
  H   H1436     1.0  0.64956  0.87832  0.26054  1.0000
  H   H1437     1.0  0.54387  0.97741  0.28943  1.0000
  H   H1438     1.0  0.97430  0.57521  0.25772  1.0000
  H   H1439     1.0  0.76966  0.90741  0.50153  1.0000
  C   C843      1.0  0.73704  0.86484  0.50085  1.0000
  Fe  Fe119     1.0  0.90826  0.58269  0.71970  1.0000
  S   S238      1.0  0.87550  0.53789  0.71370  1.0000
  S   S239      1.0  0.93860  0.60933  0.69778  1.0000
  H   H1440     1.0  0.77797  0.63549  0.67931  1.0000
  H   H1441     1.0  0.80856  0.95643  0.57470  1.0000
  C   C844      1.0  0.56061  0.52365  0.70069  1.0000
  C   C845      1.0  0.78976  0.65325  0.68980  1.0000
  H   H1442     1.0  0.85434  0.93739  0.59500  1.0000
  Fe  Fe120     1.0  0.66411  0.58518  0.72807  1.0000
  C   C846      1.0  0.80508  0.95386  0.61116  1.0000
  S   S240      1.0  0.67839  0.59953  0.69789  1.0000
  C   C847      1.0  0.87638  0.57040  0.64050  1.0000
  H   H1443     1.0  0.73945  0.57848  0.70619  1.0000
  H   H1444     1.0  0.88355  0.53516  0.64872  1.0000
  H   H1445     1.0  0.95898  0.83693  0.64688  1.0000
  S   S241      1.0  0.65910  0.54271  0.73440  1.0000
  Fe  Fe121     1.0  0.70733  0.71143  0.61675  1.0000
  S   S242      1.0  0.74917  0.74231  0.63011  1.0000
  S   S243      1.0  0.67433  0.68434  0.63701  1.0000
  Fe  Fe122     1.0  0.72337  0.73377  0.57574  1.0000
  S   S244      1.0  0.76628  0.76561  0.58714  1.0000
  S   S245      1.0  0.71269  0.73925  0.54446  1.0000
  Fe  Fe123     1.0  0.76556  0.73107  0.60435  1.0000
  S   S246      1.0  0.79726  0.71581  0.60733  1.0000
  Fe  Fe124     1.0  0.74519  0.77370  0.61146  1.0000
  S   S247      1.0  0.75432  0.81595  0.62477  1.0000
  S   S248      1.0  0.72371  0.69841  0.59163  1.0000
  S   S249      1.0  0.70226  0.74364  0.59948  1.0000
  H   H1446     1.0  0.92684  0.60629  0.64300  1.0000
  H   H1447     1.0  0.55667  0.55274  0.72065  1.0000
  H   H1448     1.0  0.59704  0.55231  0.64215  1.0000
  H   H1449     1.0  0.64373  0.97287  0.65225  1.0000
  Fe  Fe125     1.0  0.95130  0.71053  0.60681  1.0000
  Fe  Fe126     1.0  0.73730  0.94583  0.58666  1.0000
  S   S250      1.0  0.73213  0.90315  0.57750  1.0000
  S   S251      1.0  0.70567  0.95912  0.57654  1.0000
  Fe  Fe127     1.0  0.94546  0.75878  0.58920  1.0000
  S   S252      1.0  0.92504  0.71318  0.58148  1.0000
  S   S253      1.0  0.92330  0.78479  0.58941  1.0000
  Fe  Fe128     1.0  0.84839  0.55077  0.73002  1.0000
  H   H1450     1.0  0.78516  0.57782  0.70159  1.0000
  C   C848      1.0  0.71772  0.72672  0.52201  1.0000
  C   C849      1.0  0.77449  0.61242  0.72357  1.0000
  C   C850      1.0  0.56708  0.55338  0.70724  1.0000
  C   C851      1.0  0.83243  0.73630  0.60323  1.0000
  C   C852      1.0  0.84330  0.76401  0.59839  1.0000
  C   C853      1.0  0.87142  0.77908  0.59446  1.0000
  C   C854      1.0  0.88859  0.76643  0.59535  1.0000
  C   C855      1.0  0.87773  0.73896  0.60057  1.0000
  C   C856      1.0  0.84975  0.72394  0.60439  1.0000
  H   H1451     1.0  0.83009  0.77376  0.59768  1.0000
  H   H1452     1.0  0.87978  0.80042  0.59056  1.0000
  H   H1453     1.0  0.89087  0.72923  0.60181  1.0000
  H   H1454     1.0  0.84150  0.70259  0.60830  1.0000
  C   C857      1.0  0.74756  0.83977  0.61154  1.0000
  C   C858      1.0  0.73935  0.83497  0.59184  1.0000
  C   C859      1.0  0.73445  0.85447  0.58173  1.0000
  C   C860      1.0  0.73729  0.87876  0.59122  1.0000
  C   C861      1.0  0.74487  0.88325  0.61103  1.0000
  C   C862      1.0  0.75043  0.86407  0.62106  1.0000
  H   H1455     1.0  0.73699  0.81634  0.58432  1.0000
  H   H1456     1.0  0.72844  0.85070  0.56643  1.0000
  H   H1457     1.0  0.74633  0.90142  0.61858  1.0000
  H   H1458     1.0  0.75663  0.86790  0.63633  1.0000
  C   C863      1.0  0.67834  0.62512  0.68234  1.0000
  C   C864      1.0  0.65910  0.63514  0.68316  1.0000
  C   C865      1.0  0.65840  0.65349  0.66936  1.0000
  C   C866      1.0  0.67726  0.66257  0.65482  1.0000
  C   C867      1.0  0.69695  0.65311  0.65435  1.0000
  C   C868      1.0  0.69722  0.63427  0.66784  1.0000
  H   H1459     1.0  0.64432  0.62824  0.69410  1.0000
  H   H1460     1.0  0.64299  0.66053  0.66986  1.0000
  H   H1461     1.0  0.71151  0.65970  0.64324  1.0000
  H   H1462     1.0  0.71208  0.62657  0.66693  1.0000
  C   C869      1.0  0.82940  0.96929  0.58233  1.0000
  C   C870      1.0  0.93567  0.63149  0.68034  1.0000
  C   C871      1.0  0.95888  0.64821  0.67012  1.0000
  C   C872      1.0  0.85401  0.73709  0.54723  1.0000
  C   C873      1.0  0.92329  0.59373  0.62938  1.0000
  C   C874      1.0  0.74549  0.59948  0.71263  1.0000
  C   C875      1.0  0.91046  0.63128  0.67533  1.0000
  C   C876      1.0  0.73678  0.54150  0.73897  1.0000
  H   H1463     1.0  0.74166  0.91472  0.52209  1.0000
  H   H1464     1.0  0.89245  0.61868  0.68305  1.0000
  H   H1465     1.0  0.80162  0.68611  0.55110  1.0000
  H   H1466     1.0  0.72495  0.86738  0.51228  1.0000
  C   C877      1.0  0.72229  0.74327  0.50604  1.0000
  C   C878      1.0  0.88491  0.59905  0.61283  1.0000
  H   H1467     1.0  0.82490  0.62366  0.67625  1.0000
  C   C879      1.0  0.81639  0.60334  0.68295  1.0000
  H   H1468     1.0  0.74738  0.52792  0.71279  1.0000
  H   H1469     1.0  0.89732  0.60822  0.60037  1.0000
  H   H1470     1.0  0.72366  0.76359  0.50788  1.0000
  H   H1471     1.0  0.84784  0.56920  0.59468  1.0000
  H   H1472     1.0  0.85030  0.98217  0.55584  1.0000
  H   H1473     1.0  0.94114  0.63304  0.61457  1.0000
  H   H1474     1.0  0.87755  0.58873  0.64863  1.0000
  C   C880      1.0  0.60794  0.53116  0.69693  1.0000
  H   H1475     1.0  0.89254  0.53995  0.61789  1.0000
  H   H1476     1.0  0.95157  0.86108  0.63454  1.0000
  H   H1477     1.0  0.88357  0.96494  0.62213  1.0000
  H   H1478     1.0  0.94204  0.60474  0.60117  1.0000
  H   H1479     1.0  0.71604  0.53645  0.73332  1.0000
  H   H1480     1.0  0.74355  0.61260  0.70144  1.0000
  C   C881      1.0  0.81080  0.90841  0.58798  1.0000
  H   H1481     1.0  0.77263  0.73385  0.53396  1.0000
  H   H1482     1.0  0.79480  0.91279  0.58092  1.0000
  C   C882      1.0  0.93114  0.66230  0.64903  1.0000
  N   N61       1.0  0.57962  0.52128  0.68662  1.0000
  H   H1483     1.0  0.58971  0.56130  0.67514  1.0000
  C   C883      1.0  0.78499  0.69798  0.51703  1.0000
  S   S254      1.0  0.74671  0.96871  0.61568  1.0000
  H   H1484     1.0  0.62261  0.51364  0.67304  1.0000
  H   H1485     1.0  0.80879  0.71692  0.56441  1.0000
  S   S255      1.0  0.92558  0.67695  0.62755  1.0000
  C   C884      1.0  0.96929  0.72203  0.51312  1.0000
  N   N62       1.0  0.83141  0.95915  0.60208  1.0000
  C   C885      1.0  0.90821  0.64641  0.65972  1.0000
  S   S256      1.0  0.68358  0.98282  0.62417  1.0000
  C   C886      1.0  0.83406  0.93294  0.60056  1.0000
  H   H1486     1.0  0.58957  0.56729  0.71038  1.0000
  H   H1487     1.0  0.89891  0.57595  0.58339  1.0000
  S   S257      1.0  0.88010  0.59571  0.73399  1.0000
  H   H1488     1.0  0.62693  0.50352  0.69703  1.0000
  C   C887      1.0  0.83282  0.72894  0.52953  1.0000
  H   H1489     1.0  0.85391  0.55674  0.63644  1.0000
  H   H1490     1.0  0.83555  0.65921  0.74276  1.0000
  H   H1491     1.0  0.56093  0.51303  0.71412  1.0000
  H   H1492     1.0  0.87544  0.74733  0.54243  1.0000
  C   C888      1.0  0.79609  0.70328  0.55176  1.0000
  Fe  Fe129     1.0  0.88967  0.52916  0.74279  1.0000
  H   H1493     1.0  0.55887  0.56251  0.69618  1.0000
  H   H1494     1.0  0.88308  0.53964  0.58041  1.0000
  C   C889      1.0  0.56635  0.49124  0.67938  1.0000
  H   H1495     1.0  0.59330  0.51899  0.64714  1.0000
  H   H1496     1.0  0.85159  0.71850  0.55483  1.0000
  H   H1497     1.0  0.78645  0.93757  0.60273  1.0000
  H   H1498     1.0  0.69700  0.96662  0.52020  1.0000
  S   S258      1.0  0.95215  0.70341  0.53303  1.0000
  C   C890      1.0  0.79543  0.74201  0.53363  1.0000
  C   C891      1.0  0.73238  0.92476  0.51270  1.0000
  H   H1499     1.0  0.85256  0.75171  0.55771  1.0000
  C   C892      1.0  0.71543  0.70024  0.51933  1.0000
  H   H1500     1.0  0.77319  0.59686  0.73404  1.0000
  H   H1501     1.0  0.71335  0.82408  0.64710  1.0000
  C   C893      1.0  0.76570  0.69057  0.55712  1.0000
  C   C894      1.0  0.59937  0.53982  0.65381  1.0000
  S   S259      1.0  0.62664  0.57851  0.74390  1.0000
  H   H1502     1.0  0.80465  0.92655  0.63430  1.0000
  C   C895      1.0  0.80944  0.76414  0.55028  1.0000
  H   H1503     1.0  0.93062  0.57839  0.63294  1.0000
  H   H1504     1.0  0.84235  0.62932  0.71745  1.0000
  H   H1505     1.0  0.52926  0.49296  0.74229  1.0000
  H   H1506     1.0  0.77681  0.63065  0.73252  1.0000
  H   H1507     1.0  0.88982  0.61728  0.62276  1.0000
  C   C896      1.0  0.82258  0.62053  0.72472  1.0000
  H   H1508     1.0  0.81993  0.90172  0.57641  1.0000
  C   C897      1.0  0.88536  0.55341  0.61037  1.0000
  H   H1509     1.0  0.95036  0.83246  0.62102  1.0000
  C   C898      1.0  0.96175  0.84776  0.63325  1.0000
  H   H1510     1.0  0.96523  0.62133  0.62195  1.0000
  H   H1511     1.0  0.80120  0.77921  0.54938  1.0000
  H   H1512     1.0  0.83216  0.77607  0.54931  1.0000
  N   N63       1.0  0.67445  0.76555  0.65128  1.0000
  C   C899      1.0  0.67593  0.78533  0.63596  1.0000
  C   C900      1.0  0.65621  0.73645  0.64275  1.0000
  C   C901      1.0  0.70353  0.76963  0.65543  1.0000
  C   C902      1.0  0.66351  0.77213  0.66904  1.0000
  C   C903      1.0  0.69133  0.81659  0.64217  1.0000
  C   C904      1.0  0.62592  0.72903  0.63652  1.0000
  C   C905      1.0  0.70770  0.75202  0.67094  1.0000
  C   C906      1.0  0.65050  0.74884  0.68338  1.0000
  H   H1513     1.0  0.68580  0.78225  0.62313  1.0000
  H   H1514     1.0  0.65488  0.78139  0.63051  1.0000
  H   H1515     1.0  0.65521  0.72055  0.65268  1.0000
  H   H1516     1.0  0.66526  0.73253  0.62984  1.0000
  H   H1517     1.0  0.71149  0.76551  0.64200  1.0000
  H   H1518     1.0  0.71820  0.79145  0.66024  1.0000
  H   H1519     1.0  0.68029  0.79079  0.67723  1.0000
  H   H1520     1.0  0.64701  0.77781  0.66468  1.0000
  H   H1521     1.0  0.69132  0.82859  0.62947  1.0000
  H   H1522     1.0  0.68082  0.82196  0.65345  1.0000
  H   H1523     1.0  0.77487  0.59630  0.68571  1.0000
  H   H1524     1.0  0.62449  0.73752  0.62240  1.0000
  H   H1525     1.0  0.61344  0.70608  0.63441  1.0000
  H   H1526     1.0  0.61620  0.73605  0.64738  1.0000
  H   H1527     1.0  0.70443  0.75809  0.68550  1.0000
  H   H1528     1.0  0.72962  0.75606  0.67142  1.0000
  H   H1529     1.0  0.69479  0.72941  0.66769  1.0000
  H   H1530     1.0  0.65664  0.75821  0.69835  1.0000
  H   H1531     1.0  0.65671  0.73236  0.68253  1.0000
  H   H1532     1.0  0.62748  0.73915  0.68182  1.0000
  H   H1533     1.0  0.84015  0.58085  0.61720  1.0000
  C   C907      1.0  0.95671  0.66362  0.65464  1.0000
  S   S260      1.0  0.77198  0.98108  0.57319  1.0000
  H   H1534     1.0  0.79998  0.89020  0.59686  1.0000
  C   C908      1.0  0.58108  0.53915  0.67004  1.0000
  C   C909      1.0  0.79246  0.59865  0.69563  1.0000
  H   H1535     1.0  0.83466  0.92495  0.61500  1.0000
  H   H1536     1.0  0.90636  0.56774  0.66204  1.0000
  C   C910      1.0  0.75457  0.53666  0.72738  1.0000
  H   H1537     1.0  0.61965  0.55427  0.69797  1.0000
  H   H1538     1.0  0.75853  0.70636  0.55839  1.0000
  H   H1539     1.0  0.76259  0.69029  0.51877  1.0000
  C   C911      1.0  0.89734  0.55741  0.59043  1.0000
  N   N64       1.0  0.79929  0.62026  0.71179  1.0000
  C   C912      1.0  0.80930  0.64898  0.70458  1.0000
  H   H1540     1.0  0.81335  0.66416  0.71681  1.0000
  H   H1541     1.0  0.74829  0.94627  0.51034  1.0000
  H   H1542     1.0  0.97456  0.67563  0.64661  1.0000
  H   H1543     1.0  0.82998  0.65690  0.69860  1.0000
  C   C913      1.0  0.88513  0.55461  0.65516  1.0000
  C   C914      1.0  0.71009  0.97496  0.50838  1.0000
  H   H1544     1.0  0.64877  0.53742  0.68999  1.0000
  H   H1545     1.0  0.81802  0.59900  0.72795  1.0000
  H   H1546     1.0  0.76428  0.68172  0.57150  1.0000
  H   H1547     1.0  0.80829  0.58700  0.67104  1.0000
  H   H1548     1.0  0.83322  0.60118  0.69111  1.0000
  H   H1549     1.0  0.85146  0.60329  0.59777  1.0000
  H   H1550     1.0  0.71634  0.92641  0.52095  1.0000
  H   H1551     1.0  0.72984  0.59662  0.72309  1.0000
  H   H1552     1.0  0.91800  0.55815  0.59144  1.0000
  S   S261      1.0  0.80422  0.53920  0.71893  1.0000
  H   H1553     1.0  0.88835  0.64530  0.65561  1.0000
  H   H1554     1.0  0.80221  0.97268  0.61071  1.0000
  C   C915      1.0  0.85083  0.97022  0.56843  1.0000
  S   S262      1.0  0.97963  0.76920  0.56936  1.0000
  C   C916      1.0  0.82936  0.63699  0.74437  1.0000
  S   S263      1.0  0.96976  0.75610  0.61536  1.0000
  H   H1555     1.0  0.80236  0.67079  0.68083  1.0000
  H   H1556     1.0  0.83556  0.71282  0.52123  1.0000
  H   H1557     1.0  0.88044  0.71867  0.50284  1.0000
  H   H1558     1.0  0.97668  0.81332  0.61235  1.0000
  H   H1559     1.0  0.77508  0.65833  0.69718  1.0000
  H   H1560     1.0  0.81860  0.96312  0.64208  1.0000
  H   H1561     1.0  0.75128  0.67314  0.54700  1.0000
  S   S264      1.0  0.58315  0.49311  0.74882  1.0000
  H   H1562     1.0  0.80097  0.75344  0.52019  1.0000
  C   C917      1.0  0.62698  0.52044  0.68846  1.0000
  H   H1563     1.0  0.62171  0.55059  0.65893  1.0000
  H   H1564     1.0  0.80474  0.75512  0.56454  1.0000
  N   N65       1.0  0.80260  0.71853  0.53334  1.0000
  H   H1565     1.0  0.85794  0.95971  0.63916  1.0000
  C   C918      1.0  0.85422  0.58693  0.60530  1.0000
  H   H1566     1.0  0.71122  0.68701  0.53137  1.0000
  Fe  Fe130     1.0  0.96114  0.72325  0.56352  1.0000
  H   H1567     1.0  0.60569  0.52480  0.71211  1.0000
  H   H1568     1.0  0.86247  0.53994  0.60823  1.0000
  N   N66       1.0  0.89274  0.57922  0.62280  1.0000
  C   C919      1.0  0.78167  0.54338  0.73447  1.0000
  C   C920      1.0  0.94366  0.61411  0.61572  1.0000
  H   H1569     1.0  0.78247  0.94180  0.63688  1.0000
  H   H1570     1.0  0.57396  0.98820  0.67771  1.0000
  H   H1571     1.0  0.87098  0.54871  0.66706  1.0000
  Fe  Fe131     1.0  0.62287  0.53679  0.75161  1.0000
  H   H1572     1.0  0.84018  0.74712  0.52032  1.0000
  H   H1573     1.0  0.78814  0.67926  0.51710  1.0000
  H   H1574     1.0  0.75160  0.85844  0.50805  1.0000
  H   H1575     1.0  0.84552  0.94904  0.56274  1.0000
  S   S265      1.0  0.92454  0.57357  0.74795  1.0000
  C   C921      1.0  0.80310  0.94583  0.63231  1.0000
  C   C922      1.0  0.85606  0.98256  0.61357  1.0000
  H   H1576     1.0  0.55983  0.53276  0.66333  1.0000
  C   C923      1.0  0.87177  0.97424  0.62897  1.0000
  H   H1577     1.0  0.87236  0.98038  0.57513  1.0000
  H   H1578     1.0  0.97779  0.85082  0.59113  1.0000
  H   H1579     1.0  0.97854  0.64865  0.67387  1.0000
  Fe  Fe132     1.0  0.71752  0.98482  0.60501  1.0000
  H   H1580     1.0  0.53858  0.51287  0.69459  1.0000
  H   H1581     1.0  0.90500  0.70632  0.50204  1.0000
  C   C924      1.0  0.77428  0.72739  0.84550  1.0000
  H   H1582     1.0  0.68219  0.93374  0.79029  1.0000
  H   H1583     1.0  0.69764  0.65637  0.91172  1.0000
  H   H1584     1.0  0.74236  0.91411  0.83844  1.0000
  H   H1585     1.0  0.72876  0.93437  0.94841  1.0000
  H   H1586     1.0  0.67155  0.67986  0.90049  1.0000
  Fe  Fe133     1.0  0.76489  0.97141  0.89969  1.0000
  S   S266      1.0  0.78447  0.94298  0.89848  1.0000
  S   S267      1.0  0.72031  0.96196  0.89514  1.0000
  Fe  Fe134     1.0  0.73495  0.78254  0.89887  1.0000
  S   S268      1.0  0.70270  0.73996  0.90614  1.0000
  S   S269      1.0  0.71799  0.81112  0.88822  1.0000
  Fe  Fe135     1.0  0.78182  0.77037  0.91180  1.0000
  S   S270      1.0  0.75306  0.72742  0.92043  1.0000
  S   S271      1.0  0.82848  0.78933  0.91671  1.0000
  Fe  Fe136     1.0  0.72871  0.72370  0.89213  1.0000
  S   S272      1.0  0.71316  0.68152  0.87548  1.0000
  Fe  Fe137     1.0  0.72953  0.74715  0.93361  1.0000
  S   S273      1.0  0.70734  0.73903  0.96146  1.0000
  S   S274      1.0  0.75926  0.76583  0.88279  1.0000
  S   S275      1.0  0.76007  0.79055  0.92704  1.0000
  C   C925      1.0  0.87615  0.75175  0.96886  1.0000
  H   H1587     1.0  0.79901  0.65679  0.86934  1.0000
  Fe  Fe138     1.0  0.89400  0.58399  0.76178  1.0000
  H   H1588     1.0  0.78381  0.69159  0.86968  1.0000
  H   H1589     1.0  0.67295  0.64264  0.96112  1.0000
  H   H1590     1.0  0.63425  0.69119  0.89879  1.0000
  Fe  Fe139     1.0  0.93245  0.73803  0.88910  1.0000
  S   S276      1.0  0.88728  0.72503  0.88082  1.0000
  S   S277      1.0  0.93929  0.70224  0.89742  1.0000
  H   H1591     1.0  0.70240  0.87631  0.80638  1.0000
  H   H1592     1.0  0.80335  0.72787  0.82616  1.0000
  S   S278      1.0  0.89558  0.60883  0.78943  1.0000
  S   S279      1.0  0.69406  0.60591  0.75395  1.0000
  H   H1593     1.0  0.67351  0.92500  0.86559  1.0000
  S   S280      1.0  0.65931  0.63276  0.78977  1.0000
  H   H1594     1.0  0.68544  0.95941  0.84091  1.0000
  H   H1595     1.0  0.72144  0.92104  0.98860  1.0000
  C   C926      1.0  0.67709  0.67280  0.93908  1.0000
  S   S281      1.0  0.89353  0.49052  0.75320  1.0000
  H   H1596     1.0  0.66337  0.62916  0.88464  1.0000
  C   C927      1.0  0.92102  0.63412  0.80646  1.0000
  C   C928      1.0  0.91211  0.64629  0.82065  1.0000
  C   C929      1.0  0.93081  0.66468  0.83549  1.0000
  C   C930      1.0  0.61859  0.63553  0.94567  1.0000
  H   H1597     1.0  0.89045  0.64124  0.82029  1.0000
  H   H1598     1.0  0.92350  0.67373  0.84629  1.0000
  C   C931      1.0  0.84465  0.77170  0.90613  1.0000
  C   C932      1.0  0.82898  0.74513  0.89726  1.0000
  C   C933      1.0  0.84243  0.73105  0.88964  1.0000
  C   C934      1.0  0.87149  0.74342  0.89079  1.0000
  C   C935      1.0  0.88719  0.76992  0.89972  1.0000
  C   C936      1.0  0.87376  0.78407  0.90729  1.0000
  H   H1599     1.0  0.80655  0.73539  0.89645  1.0000
  H   H1600     1.0  0.83038  0.71039  0.88302  1.0000
  H   H1601     1.0  0.90962  0.77966  0.90053  1.0000
  H   H1602     1.0  0.88593  0.80469  0.91405  1.0000
  C   C937      1.0  0.69891  0.66886  0.85136  1.0000
  C   C938      1.0  0.69204  0.68431  0.83846  1.0000
  C   C939      1.0  0.68025  0.67303  0.81968  1.0000
  C   C940      1.0  0.67562  0.64640  0.81334  1.0000
  C   C941      1.0  0.68305  0.63120  0.82614  1.0000
  C   C942      1.0  0.69431  0.64224  0.84505  1.0000
  H   H1603     1.0  0.69537  0.70477  0.84302  1.0000
  H   H1604     1.0  0.67451  0.68497  0.80997  1.0000
  H   H1605     1.0  0.67949  0.61065  0.82159  1.0000
  H   H1606     1.0  0.69945  0.62998  0.85485  1.0000
  H   H1607     1.0  0.67836  0.60948  0.89491  1.0000
  C   C943      1.0  0.93648  0.78961  0.96713  1.0000
  H   H1608     1.0  0.74258  0.92350  0.92990  1.0000
  H   H1609     1.0  0.84383  0.96170  0.92044  1.0000
  H   H1610     1.0  0.93578  0.75398  0.95254  1.0000
  H   H1611     1.0  0.81412  0.72887  0.85093  1.0000
  C   C944      1.0  0.70324  0.90734  0.97861  1.0000
  C   C945      1.0  0.72025  0.73680  0.98501  1.0000
  C   C946      1.0  0.74093  0.72883  0.98806  1.0000
  H   H1612     1.0  0.92777  0.58120  0.80308  1.0000
  H   H1613     1.0  0.94553  0.55507  0.78514  1.0000
  H   H1614     1.0  0.75041  0.72515  0.97586  1.0000
  C   C947      1.0  0.76561  0.90639  0.89550  1.0000
  C   C948      1.0  0.77935  0.89071  0.89950  1.0000
  C   C949      1.0  0.76497  0.86149  0.89756  1.0000
  C   C950      1.0  0.73681  0.84775  0.89124  1.0000
  C   C951      1.0  0.72311  0.86349  0.88710  1.0000
  C   C952      1.0  0.73738  0.89269  0.88935  1.0000
  H   H1615     1.0  0.80121  0.90114  0.90420  1.0000
  H   H1616     1.0  0.77574  0.84960  0.90071  1.0000
  H   H1617     1.0  0.70132  0.85295  0.88219  1.0000
  H   H1618     1.0  0.72662  0.90456  0.88623  1.0000
  H   H1619     1.0  0.91771  0.76894  0.93963  1.0000
  S   S282      1.0  0.70187  0.97518  0.94829  1.0000
  C   C953      1.0  0.92102  0.76246  0.95422  1.0000
  H   H1620     1.0  0.64268  0.92181  0.85350  1.0000
  C   C954      1.0  0.87708  0.53825  0.81060  1.0000
  H   H1621     1.0  0.75172  0.66974  0.85700  1.0000
  N   N67       1.0  0.70095  0.93316  0.82847  1.0000
  C   C955      1.0  0.67754  0.93754  0.83546  1.0000
  H   H1622     1.0  0.70925  0.96743  0.78537  1.0000
  H   H1623     1.0  0.64673  0.69703  0.92342  1.0000
  Fe  Fe140     1.0  0.96931  0.73174  0.92104  1.0000
  C   C956      1.0  0.66119  0.91891  0.85150  1.0000
  H   H1624     1.0  0.69170  0.74706  0.99885  1.0000
  C   C957      1.0  0.77412  0.67569  0.85748  1.0000
  C   C958      1.0  0.92754  0.54334  0.79383  1.0000
  H   H1625     1.0  0.72859  0.91143  0.80690  1.0000
  H   H1626     1.0  0.66175  0.93398  0.82345  1.0000
  H   H1627     1.0  0.72815  0.95945  0.85248  1.0000
  C   C959      1.0  0.90588  0.57401  0.83628  1.0000
  H   H1628     1.0  0.67755  0.85885  0.93501  1.0000
  C   C960      1.0  0.79599  0.71839  0.84008  1.0000
  C   C961      1.0  0.69619  0.95484  0.79675  1.0000
  H   H1629     1.0  0.95634  0.63157  0.79652  1.0000
  N   N68       1.0  0.78608  0.68748  0.83863  1.0000
  H   H1630     1.0  0.86711  0.49695  0.84347  1.0000
  H   H1631     1.0  0.65356  0.89655  0.84783  1.0000
  S   S283      1.0  0.96578  0.75332  0.86825  1.0000
  C   C962      1.0  0.96771  0.65874  0.82235  1.0000
  H   H1632     1.0  0.93766  0.57612  0.85829  1.0000
  H   H1633     1.0  0.85678  0.73457  0.97385  1.0000
  C   C963      1.0  0.66457  0.61868  0.89786  1.0000
  H   H1634     1.0  0.83675  0.71848  0.81798  1.0000
  H   H1635     1.0  0.73732  0.63766  0.80436  1.0000
  H   H1636     1.0  0.85187  0.55559  0.82276  1.0000
  H   H1637     1.0  0.75986  0.94997  0.83113  1.0000
  H   H1638     1.0  0.76936  0.63899  0.81254  1.0000
  H   H1639     1.0  0.69801  0.89868  0.79023  1.0000
  H   H1640     1.0  0.88939  0.68810  0.94256  1.0000
  H   H1641     1.0  0.68544  0.88910  0.83180  1.0000
  H   H1642     1.0  0.85087  0.75434  0.94403  1.0000
  S   S284      1.0  0.72467  0.56015  0.77279  1.0000
  C   C964      1.0  0.90697  0.52867  0.83418  1.0000
  H   H1643     1.0  0.76260  0.92730  0.97295  1.0000
  H   H1644     1.0  0.76602  0.72006  0.85963  1.0000
  H   H1645     1.0  0.78442  0.75044  0.84677  1.0000
  H   H1646     1.0  0.78003  0.56792  0.77961  1.0000
  H   H1647     1.0  0.74554  0.67742  0.82507  1.0000
  C   C965      1.0  0.71512  0.95464  0.81396  1.0000
  C   C966      1.0  0.82615  0.69545  0.81712  1.0000
  C   C967      1.0  0.69804  0.97366  0.98780  1.0000
  H   H1648     1.0  0.70013  0.83431  0.92877  1.0000
  C   C968      1.0  0.76408  0.67502  0.82207  1.0000
  H   H1649     1.0  0.87905  0.55143  0.79822  1.0000
  H   H1650     1.0  0.76457  0.64234  0.87699  1.0000
  C   C969      1.0  0.72113  0.93832  0.84568  1.0000
  H   H1651     1.0  0.77341  0.98721  0.99936  1.0000
  H   H1652     1.0  0.75628  0.98655  0.96564  1.0000
  H   H1653     1.0  0.95911  0.79628  0.96789  1.0000
  H   H1654     1.0  0.68577  0.89701  0.98798  1.0000
  Fe  Fe141     1.0  0.65688  0.59670  0.77055  1.0000
  H   H1655     1.0  0.70203  0.83391  0.95498  1.0000
  H   H1656     1.0  0.68260  0.62806  0.92682  1.0000
  H   H1657     1.0  0.75682  0.72056  0.83430  1.0000
  S   S285      1.0  0.65074  0.55482  0.77927  1.0000
  H   H1658     1.0  0.66002  0.88883  0.92147  1.0000
  C   C970      1.0  0.88661  0.51478  0.84983  1.0000
  C   C971      1.0  0.96372  0.71814  0.99074  1.0000
  C   C972      1.0  0.94908  0.64071  0.80728  1.0000
  C   C973      1.0  0.92758  0.56304  0.81014  1.0000
  C   C974      1.0  0.68901  0.90373  0.82008  1.0000
  H   H1659     1.0  0.93098  0.60515  0.85899  1.0000
  H   H1660     1.0  0.85822  0.77931  0.96328  1.0000
  H   H1661     1.0  0.91174  0.71844  0.93001  1.0000
  H   H1662     1.0  0.71106  0.92345  0.85695  1.0000
  H   H1663     1.0  0.62167  0.65699  0.94563  1.0000
  H   H1664     1.0  0.68896  0.86477  0.96840  1.0000
  H   H1665     1.0  0.74193  0.63104  0.82880  1.0000
  H   H1666     1.0  0.74944  0.87812  0.95450  1.0000
  H   H1667     1.0  0.74203  0.87930  0.92954  1.0000
  N   N69       1.0  0.71748  0.89030  0.94788  1.0000
  C   C975      1.0  0.73216  0.87353  0.94343  1.0000
  H   H1668     1.0  0.69973  0.88178  0.91842  1.0000
  C   C976      1.0  0.69291  0.88090  0.93330  1.0000
  C   C977      1.0  0.70826  0.88497  0.96815  1.0000
  H   H1669     1.0  0.93414  0.80669  0.96037  1.0000
  C   C978      1.0  0.67613  0.89690  0.93373  1.0000
  H   H1670     1.0  0.66478  0.89333  0.94697  1.0000
  H   H1671     1.0  0.68889  0.91938  0.93180  1.0000
  H   H1672     1.0  0.72791  0.83189  0.94138  1.0000
  C   C979      1.0  0.86090  0.96979  0.93203  1.0000
  Fe  Fe142     1.0  0.97415  0.71888  0.87792  1.0000
  C   C980      1.0  0.87728  0.72144  0.94319  1.0000
  H   H1673     1.0  0.91203  0.71420  0.96943  1.0000
  H   H1674     1.0  0.95094  0.60252  0.84059  1.0000
  C   C981      1.0  0.63370  0.62775  0.93040  1.0000
  H   H1675     1.0  0.84272  0.68932  0.81589  1.0000
  C   C982      1.0  0.89013  0.70490  0.93356  1.0000
  H   H1676     1.0  0.90873  0.53543  0.78375  1.0000
  H   H1677     1.0  0.88167  0.52908  0.85818  1.0000
  H   H1678     1.0  0.70694  0.66022  0.95170  1.0000
  H   H1679     1.0  0.77675  0.95496  0.95691  1.0000
  H   H1680     1.0  0.76974  0.63326  0.85330  1.0000
  H   H1681     1.0  0.87859  0.70410  0.97772  1.0000
  C   C983      1.0  0.93308  0.59003  0.84916  1.0000
  H   H1682     1.0  0.87794  0.69476  0.91973  1.0000
  H   H1683     1.0  0.88877  0.56692  0.84601  1.0000
  C   C984      1.0  0.73765  0.92037  0.94529  1.0000
  H   H1684     1.0  0.88507  0.78418  0.94787  1.0000
  C   C985      1.0  0.74266  0.98316  0.97701  1.0000
  C   C986      1.0  0.74741  0.93591  0.84209  1.0000
  H   H1685     1.0  0.90308  0.58941  0.82757  1.0000
  C   C987      1.0  0.89863  0.72255  0.97509  1.0000
  H   H1686     1.0  0.66586  0.68282  0.94565  1.0000
  C   C988      1.0  0.71414  0.84164  0.94218  1.0000
  H   H1687     1.0  0.94861  0.69635  0.98928  1.0000
  C   C989      1.0  0.74590  0.55290  0.75784  1.0000
  C   C990      1.0  0.81095  0.68330  0.83539  1.0000
  S   S286      1.0  0.96034  0.76660  0.91365  1.0000
  H   H1688     1.0  0.81218  0.68722  0.80378  1.0000
  C   C991      1.0  0.75293  0.64391  0.81691  1.0000
  C   C992      1.0  0.95872  0.67084  0.83656  1.0000
  H   H1689     1.0  0.82668  0.69261  0.84794  1.0000
  N   N70       1.0  0.89382  0.74025  0.96059  1.0000
  H   H1690     1.0  0.94804  0.57105  0.81847  1.0000
  H   H1691     1.0  0.72419  0.88289  0.97765  1.0000
  H   H1692     1.0  0.69628  0.67814  0.96819  1.0000
  H   H1693     1.0  0.61457  0.66602  0.91513  1.0000
  H   H1694     1.0  0.92851  0.53642  0.84075  1.0000
  Fe  Fe143     1.0  0.68666  0.56334  0.76115  1.0000
  C   C993      1.0  0.77712  0.65051  0.86438  1.0000
  C   C994      1.0  0.75234  0.98354  0.99622  1.0000
  H   H1695     1.0  0.62431  0.63142  0.96037  1.0000
  C   C995      1.0  0.63607  0.68053  0.91180  1.0000
  C   C996      1.0  0.76552  0.93202  0.95757  1.0000
  H   H1696     1.0  0.63945  0.64944  0.89514  1.0000
  H   H1697     1.0  0.69771  0.92019  0.96916  1.0000
  N   N71       1.0  0.65955  0.65117  0.92333  1.0000
  H   H1698     1.0  0.59588  0.62166  0.94314  1.0000
  C   C997      1.0  0.68877  0.66245  0.95587  1.0000
  C   C998      1.0  0.86732  0.76830  0.95506  1.0000
  C   C999      1.0  0.77283  0.55917  0.76502  1.0000
  C   C1000     1.0  0.67733  0.63936  0.91560  1.0000
  C   C1001     1.0  0.70590  0.89795  0.80515  1.0000
  H   H1699     1.0  0.83253  0.52320  0.80947  1.0000
  H   H1700     1.0  0.85608  0.70609  0.94691  1.0000
  H   H1701     1.0  0.66824  0.89729  0.81250  1.0000
  N   N72       1.0  0.90397  0.55067  0.82320  1.0000
  H   H1702     1.0  0.68373  0.96501  0.80108  1.0000
  H   H1703     1.0  0.87405  0.73353  0.93159  1.0000
  C   C1002     1.0  0.65234  0.66490  0.90700  1.0000
  H   H1704     1.0  0.61829  0.61628  0.91804  1.0000
  H   H1705     1.0  0.63885  0.61226  0.93711  1.0000
  H   H1706     1.0  0.88644  0.76557  0.98188  1.0000
  H   H1707     1.0  0.84687  0.52363  0.83323  1.0000
  H   H1708     1.0  0.85200  0.96431  0.94622  1.0000
  H   H1709     1.0  0.80530  0.66095  0.83448  1.0000
  H   H1710     1.0  0.69510  0.69026  0.93298  1.0000
  H   H1711     1.0  0.93073  0.78833  0.98215  1.0000
  H   H1712     1.0  0.77167  0.68630  0.80875  1.0000
  H   H1713     1.0  0.64383  0.60136  0.90023  1.0000
  H   H1714     1.0  0.77914  0.92414  0.95176  1.0000
  C   C1003     1.0  0.85084  0.53503  0.81988  1.0000
  H   H1715     1.0  0.92993  0.52568  0.79937  1.0000
  H   H1716     1.0  0.76100  0.94217  0.85572  1.0000
  H   H1717     1.0  0.67683  0.96953  0.98459  1.0000
  C   C1004     1.0  0.97407  0.73264  0.97408  1.0000
  H   H1718     1.0  0.87310  0.95858  0.92992  1.0000
  H   H1719     1.0  0.72524  0.97586  0.82107  1.0000
  C   C1005     1.0  0.70784  0.74108  0.00105  1.0000
  C   C1006     1.0  0.71537  0.97799  0.97260  1.0000
  Fe  Fe144     1.0  0.72937  0.98820  0.92299  1.0000
  H   H1720     1.0  0.87228  0.51749  0.80412  1.0000
  H   H1721     1.0  0.73245  0.95278  0.80788  1.0000
  S   S287      1.0  0.96233  0.71448  0.95114  1.0000
  H   H1722     1.0  0.90408  0.51126  0.82411  1.0000
  C   C1007     1.0  0.91271  0.73667  0.99495  1.0000
  H   H1723     1.0  0.89644  0.50693  0.86073  1.0000
  C   C1008     1.0  0.79071  0.55460  0.75338  1.0000
  H   H1724     1.0  0.93458  0.75258  0.99383  1.0000
  H   H1725     1.0  0.81154  0.55996  0.75900  1.0000
  S   S288      1.0  0.86011  0.53940  0.75848  1.0000
  H   H1726     1.0  0.97877  0.71949  0.80525  1.0000
  H   H1727     1.0  0.81193  0.62775  0.75386  1.0000
  H   H1728     1.0  0.84724  0.63604  0.75205  1.0000
