data_image0
_chemical_formula_structural       HNCHCH2CH2FeSC2HCHCH4CHNCH8CH2SH2C2H3CHC2H3C2HCH3C2HSH3SC2SCH4CH2CH4SC2H3FeHSCFeS2H2CHC2H2C2H5CNH3C2H3CHCH8CHFeH2CH3CH2FeS2FeSHCSCSHFeS2H3C2HC2HC2H2CNH3CHFeC2H3C2H3C2H3SH3CH9CHCSH5CH2FeH2NCH2CHC4H3CH2C2H5CSCHCHC2H3FeH5SH5CHC5H3SC4SH2C3SHCHCHC2NHSH2CS2FeS2FeS2HSCHCH2CH2CHCH5CH2CHC3H3C2HC3H9SCNH4CHC2SHC2HCH2NCHCH2FeCH3C2HCH5SCH6CFeH2CNCH2C2HCHSH2CHC2H7FeHCH3C2H3C2H2C2HCHCHCFeN2CH3C2HCHCH2CH3CH3SHCFeS2CHFeS2FeSCFeCFeS3FeS2FeS2FeSFeS3FeS2FeS2FeSFeS3CH2FeSCFeS2FeSFeS3HC6H4C6H4C6H4C6H4C2H3C2H3C6H5CHC3HCHC6H4C3H6NCH7CSFeH3CH2NH7C2H3CH2C2NH2CH4CH6CH4CHCH2CH6CH4C2HC2H4CH2CH13CHCH3CHCHCNCH4CH3NC3H2CHC3H2C3H3C4HCH3NH3C3H3CH2CHC2H5C3H2C2H2N2H2CHC3H2C2H2CH2NHCH8CHC4H3CHCH2C2HCH7CH7SCH4NHCNH5CHCH2C2FeS2H3FeS2FeS2FeCFeS3FeSCFeSHFeSFeS3FeS2FeS2FeSFeS3H2FeS2FeS2FeSFeS3CH5C4H5C6H2CHC6H4CH5C6H12C6H6NC6H2CH7C4H9CH2SH3CHCH11CH2C2HC2HC2NC2H2C2HCH2CH3CHC2H2C2HC3HCH3FeH5CH2CNCH10SCHCHNH5CH3CH2C2H5CHSCH2CH4NC3H4CHC4HCHCH2CH2C2HCH2CHCH8CH3CH4CHCH3CH2C2H3N2CHCHNHC3H2CHCH4CH3C2HCH5FeS2HSFeSHSHS2FeS2FeS2FeHFeS3C6H6FeC6H4C2H2CHCHFeCH2CHCH3SH5CFeH2SH7C2NC5HC2H14SCH2CHNC2HC9H6SH2CHCH3C2NH5CH2NH5CH7CHC2HCH4CH4CNCH2C2H2CSHC2H3CH2FeSCFeS2FeHFeS3FeSFeS2FeSHS2FeS2H4CHCHCHCH2N2FeC6H4C6H8C2H2C2H3CSHSCNC2H5CH6CH3CHCHFeC3H3FeH3CHCH4CH2CSH2CH4C3H3SH3C2H5CH3C2H3C2HC2HCSHFeS2H6FeS2FeSCFeSFeHS2FeS2FeC2FeSCHS2H2C4H2C2HCH2C6H13C6H6CHC7HCSCH3CH2SH2CSHCH2CFeCH6SH8NCH2CH2FeSH4C2FeNC3H2CH2CH2C2HS2H2FeS2FeS2H3FeHFeS3FeS2FeSHFeSFeS3C6H4CHCH5C2SHCH4C6H5CH7NCH2CSCNCHCH2C3HCFeH7CHC4H2C3H2CH5CHCNC2H15CHCH3C2H2CNC5HC2H10SHC3HCHCH8C2HSFeS2FeS2FeSFeCS2FeS2FeS2FeCFeHS2FeS2FeS2FeSFeS3FeS2FeS2FeSFeS3FeS2CHCHCHC8H4C7H3C4H2C4NHC2H2N2H2C6H6C2H5C6H4C6H4C2HCH6C3H4CH2NH3CFeHC2HCH3C3H5CHFeSHNC8H19CHCH3CH2CH9C2H2CH6CH2CH2SHC2H7CH4NC7H18CNCHC2HC2HCH4C2H2C2HCH2C2H3CH5SH2CH6C2H7NC2H8CH2CH4FeS2FeS2FeHFeCS2FeS2FeS2FeSFeS3FeS2FeS2FeSFeS3FeS2FeS2FeSHFeSFeS3C6H6C3H2C6H4C4H3C6H4C6HN2HCHC2HCHC7H4CH6CH3C3H2C2H3NC3SH4CH2CH6NCH4NCHNC8H20NC8H21CH5NCHC3H2CH3C2HCHCHC4HCSCHCH5CH2SH3CH3CHCHC2H2CH3C2HCSH5CH2NCH5CHC3H6CH4CH3C2H4CH6CH5C2H3CNCHCH5CHCH3CH4CH4CNH6CH3SH3CH3CHCH2CSH3C2HCH2C2FeS2FeS2HC2H2FeS2H2SHS2HC3SH4CSCH2CH3CHCH6CH2C2H7CH2CSC2HCH2CHC3H5C2HCH5C2HC2H4CN2HCHCH2C2HCH3CH2CH4CSH2CH2CHFeH2C3H5CHCH5CHCHCH6S2FeS2HSHSCH2C4FeH2CFeH3SH4C4SH2NHC5HC3HCSH4CH2SH2CH5CH6CH3SNHC2HS2H3CHFeCH3C2NFeCH4CH3FeC3HC5H3CH2C2H2CFeH2CH3CHC2FeCH6SFeS2H2CH5CH4CH3C2HC2H2CH2CH4CHNSCH2C2HNCH4CH3CH3CHC2H2CHC2H2CHSH3NH3FeS2H7C4H4CSH3CHNC2HCHCH2CH2C2H2CH5C2H2CH2CHSCHCH3CHSH2CH2CSC2FeC2HFeS
_chemical_formula_sum              "H1728 N72 C1008 Fe144 S288"
_cell_length_a       69.2219
_cell_length_b       69.3585
_cell_length_c       53.5045
_cell_angle_alpha    90.1338
_cell_angle_beta     90.2223
_cell_angle_gamma    116.508

_space_group_name_H-M_alt    "P 1"
_space_group_IT_number       1

loop_
  _space_group_symop_operation_xyz
  'x, y, z'

loop_
  _atom_site_type_symbol
  _atom_site_label
  _atom_site_symmetry_multiplicity
  _atom_site_fract_x
  _atom_site_fract_y
  _atom_site_fract_z
  _atom_site_occupancy
  H   H1        1.0  0.49802  0.08159  0.34717  1.0000
  N   N1        1.0  0.46316  0.17069  0.41463  1.0000
  C   C1        1.0  0.47553  0.05866  0.37492  1.0000
  H   H2        1.0  0.44208  0.17776  0.38970  1.0000
  C   C2        1.0  0.47223  0.16265  0.39365  1.0000
  H   H3        1.0  0.48558  0.03021  0.35839  1.0000
  H   H4        1.0  0.47558  0.18817  0.44954  1.0000
  C   C3        1.0  0.44660  0.15232  0.42943  1.0000
  H   H5        1.0  0.44414  0.15809  0.44803  1.0000
  H   H6        1.0  0.45274  0.14048  0.43391  1.0000
  Fe  Fe1       1.0  0.44922  0.10804  0.46498  1.0000
  S   S1        1.0  0.41381  0.09913  0.46717  1.0000
  C   C4        1.0  0.44423  0.19462  0.42386  1.0000
  C   C5        1.0  0.49936  0.04135  0.37024  1.0000
  H   H7        1.0  0.42125  0.14539  0.39948  1.0000
  C   C6        1.0  0.47247  0.05054  0.43013  1.0000
  H   H8        1.0  0.45986  0.04388  0.37298  1.0000
  C   C7        1.0  0.42386  0.13957  0.41772  1.0000
  H   H9        1.0  0.30829  0.21331  0.45025  1.0000
  H   H10       1.0  0.47016  0.07468  0.34250  1.0000
  H   H11       1.0  0.45952  0.05416  0.42251  1.0000
  H   H12       1.0  0.42039  0.12240  0.41523  1.0000
  C   C8        1.0  0.49021  0.01481  0.30735  1.0000
  H   H13       1.0  0.48729  0.15689  0.44609  1.0000
  N   N2        1.0  0.49207  0.05364  0.38820  1.0000
  C   C9        1.0  0.45443  0.18551  0.40438  1.0000
  H   H14       1.0  0.47456  0.10791  0.37561  1.0000
  H   H15       1.0  0.41140  0.13970  0.43068  1.0000
  H   H16       1.0  0.49622  0.01259  0.39077  1.0000
  H   H17       1.0  0.34289  0.23755  0.42541  1.0000
  H   H18       1.0  0.47604  0.01699  0.30298  1.0000
  H   H19       1.0  0.44490  0.13305  0.38000  1.0000
  H   H20       1.0  0.45617  0.20518  0.43781  1.0000
  H   H21       1.0  0.43774  0.20467  0.41420  1.0000
  C   C10       1.0  0.48494  0.11533  0.41399  1.0000
  H   H22       1.0  0.46525  0.03918  0.44586  1.0000
  H   H23       1.0  0.49182  0.03468  0.42077  1.0000
  S   S2        1.0  0.45829  0.10417  0.42511  1.0000
  H   H24       1.0  0.43048  0.18164  0.43361  1.0000
  H   H25       1.0  0.47980  0.05558  0.33460  1.0000
  C   C11       1.0  0.48107  0.03993  0.41052  1.0000
  C   C12       1.0  0.48827  0.11458  0.38821  1.0000
  H   H26       1.0  0.47186  0.07022  0.38597  1.0000
  H   H27       1.0  0.46722  0.02467  0.40422  1.0000
  H   H28       1.0  0.38880  0.21108  0.47015  1.0000
  C   C13       1.0  0.50270  0.12433  0.43013  1.0000
  H   H29       1.0  0.38440  0.17380  0.47192  1.0000
  C   C14       1.0  0.48152  0.06821  0.34840  1.0000
  C   C15       1.0  0.40228  0.20830  0.47606  1.0000
  H   H30       1.0  0.40392  0.00666  0.42202  1.0000
  H   H31       1.0  0.46597  0.14572  0.35827  1.0000
  H   H32       1.0  0.46745  0.19945  0.39472  1.0000
  C   C16       1.0  0.48166  0.18409  0.43204  1.0000
  C   C17       1.0  0.49646  0.17390  0.44040  1.0000
  H   H33       1.0  0.50026  0.12505  0.45001  1.0000
  C   C18       1.0  0.34209  0.23612  0.44611  1.0000
  H   H34       1.0  0.47921  0.15212  0.40098  1.0000
  H   H35       1.0  0.34444  0.22147  0.44956  1.0000
  H   H36       1.0  0.44806  0.15732  0.36354  1.0000
  C   C19       1.0  0.45652  0.14905  0.37294  1.0000
  C   C20       1.0  0.42186  0.22589  0.48264  1.0000
  H   H37       1.0  0.49972  0.19021  0.16862  1.0000
  S   S3        1.0  0.41171  0.15449  0.48501  1.0000
  H   H38       1.0  0.31239  0.23968  0.44028  1.0000
  H   H39       1.0  0.36247  0.02611  0.47328  1.0000
  H   H40       1.0  0.31632  0.23408  0.47244  1.0000
  S   S4        1.0  0.42371  0.25271  0.48123  1.0000
  C   C21       1.0  0.41669  0.18238  0.48477  1.0000
  C   C22       1.0  0.39976  0.18698  0.47709  1.0000
  S   S5        1.0  0.45968  0.13827  0.48831  1.0000
  C   C23       1.0  0.31861  0.23089  0.45272  1.0000
  H   H41       1.0  0.38161  0.24117  0.45565  1.0000
  H   H42       1.0  0.49246  0.19984  0.42338  1.0000
  H   H43       1.0  0.48553  0.06542  0.43819  1.0000
  H   H44       1.0  0.48576  0.17647  0.38444  1.0000
  C   C24       1.0  0.36121  0.01297  0.48509  1.0000
  H   H45       1.0  0.37586  0.24746  0.41076  1.0000
  H   H46       1.0  0.48702  0.07261  0.64926  1.0000
  C   C25       1.0  0.46987  0.24595  0.56304  1.0000
  H   H47       1.0  0.48436  0.06607  0.73446  1.0000
  H   H48       1.0  0.50318  0.11737  0.52625  1.0000
  H   H49       1.0  0.45333  0.25234  0.59319  1.0000
  H   H50       1.0  0.49299  0.08285  0.57960  1.0000
  S   S6        1.0  0.39482  0.04392  0.51412  1.0000
  C   C26       1.0  0.46735  0.07552  0.61752  1.0000
  C   C27       1.0  0.49783  0.12453  0.56402  1.0000
  H   H51       1.0  0.48090  0.04338  0.63033  1.0000
  H   H52       1.0  0.48716  0.05631  0.57015  1.0000
  H   H53       1.0  0.44544  0.04049  0.64745  1.0000
  Fe  Fe2       1.0  0.41334  0.07938  0.50097  1.0000
  H   H54       1.0  0.47028  0.08968  0.60560  1.0000
  S   S7        1.0  0.44847  0.08723  0.49742  1.0000
  C   C28       1.0  0.46685  0.03906  0.61768  1.0000
  Fe  Fe3       1.0  0.45514  0.11632  0.52108  1.0000
  S   S8        1.0  0.42011  0.10809  0.52612  1.0000
  S   S9        1.0  0.47319  0.12534  0.55799  1.0000
  H   H55       1.0  0.44910  0.03532  0.57343  1.0000
  H   H56       1.0  0.45575  0.22979  0.56369  1.0000
  C   C29       1.0  0.44671  0.02867  0.63441  1.0000
  H   H57       1.0  0.44982  0.19684  0.49731  1.0000
  C   C30       1.0  0.48919  0.06659  0.58696  1.0000
  C   C31       1.0  0.42219  0.24801  0.55186  1.0000
  H   H58       1.0  0.47557  0.09030  0.65443  1.0000
  H   H59       1.0  0.43420  0.04378  0.59397  1.0000
  C   C32       1.0  0.44984  0.04953  0.58395  1.0000
  C   C33       1.0  0.37497  0.01727  0.50584  1.0000
  H   H60       1.0  0.46710  0.02616  0.60542  1.0000
  H   H61       1.0  0.43550  0.05742  0.55165  1.0000
  H   H62       1.0  0.45069  0.07060  0.62456  1.0000
  H   H63       1.0  0.46416  0.07243  0.55249  1.0000
  H   H64       1.0  0.44806  0.01607  0.64608  1.0000
  C   C34       1.0  0.49387  0.00745  0.67136  1.0000
  N   N3        1.0  0.46865  0.05791  0.60209  1.0000
  H   H65       1.0  0.48777  0.04738  0.75416  1.0000
  H   H66       1.0  0.47946  0.00881  0.66595  1.0000
  H   H67       1.0  0.49836  0.09844  0.63391  1.0000
  C   C35       1.0  0.44956  0.06578  0.56439  1.0000
  C   C36       1.0  0.48315  0.08458  0.63978  1.0000
  H   H68       1.0  0.43163  0.02042  0.62334  1.0000
  H   H69       1.0  0.44738  0.07916  0.57319  1.0000
  H   H70       1.0  0.45436  0.23477  0.49545  1.0000
  C   C37       1.0  0.43651  0.19992  0.49135  1.0000
  H   H71       1.0  0.48354  0.24366  0.57106  1.0000
  C   C38       1.0  0.49679  0.06176  0.74233  1.0000
  H   H72       1.0  0.35732  0.23661  0.51919  1.0000
  H   H73       1.0  0.42434  0.23616  0.56394  1.0000
  H   H74       1.0  0.49721  0.13179  0.60311  1.0000
  H   H75       1.0  0.50393  0.05636  0.72706  1.0000
  H   H76       1.0  0.41131  0.25366  0.56111  1.0000
  H   H77       1.0  0.50264  0.10416  0.72516  1.0000
  H   H78       1.0  0.41378  0.23938  0.53458  1.0000
  H   H79       1.0  0.47403  0.25064  0.54336  1.0000
  C   C39       1.0  0.35990  0.23596  0.49878  1.0000
  H   H80       1.0  0.37607  0.23649  0.49669  1.0000
  Fe  Fe4       1.0  0.42431  0.12885  0.49195  1.0000
  H   H81       1.0  0.50425  0.08964  0.76504  1.0000
  H   H82       1.0  0.34723  0.22035  0.49181  1.0000
  C   C40       1.0  0.43906  0.22152  0.49032  1.0000
  H   H83       1.0  0.04074  0.42227  0.40319  1.0000
  H   H84       1.0  0.30453  0.48988  0.46751  1.0000
  H   H85       1.0  0.15841  0.38480  0.48497  1.0000
  C   C41       1.0  0.41310  0.39723  0.41530  1.0000
  H   H86       1.0  0.40337  0.26070  0.42056  1.0000
  H   H87       1.0  0.43269  0.49964  0.24978  1.0000
  Fe  Fe5       1.0  0.33991  0.44124  0.44982  1.0000
  S   S10       1.0  0.35479  0.44850  0.41124  1.0000
  S   S11       1.0  0.31408  0.40809  0.45916  1.0000
  Fe  Fe6       1.0  0.46508  0.33536  0.46531  1.0000
  S   S12       1.0  0.43360  0.31033  0.44963  1.0000
  H   H88       1.0  0.12267  0.34226  0.46489  1.0000
  C   C42       1.0  0.34443  0.28403  0.46165  1.0000
  S   S13       1.0  0.09653  0.43855  0.48319  1.0000
  C   C43       1.0  0.13080  0.48932  0.43121  1.0000
  S   S14       1.0  0.39184  0.33425  0.46011  1.0000
  H   H89       1.0  0.01096  0.44919  0.38822  1.0000
  Fe  Fe7       1.0  0.12368  0.44063  0.45886  1.0000
  S   S15       1.0  0.12165  0.40874  0.47114  1.0000
  S   S16       1.0  0.12472  0.44870  0.41785  1.0000
  H   H90       1.0  0.08651  0.49646  0.42177  1.0000
  H   H91       1.0  0.37217  0.48853  0.43985  1.0000
  H   H92       1.0  0.04530  0.39491  0.46990  1.0000
  C   C44       1.0  0.07673  0.45634  0.36196  1.0000
  C   C45       1.0  0.38111  0.25654  0.45085  1.0000
  H   H93       1.0  0.44063  0.46228  0.39005  1.0000
  C   C46       1.0  0.38048  0.35029  0.47413  1.0000
  C   C47       1.0  0.42042  0.42173  0.41442  1.0000
  H   H94       1.0  0.08938  0.35420  0.48900  1.0000
  C   C48       1.0  0.13046  0.47566  0.41180  1.0000
  C   C49       1.0  0.13348  0.48318  0.38711  1.0000
  H   H95       1.0  0.43285  0.42950  0.42927  1.0000
  H   H96       1.0  0.09315  0.45932  0.36837  1.0000
  C   C50       1.0  0.07732  0.48833  0.38227  1.0000
  N   N4        1.0  0.40301  0.42916  0.41538  1.0000
  H   H97       1.0  0.13349  0.47274  0.37207  1.0000
  H   H98       1.0  0.05985  0.42544  0.42732  1.0000
  H   H99       1.0  0.12854  0.48367  0.45032  1.0000
  C   C51       1.0  0.35936  0.27618  0.44829  1.0000
  H   H100      1.0  0.35505  0.27456  0.42805  1.0000
  Fe  Fe8       1.0  0.41827  0.32578  0.47524  1.0000
  C   C52       1.0  0.23846  0.42067  0.48571  1.0000
  C   C53       1.0  0.07928  0.46647  0.33573  1.0000
  H   H101      1.0  0.06690  0.42333  0.39594  1.0000
  H   H102      1.0  0.47084  0.33987  0.28903  1.0000
  H   H103      1.0  0.35081  0.29061  0.48050  1.0000
  C   C54       1.0  0.04264  0.45610  0.37373  1.0000
  C   C55       1.0  0.13616  0.50407  0.38175  1.0000
  H   H104      1.0  0.35677  0.39984  0.40349  1.0000
  H   H105      1.0  0.18281  0.36821  0.47416  1.0000
  H   H106      1.0  0.39450  0.26934  0.46165  1.0000
  C   C56       1.0  0.38305  0.47972  0.38013  1.0000
  C   C57       1.0  0.37346  0.47521  0.40387  1.0000
  H   H107      1.0  0.49003  0.38546  0.27134  1.0000
  H   H108      1.0  0.19508  0.42758  0.46387  1.0000
  H   H109      1.0  0.37854  0.46695  0.36641  1.0000
  S   S17       1.0  0.32273  0.45785  0.46864  1.0000
  H   H110      1.0  0.48874  0.37849  0.30322  1.0000
  H   H111      1.0  0.39954  0.38855  0.42814  1.0000
  H   H112      1.0  0.16203  0.50413  0.14925  1.0000
  C   C58       1.0  0.47888  0.36880  0.40717  1.0000
  H   H113      1.0  0.42984  0.42727  0.39687  1.0000
  H   H114      1.0  0.46327  0.35837  0.41493  1.0000
  H   H115      1.0  0.06350  0.46214  0.32653  1.0000
  H   H116      1.0  0.06772  0.43862  0.35901  1.0000
  H   H117      1.0  0.07105  0.49529  0.36744  1.0000
  H   H118      1.0  0.12406  0.36827  0.46788  1.0000
  H   H119      1.0  0.48149  0.32027  0.28769  1.0000
  H   H120      1.0  0.36451  0.35194  0.44008  1.0000
  H   H121      1.0  0.37901  0.40322  0.43752  1.0000
  C   C59       1.0  0.36728  0.35662  0.45957  1.0000
  H   H122      1.0  0.40173  0.45956  0.42089  1.0000
  C   C60       1.0  0.35742  0.36876  0.47001  1.0000
  S   S18       1.0  0.15004  0.46014  0.48602  1.0000
  H   H123      1.0  0.41232  0.41890  0.46491  1.0000
  H   H124      1.0  0.42060  0.50080  0.19470  1.0000
  H   H125      1.0  0.32757  0.27152  0.46312  1.0000
  H   H126      1.0  0.06131  0.46009  0.42183  1.0000
  H   H127      1.0  0.38858  0.41820  0.47851  1.0000
  C   C61       1.0  0.42669  0.46564  0.39384  1.0000
  H   H128      1.0  0.46442  0.32002  0.31282  1.0000
  H   H129      1.0  0.47976  0.47951  0.28872  1.0000
  Fe  Fe9       1.0  0.43341  0.28952  0.48244  1.0000
  H   H130      1.0  0.42647  0.39420  0.42288  1.0000
  H   H131      1.0  0.34709  0.37319  0.45862  1.0000
  N   N5        1.0  0.06590  0.46396  0.38145  1.0000
  C   C62       1.0  0.01197  0.48423  0.32102  1.0000
  H   H132      1.0  0.04162  0.46347  0.35563  1.0000
  H   H133      1.0  0.49166  0.35531  0.32871  1.0000
  C   C63       1.0  0.38944  0.42271  0.39177  1.0000
  H   H134      1.0  0.40886  0.38996  0.39633  1.0000
  C   C64       1.0  0.40070  0.42584  0.46357  1.0000
  C   C65       1.0  0.01088  0.37375  0.47046  1.0000
  C   C66       1.0  0.49705  0.34582  0.31615  1.0000
  C   C67       1.0  0.35866  0.25537  0.48618  1.0000
  H   H135      1.0  0.08814  0.46011  0.32362  1.0000
  H   H136      1.0  0.22848  0.42605  0.44923  1.0000
  H   H137      1.0  0.42545  0.45921  0.43299  1.0000
  C   C68       1.0  0.06826  0.45479  0.40621  1.0000
  H   H138      1.0  0.08568  0.46104  0.41113  1.0000
  H   H139      1.0  0.37578  0.28999  0.44959  1.0000
  C   C69       1.0  0.38888  0.42088  0.43813  1.0000
  C   C70       1.0  0.05820  0.43001  0.40780  1.0000
  H   H140      1.0  0.46575  0.38006  0.37703  1.0000
  H   H141      1.0  0.15824  0.35711  0.45675  1.0000
  H   H142      1.0  0.08889  0.48423  0.33604  1.0000
  H   H143      1.0  0.27485  0.50213  0.48797  1.0000
  H   H144      1.0  0.03472  0.43854  0.36940  1.0000
  C   C71       1.0  0.41386  0.45348  0.41708  1.0000
  S   S19       1.0  0.26255  0.41999  0.47396  1.0000
  C   C72       1.0  0.03254  0.38088  0.47837  1.0000
  H   H145      1.0  0.40548  0.50411  0.35552  1.0000
  C   C73       1.0  0.48032  0.38109  0.38572  1.0000
  H   H146      1.0  0.09473  0.49435  0.37805  1.0000
  C   C74       1.0  0.28673  0.48275  0.46700  1.0000
  C   C75       1.0  0.22447  0.42400  0.46889  1.0000
  H   H147      1.0  0.36306  0.39685  0.37192  1.0000
  H   H148      1.0  0.02959  0.47752  0.38816  1.0000
  H   H149      1.0  0.43240  0.48042  0.22838  1.0000
  Fe  Fe10      1.0  0.29780  0.42507  0.48096  1.0000
  H   H150      1.0  0.40814  0.48357  0.23259  1.0000
  H   H151      1.0  0.37400  0.38712  0.39637  1.0000
  H   H152      1.0  0.34421  0.29763  0.45088  1.0000
  H   H153      1.0  0.08686  0.33753  0.46280  1.0000
  H   H154      1.0  0.39956  0.42372  0.37521  1.0000
  S   S20       1.0  0.44994  0.35187  0.48863  1.0000
  H   H155      1.0  0.06025  0.49468  0.41390  1.0000
  H   H156      1.0  0.28022  0.46519  0.46343  1.0000
  H   H157      1.0  0.03099  0.45924  0.41151  1.0000
  H   H158      1.0  0.37679  0.42740  0.43864  1.0000
  H   H159      1.0  0.41641  0.46223  0.37689  1.0000
  C   C76       1.0  0.03087  0.50087  0.31132  1.0000
  H   H160      1.0  0.43329  0.48325  0.39735  1.0000
  C   C77       1.0  0.20544  0.42489  0.47717  1.0000
  C   C78       1.0  0.02803  0.46108  0.39157  1.0000
  C   C79       1.0  0.47750  0.33073  0.30019  1.0000
  C   C80       1.0  0.09474  0.34248  0.48142  1.0000
  C   C81       1.0  0.36985  0.40023  0.39118  1.0000
  H   H161      1.0  0.38254  0.43415  0.38783  1.0000
  H   H162      1.0  0.28281  0.49028  0.45070  1.0000
  H   H163      1.0  0.38906  0.27636  0.41644  1.0000
  S   S21       1.0  0.36061  0.44376  0.48305  1.0000
  C   C82       1.0  0.42601  0.49236  0.23141  1.0000
  C   C83       1.0  0.37939  0.49183  0.42148  1.0000
  C   C84       1.0  0.39833  0.50075  0.37392  1.0000
  C   C85       1.0  0.11949  0.35289  0.47812  1.0000
  S   S22       1.0  0.49662  0.35462  0.44512  1.0000
  H   H164      1.0  0.40877  0.44333  0.46778  1.0000
  H   H165      1.0  0.19419  0.50224  0.17134  1.0000
  C   C86       1.0  0.07680  0.49946  0.40710  1.0000
  C   C87       1.0  0.38733  0.26050  0.42297  1.0000
  C   C88       1.0  0.16506  0.35826  0.47581  1.0000
  S   S23       1.0  0.05615  0.50248  0.32034  1.0000
  H   H166      1.0  0.16229  0.34208  0.48224  1.0000
  C   C89       1.0  0.50051  0.39485  0.37563  1.0000
  H   H167      1.0  0.01310  0.47265  0.33370  1.0000
  C   C90       1.0  0.49443  0.49404  0.29243  1.0000
  H   H168      1.0  0.00724  0.38245  0.45592  1.0000
  C   C91       1.0  0.49764  0.36995  0.41840  1.0000
  C   C92       1.0  0.50001  0.38497  0.28740  1.0000
  N   N6        1.0  0.35974  0.25589  0.45800  1.0000
  H   H169      1.0  0.19306  0.49854  0.13840  1.0000
  S   S24       1.0  0.50174  0.40988  0.34857  1.0000
  H   H170      1.0  0.50062  0.33528  0.32914  1.0000
  H   H171      1.0  0.50242  0.35970  0.26531  1.0000
  C   C93       1.0  0.19986  0.42230  0.50252  1.0000
  S   S25       1.0  0.35741  0.48917  0.52407  1.0000
  S   S26       1.0  0.31595  0.42559  0.51657  1.0000
  Fe  Fe11      1.0  0.44808  0.32827  0.51819  1.0000
  S   S27       1.0  0.41528  0.30285  0.50653  1.0000
  S   S28       1.0  0.45394  0.33773  0.55890  1.0000
  Fe  Fe12      1.0  0.12265  0.45565  0.51178  1.0000
  S   S29       1.0  0.12077  0.42503  0.52814  1.0000
  S   S30       1.0  0.12193  0.48501  0.52994  1.0000
  H   H172      1.0  0.45102  0.26127  0.52995  1.0000
  S   S31       1.0  0.34728  0.38873  0.50997  1.0000
  C   C94       1.0  0.48019  0.35712  0.56700  1.0000
  H   H173      1.0  0.13000  0.38566  0.51063  1.0000
  C   C95       1.0  0.25351  0.47784  0.54158  1.0000
  H   H174      1.0  0.43996  0.27922  0.53518  1.0000
  H   H175      1.0  0.47018  0.36567  0.60169  1.0000
  C   C96       1.0  0.06847  0.46779  0.66726  1.0000
  H   H176      1.0  0.13230  0.36034  0.55687  1.0000
  H   H177      1.0  0.45046  0.30137  0.62043  1.0000
  C   C97       1.0  0.36815  0.47503  0.59500  1.0000
  H   H178      1.0  0.42215  0.42174  0.58155  1.0000
  C   C98       1.0  0.29539  0.46234  0.54486  1.0000
  H   H179      1.0  0.47221  0.31610  0.59998  1.0000
  H   H180      1.0  0.48359  0.28481  0.52036  1.0000
  H   H181      1.0  0.43394  0.27144  0.59348  1.0000
  H   H182      1.0  0.25979  0.47422  0.49098  1.0000
  H   H183      1.0  0.02443  0.34232  0.52158  1.0000
  C   C99       1.0  0.40987  0.45033  0.53728  1.0000
  H   H184      1.0  0.13292  0.38624  0.55523  1.0000
  H   H185      1.0  0.47316  0.46248  0.67523  1.0000
  C   C100      1.0  0.14520  0.33428  0.53127  1.0000
  H   H186      1.0  0.24288  0.41480  0.52427  1.0000
  C   C101      1.0  0.01529  0.44230  0.64864  1.0000
  C   C102      1.0  0.36832  0.49050  0.55424  1.0000
  C   C103      1.0  0.35912  0.47335  0.57099  1.0000
  H   H187      1.0  0.32769  0.49511  0.80560  1.0000
  H   H188      1.0  0.42898  0.42574  0.52440  1.0000
  H   H189      1.0  0.34496  0.45890  0.56552  1.0000
  C   C104      1.0  0.40044  0.46660  0.53475  1.0000
  C   C105      1.0  0.36026  0.37442  0.49537  1.0000
  H   H190      1.0  0.01899  0.45243  0.66567  1.0000
  C   C106      1.0  0.48163  0.41536  0.74352  1.0000
  C   C107      1.0  0.40999  0.45418  0.58339  1.0000
  C   C108      1.0  0.49772  0.36083  0.55153  1.0000
  H   H191      1.0  0.07836  0.47667  0.68368  1.0000
  H   H192      1.0  0.36094  0.46179  0.60797  1.0000
  H   H193      1.0  0.43930  0.41335  0.54638  1.0000
  H   H194      1.0  0.15560  0.38334  0.54425  1.0000
  H   H195      1.0  0.11904  0.45940  0.57467  1.0000
  H   H196      1.0  0.13693  0.32517  0.54825  1.0000
  H   H197      1.0  0.48085  0.27144  0.59085  1.0000
  H   H198      1.0  0.07519  0.46937  0.61453  1.0000
  H   H199      1.0  0.40287  0.43851  0.52168  1.0000
  S   S32       1.0  0.17568  0.42265  0.51432  1.0000
  C   C109      1.0  0.42429  0.43142  0.56432  1.0000
  N   N7        1.0  0.04851  0.47397  0.62945  1.0000
  H   H200      1.0  0.47085  0.29246  0.61610  1.0000
  H   H201      1.0  0.04803  0.48364  0.66808  1.0000
  H   H202      1.0  0.35171  0.40828  0.57295  1.0000
  H   H203      1.0  0.40207  0.47223  0.51509  1.0000
  C   C110      1.0  0.03768  0.36965  0.49688  1.0000
  H   H204      1.0  0.35950  0.42508  0.54570  1.0000
  C   C111      1.0  0.03488  0.48526  0.62318  1.0000
  C   C112      1.0  0.46596  0.26227  0.57953  1.0000
  S   S33       1.0  0.46594  0.31380  0.49628  1.0000
  H   H205      1.0  0.46408  0.40601  0.73958  1.0000
  C   C113      1.0  0.48778  0.47737  0.67337  1.0000
  C   C114      1.0  0.03404  0.45009  0.62964  1.0000
  H   H206      1.0  0.02620  0.44462  0.61107  1.0000
  C   C115      1.0  0.05920  0.48185  0.65457  1.0000
  H   H207      1.0  0.31314  0.47219  0.54601  1.0000
  H   H208      1.0  0.48809  0.42799  0.72896  1.0000
  N   N8        1.0  0.40686  0.43881  0.56201  1.0000
  C   C116      1.0  0.38666  0.49363  0.60217  1.0000
  H   H209      1.0  0.49524  0.35199  0.53418  1.0000
  C   C117      1.0  0.49223  0.40005  0.74220  1.0000
  H   H210      1.0  0.02505  0.47832  0.60602  1.0000
  H   H211      1.0  0.48316  0.42272  0.76227  1.0000
  Fe  Fe13      1.0  0.09601  0.40805  0.49775  1.0000
  C   C118      1.0  0.12122  0.49959  0.61367  1.0000
  H   H212      1.0  0.47369  0.30908  0.54921  1.0000
  H   H213      1.0  0.39110  0.43060  0.61230  1.0000
  H   H214      1.0  0.05546  0.45250  0.67429  1.0000
  C   C119      1.0  0.23271  0.41783  0.51103  1.0000
  C   C120      1.0  0.01785  0.49468  0.68912  1.0000
  H   H215      1.0  0.15770  0.35004  0.53782  1.0000
  C   C121      1.0  0.40716  0.44451  0.60983  1.0000
  H   H216      1.0  0.48898  0.39333  0.72290  1.0000
  H   H217      1.0  0.29222  0.44522  0.54641  1.0000
  H   H218      1.0  0.42635  0.46814  0.58255  1.0000
  H   H219      1.0  0.05039  0.48344  0.57636  1.0000
  H   H220      1.0  0.02244  0.40912  0.53177  1.0000
  S   S34       1.0  0.39849  0.49469  0.63174  1.0000
  C   C122      1.0  0.47872  0.29713  0.55699  1.0000
  H   H221      1.0  0.41095  0.40177  0.54115  1.0000
  H   H222      1.0  0.20957  0.41643  0.53892  1.0000
  H   H223      1.0  0.07921  0.46426  0.65475  1.0000
  H   H224      1.0  0.49005  0.30558  0.57258  1.0000
  H   H225      1.0  0.42016  0.43997  0.61473  1.0000
  H   H226      1.0  0.50152  0.28471  0.54538  1.0000
  C   C123      1.0  0.12021  0.47485  0.58043  1.0000
  Fe  Fe14      1.0  0.33429  0.41141  0.49361  1.0000
  H   H227      1.0  0.48304  0.38619  0.75469  1.0000
  H   H228      1.0  0.38311  0.45951  0.53923  1.0000
  C   C124      1.0  0.13777  0.37502  0.54524  1.0000
  N   N9        1.0  0.45926  0.27757  0.56628  1.0000
  C   C125      1.0  0.06609  0.47877  0.61045  1.0000
  H   H229      1.0  0.28761  0.46579  0.56116  1.0000
  H   H230      1.0  0.39879  0.46157  0.58220  1.0000
  C   C126      1.0  0.38355  0.35620  0.49941  1.0000
  C   C127      1.0  0.49276  0.29327  0.53726  1.0000
  H   H231      1.0  0.40829  0.45697  0.62366  1.0000
  C   C128      1.0  0.42568  0.41733  0.54262  1.0000
  H   H232      1.0  0.11243  0.32842  0.52290  1.0000
  S   S35       1.0  0.06484  0.37761  0.50730  1.0000
  H   H233      1.0  0.44025  0.29458  0.57490  1.0000
  H   H234      1.0  0.37519  0.37166  0.52972  1.0000
  C   C129      1.0  0.48368  0.36854  0.58960  1.0000
  H   H235      1.0  0.07350  0.47905  0.57109  1.0000
  C   C130      1.0  0.28619  0.46546  0.51972  1.0000
  C   C131      1.0  0.00874  0.39300  0.53500  1.0000
  H   H236      1.0  0.01904  0.48176  0.69922  1.0000
  H   H237      1.0  0.01174  0.42588  0.65523  1.0000
  H   H238      1.0  0.07836  0.49594  0.61162  1.0000
  H   H239      1.0  0.47105  0.49731  0.67259  1.0000
  H   H240      1.0  0.15333  0.32519  0.52284  1.0000
  H   H241      1.0  0.49317  0.39414  0.79436  1.0000
  H   H242      1.0  0.26921  0.45308  0.51830  1.0000
  Fe  Fe15      1.0  0.34120  0.45753  0.50307  1.0000
  H   H243      1.0  0.07279  0.49837  0.65309  1.0000
  C   C132      1.0  0.12212  0.49015  0.56236  1.0000
  H   H244      1.0  0.16730  0.37497  0.51032  1.0000
  H   H245      1.0  0.12607  0.32315  0.49786  1.0000
  H   H246      1.0  0.01635  0.38237  0.53984  1.0000
  C   C133      1.0  0.02073  0.35131  0.50744  1.0000
  C   C134      1.0  0.12817  0.33507  0.51293  1.0000
  H   H247      1.0  0.29459  0.46103  0.50480  1.0000
  H   H248      1.0  0.44050  0.44554  0.56616  1.0000
  H   H249      1.0  0.38293  0.40913  0.54571  1.0000
  C   C135      1.0  0.37327  0.36790  0.50998  1.0000
  C   C136      1.0  0.46136  0.29955  0.60644  1.0000
  H   H250      1.0  0.39341  0.35129  0.51099  1.0000
  H   H251      1.0  0.02283  0.48263  0.63815  1.0000
  C   C137      1.0  0.48655  0.49707  0.67185  1.0000
  C   C138      1.0  0.27706  0.49406  0.53570  1.0000
  H   H252      1.0  0.04340  0.44069  0.63223  1.0000
  C   C139      1.0  0.21367  0.41867  0.51930  1.0000
  H   H253      1.0  0.42738  0.45973  0.53301  1.0000
  C   C140      1.0  0.05886  0.47408  0.58288  1.0000
  H   H254      1.0  0.38461  0.40798  0.57814  1.0000
  C   C141      1.0  0.44765  0.28530  0.58466  1.0000
  Fe  Fe16      1.0  0.14672  0.42822  0.50017  1.0000
  N   N10       1.0  0.13288  0.35665  0.50168  1.0000
  N   N11       1.0  0.28791  0.48756  0.51520  1.0000
  C   C142      1.0  0.38530  0.41910  0.56280  1.0000
  H   H255      1.0  0.40942  0.48119  0.54645  1.0000
  H   H256      1.0  0.11813  0.46764  0.61991  1.0000
  H   H257      1.0  0.10919  0.36195  0.52351  1.0000
  C   C143      1.0  0.44386  0.26713  0.54479  1.0000
  C   C144      1.0  0.36495  0.42272  0.56448  1.0000
  H   H258      1.0  0.36684  0.43612  0.57694  1.0000
  C   C145      1.0  0.11974  0.47957  0.60602  1.0000
  H   H259      1.0  0.04884  0.45666  0.57930  1.0000
  C   C146      1.0  0.12674  0.36998  0.51937  1.0000
  H   H260      1.0  0.25221  0.46231  0.54872  1.0000
  H   H261      1.0  0.24258  0.47478  0.52528  1.0000
  C   C147      1.0  0.31150  0.50349  0.51475  1.0000
  H   H262      1.0  0.24729  0.48468  0.55654  1.0000
  H   H263      1.0  0.28644  0.49739  0.55348  1.0000
  H   H264      1.0  0.30754  0.50344  0.79784  1.0000
  C   C148      1.0  0.15616  0.36951  0.49412  1.0000
  H   H265      1.0  0.08863  0.32790  0.49326  1.0000
  H   H266      1.0  0.32111  0.49728  0.50362  1.0000
  H   H267      1.0  0.34380  0.25573  0.49321  1.0000
  S   S36       1.0  0.11887  0.50458  0.64572  1.0000
  H   H268      1.0  0.37199  0.27023  0.49409  1.0000
  C   C149      1.0  0.27673  0.48715  0.49080  1.0000
  Fe  Fe17      1.0  0.13245  0.67743  0.47437  1.0000
  S   S37       1.0  0.12055  0.70081  0.46046  1.0000
  S   S38       1.0  0.14689  0.66017  0.45056  1.0000
  C   C150      1.0  0.39451  0.51288  0.41520  1.0000
  H   H269      1.0  0.18482  0.51808  0.20072  1.0000
  Fe  Fe18      1.0  0.44698  0.57496  0.29600  1.0000
  S   S39       1.0  0.43193  0.54052  0.30941  1.0000
  S   S40       1.0  0.42727  0.58441  0.26825  1.0000
  Fe  Fe19      1.0  0.48576  0.58748  0.33153  1.0000
  S   S41       1.0  0.47382  0.55393  0.34661  1.0000
  C   C151      1.0  0.48186  0.61017  0.45870  1.0000
  Fe  Fe20      1.0  0.46550  0.54327  0.30680  1.0000
  C   C152      1.0  0.12429  0.54747  0.47913  1.0000
  Fe  Fe21      1.0  0.44146  0.55394  0.34811  1.0000
  S   S42       1.0  0.42247  0.54427  0.38429  1.0000
  S   S43       1.0  0.48005  0.57681  0.29104  1.0000
  S   S44       1.0  0.45390  0.58836  0.33541  1.0000
  Fe  Fe22      1.0  0.39976  0.62928  0.07957  1.0000
  S   S45       1.0  0.39557  0.59611  0.08969  1.0000
  S   S46       1.0  0.40608  0.64705  0.04239  1.0000
  Fe  Fe23      1.0  0.38335  0.63537  0.13059  1.0000
  S   S47       1.0  0.37674  0.60251  0.14419  1.0000
  S   S48       1.0  0.37420  0.65608  0.15542  1.0000
  Fe  Fe24      1.0  0.40905  0.60992  0.12795  1.0000
  S   S49       1.0  0.43400  0.60422  0.15102  1.0000
  Fe  Fe25      1.0  0.36377  0.59159  0.10552  1.0000
  S   S50       1.0  0.33341  0.56129  0.09773  1.0000
  S   S51       1.0  0.41637  0.64376  0.11609  1.0000
  S   S52       1.0  0.36715  0.62369  0.09365  1.0000
  Fe  Fe26      1.0  0.23259  0.62524  0.08643  1.0000
  S   S53       1.0  0.23188  0.64350  0.12125  1.0000
  S   S54       1.0  0.23099  0.63935  0.04849  1.0000
  Fe  Fe27      1.0  0.23993  0.59186  0.11635  1.0000
  S   S55       1.0  0.24001  0.60728  0.15316  1.0000
  S   S56       1.0  0.24291  0.56084  0.11735  1.0000
  Fe  Fe28      1.0  0.21151  0.61087  0.13843  1.0000
  S   S57       1.0  0.18022  0.60101  0.16054  1.0000
  Fe  Fe29      1.0  0.26025  0.63832  0.13346  1.0000
  S   S58       1.0  0.29187  0.66083  0.15134  1.0000
  S   S59       1.0  0.20987  0.59311  0.10239  1.0000
  S   S60       1.0  0.26249  0.62248  0.09777  1.0000
  C   C153      1.0  0.26417  0.70246  0.07453  1.0000
  H   H270      1.0  0.31021  0.62581  0.11822  1.0000
  H   H271      1.0  0.02622  0.55438  0.30864  1.0000
  Fe  Fe30      1.0  0.08766  0.53338  0.32207  1.0000
  S   S61       1.0  0.11976  0.53228  0.32137  1.0000
  C   C154      1.0  0.17617  0.59295  0.42949  1.0000
  Fe  Fe31      1.0  0.10791  0.58003  0.34052  1.0000
  S   S62       1.0  0.14138  0.58271  0.34096  1.0000
  S   S63       1.0  0.09622  0.60310  0.35701  1.0000
  Fe  Fe32      1.0  0.13259  0.56532  0.30364  1.0000
  S   S64       1.0  0.16079  0.57542  0.27595  1.0000
  Fe  Fe33      1.0  0.12646  0.54980  0.35806  1.0000
  S   S65       1.0  0.13801  0.54334  0.39527  1.0000
  S   S66       1.0  0.09971  0.56512  0.30187  1.0000
  S   S67       1.0  0.09372  0.54841  0.36006  1.0000
  H   H272      1.0  0.38652  0.62954  0.19029  1.0000
  C   C155      1.0  0.17536  0.59530  0.19304  1.0000
  C   C156      1.0  0.15409  0.58721  0.20206  1.0000
  C   C157      1.0  0.14930  0.58146  0.22742  1.0000
  C   C158      1.0  0.16579  0.58372  0.24413  1.0000
  C   C159      1.0  0.18709  0.59204  0.23515  1.0000
  C   C160      1.0  0.19188  0.59781  0.20983  1.0000
  H   H273      1.0  0.14117  0.58524  0.18929  1.0000
  H   H274      1.0  0.13285  0.57509  0.23398  1.0000
  H   H275      1.0  0.19998  0.59392  0.24792  1.0000
  H   H276      1.0  0.20834  0.60415  0.20331  1.0000
  C   C161      1.0  0.30360  0.68836  0.14411  1.0000
  C   C162      1.0  0.29098  0.69904  0.13932  1.0000
  C   C163      1.0  0.30100  0.72128  0.13455  1.0000
  C   C164      1.0  0.32359  0.73276  0.13425  1.0000
  C   C165      1.0  0.33616  0.72202  0.13887  1.0000
  C   C166      1.0  0.32614  0.69987  0.14388  1.0000
  H   H277      1.0  0.27356  0.69024  0.13971  1.0000
  H   H278      1.0  0.29124  0.72958  0.13101  1.0000
  H   H279      1.0  0.35359  0.73077  0.13865  1.0000
  H   H280      1.0  0.33586  0.69156  0.14743  1.0000
  C   C167      1.0  0.39072  0.68387  0.15357  1.0000
  C   C168      1.0  0.38233  0.69812  0.16040  1.0000
  C   C169      1.0  0.39507  0.72043  0.15850  1.0000
  C   C170      1.0  0.41656  0.72849  0.15092  1.0000
  C   C171      1.0  0.42521  0.71425  0.14505  1.0000
  C   C172      1.0  0.41217  0.69195  0.14585  1.0000
  H   H281      1.0  0.36590  0.69189  0.16692  1.0000
  H   H282      1.0  0.38840  0.73140  0.16327  1.0000
  H   H283      1.0  0.37244  0.59893  0.03485  1.0000
  H   H284      1.0  0.41887  0.68113  0.14085  1.0000
  C   C173      1.0  0.30846  0.56187  0.10211  1.0000
  C   C174      1.0  0.29082  0.54309  0.11008  1.0000
  C   C175      1.0  0.27083  0.54299  0.11444  1.0000
  C   C176      1.0  0.26812  0.56156  0.11043  1.0000
  C   C177      1.0  0.28553  0.58020  0.10154  1.0000
  C   C178      1.0  0.30579  0.58046  0.09767  1.0000
  H   H285      1.0  0.29271  0.52862  0.11329  1.0000
  H   H286      1.0  0.25742  0.52846  0.12103  1.0000
  H   H287      1.0  0.28339  0.59438  0.09776  1.0000
  H   H288      1.0  0.31920  0.59491  0.09103  1.0000
  C   C179      1.0  0.23112  0.60713  0.01755  1.0000
  C   C180      1.0  0.23108  0.62724  0.01925  1.0000
  H   H289      1.0  0.04533  0.58590  0.37057  1.0000
  H   H290      1.0  0.23107  0.59853  0.03442  1.0000
  H   H291      1.0  0.42397  0.52246  0.16268  1.0000
  C   C181      1.0  0.42055  0.62286  0.01338  1.0000
  C   C182      1.0  0.41235  0.63798  0.01391  1.0000
  H   H292      1.0  0.44438  0.73287  0.03597  1.0000
  H   H293      1.0  0.42326  0.61638  0.03069  1.0000
  H   H294      1.0  0.15417  0.53470  0.12232  1.0000
  C   C183      1.0  0.42963  0.58921  0.23553  1.0000
  C   C184      1.0  0.41112  0.58639  0.22193  1.0000
  C   C185      1.0  0.41217  0.59075  0.19611  1.0000
  C   C186      1.0  0.43184  0.59818  0.18352  1.0000
  C   C187      1.0  0.45038  0.60097  0.19709  1.0000
  C   C188      1.0  0.44931  0.59648  0.22294  1.0000
  H   H295      1.0  0.39581  0.58076  0.23146  1.0000
  H   H296      1.0  0.39772  0.58832  0.18596  1.0000
  H   H297      1.0  0.46571  0.60679  0.18757  1.0000
  H   H298      1.0  0.46376  0.59902  0.23320  1.0000
  H   H299      1.0  0.44611  0.63926  0.22484  1.0000
  C   C189      1.0  0.50014  0.61553  0.47816  1.0000
  H   H300      1.0  0.40174  0.51961  0.20723  1.0000
  C   C190      1.0  0.40505  0.73204  0.04750  1.0000
  C   C191      1.0  0.01456  0.58674  0.36671  1.0000
  C   C192      1.0  0.43879  0.58748  0.43138  1.0000
  H   H301      1.0  0.04360  0.52823  0.28677  1.0000
  C   C193      1.0  0.29074  0.59903  0.19788  1.0000
  H   H302      1.0  0.32093  0.62417  0.23066  1.0000
  C   C194      1.0  0.13262  0.64478  0.42437  1.0000
  C   C195      1.0  0.11159  0.64145  0.41877  1.0000
  C   C196      1.0  0.10057  0.62869  0.39802  1.0000
  C   C197      1.0  0.11036  0.61892  0.38301  1.0000
  C   C198      1.0  0.13131  0.62216  0.38875  1.0000
  C   C199      1.0  0.14246  0.63523  0.40917  1.0000
  H   H303      1.0  0.10387  0.64877  0.43035  1.0000
  H   H304      1.0  0.08441  0.62636  0.39362  1.0000
  H   H305      1.0  0.13912  0.61497  0.37713  1.0000
  H   H306      1.0  0.15886  0.63807  0.41304  1.0000
  C   C200      1.0  0.33465  0.72124  0.07028  1.0000
  C   C201      1.0  0.27598  0.60888  0.20720  1.0000
  C   C202      1.0  0.32898  0.63889  0.21925  1.0000
  H   H307      1.0  0.30930  0.64418  0.19070  1.0000
  H   H308      1.0  0.28367  0.62048  0.22271  1.0000
  H   H309      1.0  0.27166  0.61719  0.19215  1.0000
  H   H310      1.0  0.26075  0.59590  0.21455  1.0000
  H   H311      1.0  0.34656  0.64360  0.21913  1.0000
  H   H312      1.0  0.32633  0.65167  0.22897  1.0000
  N   N12       1.0  0.47638  0.59041  0.44265  1.0000
  C   C203      1.0  0.46110  0.59044  0.42247  1.0000
  H   H313      1.0  0.45608  0.70559  0.04374  1.0000
  H   H314      1.0  0.50235  0.63024  0.48864  1.0000
  H   H315      1.0  0.12899  0.61217  0.48718  1.0000
  H   H316      1.0  0.22116  0.56589  0.20077  1.0000
  H   H317      1.0  0.26198  0.68305  0.04281  1.0000
  H   H318      1.0  0.45786  0.57773  0.40831  1.0000
  H   H319      1.0  0.46855  0.60568  0.41163  1.0000
  C   C204      1.0  0.16210  0.57952  0.45139  1.0000
  S   S68       1.0  0.05816  0.67270  0.47443  1.0000
  Fe  Fe34      1.0  0.09329  0.68423  0.48821  1.0000
  H   H320      1.0  0.29609  0.59314  0.21460  1.0000
  H   H321      1.0  0.17481  0.56114  0.13148  1.0000
  H   H322      1.0  0.48380  0.54992  0.25031  1.0000
  C   C205      1.0  0.17282  0.52363  0.19485  1.0000
  H   H323      1.0  0.45349  0.57149  0.47126  1.0000
  H   H324      1.0  0.30085  0.65333  0.06189  1.0000
  N   N13       1.0  0.41801  0.72334  0.06258  1.0000
  H   H325      1.0  0.03739  0.54300  0.39422  1.0000
  H   H326      1.0  0.41712  0.73546  0.00886  1.0000
  H   H327      1.0  0.31220  0.52583  0.48499  1.0000
  H   H328      1.0  0.26199  0.69069  0.08956  1.0000
  H   H329      1.0  0.40811  0.62417  0.22547  1.0000
  H   H330      1.0  0.40542  0.64455  0.24305  1.0000
  H   H331      1.0  0.43537  0.69171  0.06569  1.0000
  C   C206      1.0  0.06787  0.72810  0.48514  1.0000
  C   C207      1.0  0.40766  0.63995  0.22373  1.0000
  H   H332      1.0  0.16671  0.58988  0.41188  1.0000
  H   H333      1.0  0.42277  0.70702  0.03045  1.0000
  H   H334      1.0  0.24779  0.70053  0.06962  1.0000
  C   C208      1.0  0.15920  0.53937  0.16312  1.0000
  H   H335      1.0  0.40492  0.51075  0.25420  1.0000
  H   H336      1.0  0.15751  0.61989  0.45163  1.0000
  C   C209      1.0  0.44549  0.54445  0.19186  1.0000
  C   C210      1.0  0.44578  0.70795  0.05813  1.0000
  N   N14       1.0  0.14508  0.58582  0.46055  1.0000
  H   H337      1.0  0.05735  0.56201  0.35558  1.0000
  H   H338      1.0  0.16992  0.52914  0.23451  1.0000
  C   C211      1.0  0.02876  0.56709  0.32276  1.0000
  H   H339      1.0  0.41100  0.69671  0.08815  1.0000
  H   H340      1.0  0.27559  0.66516  0.06896  1.0000
  H   H341      1.0  0.17321  0.58041  0.46697  1.0000
  H   H342      1.0  0.45997  0.54284  0.18538  1.0000
  C   C212      1.0  0.23109  0.63815  0.99711  1.0000
  H   H343      1.0  0.05549  0.59908  0.33157  1.0000
  H   H344      1.0  0.33330  0.62802  0.02418  1.0000
  H   H345      1.0  0.01669  0.64945  0.45059  1.0000
  H   H346      1.0  0.45676  0.71841  0.07288  1.0000
  H   H347      1.0  0.32398  0.67944  0.06382  1.0000
  H   H348      1.0  0.00743  0.52490  0.27483  1.0000
  C   C213      1.0  0.38363  0.70322  0.08948  1.0000
  H   H349      1.0  0.38891  0.52427  0.24698  1.0000
  H   H350      1.0  0.37281  0.62301  0.21940  1.0000
  H   H351      1.0  0.23072  0.58230  0.99281  1.0000
  H   H352      1.0  0.48669  0.62478  0.44686  1.0000
  C   C214      1.0  0.05141  0.58556  0.31822  1.0000
  H   H353      1.0  0.17318  0.61431  0.47399  1.0000
  C   C215      1.0  0.41449  0.53104  0.21997  1.0000
  H   H354      1.0  0.44779  0.50862  0.20120  1.0000
  H   H355      1.0  0.02118  0.51934  0.37539  1.0000
  C   C216      1.0  0.19850  0.55493  0.16902  1.0000
  H   H356      1.0  0.43991  0.60095  0.44342  1.0000
  H   H357      1.0  0.02416  0.56631  0.38733  1.0000
  H   H358      1.0  0.30611  0.72173  0.08338  1.0000
  H   H359      1.0  0.21184  0.52375  0.15066  1.0000
  H   H360      1.0  0.48868  0.62646  0.36898  1.0000
  H   H361      1.0  0.28092  0.65862  0.02701  1.0000
  C   C217      1.0  0.13374  0.51025  0.42589  1.0000
  H   H362      1.0  0.47344  0.52653  0.23112  1.0000
  H   H363      1.0  0.29129  0.68401  0.09203  1.0000
  H   H364      1.0  0.18102  0.52590  0.13123  1.0000
  H   H365      1.0  0.23273  0.56308  0.17235  1.0000
  C   C218      1.0  0.41582  0.74565  0.02416  1.0000
  C   C219      1.0  0.35681  0.58477  0.03016  1.0000
  H   H366      1.0  0.30383  0.57037  0.17757  1.0000
  C   C220      1.0  0.02915  0.51553  0.29463  1.0000
  C   C221      1.0  0.36065  0.56455  0.03226  1.0000
  H   H367      1.0  0.21673  0.53967  0.18961  1.0000
  H   H368      1.0  0.37502  0.56639  0.02144  1.0000
  H   H369      1.0  0.09951  0.58269  0.42809  1.0000
  H   H370      1.0  0.45003  0.54818  0.42776  1.0000
  C   C222      1.0  0.43039  0.53946  0.16887  1.0000
  H   H371      1.0  0.04946  0.52879  0.37784  1.0000
  H   H372      1.0  0.04160  0.53919  0.33710  1.0000
  C   C223      1.0  0.49711  0.59227  0.43126  1.0000
  H   H373      1.0  0.14337  0.52497  0.16574  1.0000
  H   H374      1.0  0.15898  0.55193  0.17591  1.0000
  H   H375      1.0  0.31691  0.58361  0.14898  1.0000
  H   H376      1.0  0.44191  0.72050  0.13944  1.0000
  H   H377      1.0  0.33423  0.64674  0.18064  1.0000
  H   H378      1.0  0.33165  0.57737  0.17219  1.0000
  H   H379      1.0  0.33063  0.62120  0.13367  1.0000
  H   H380      1.0  0.18902  0.58786  0.42588  1.0000
  H   H381      1.0  0.44997  0.65491  0.15332  1.0000
  H   H382      1.0  0.34566  0.58354  0.04570  1.0000
  H   H383      1.0  0.28917  0.62017  0.15635  1.0000
  H   H384      1.0  0.45131  0.56186  0.19612  1.0000
  H   H385      1.0  0.48456  0.56194  0.40891  1.0000
  C   C224      1.0  0.40246  0.70249  0.07467  1.0000
  H   H386      1.0  0.49002  0.58591  0.39107  1.0000
  C   C225      1.0  0.31837  0.62716  0.13647  1.0000
  H   H387      1.0  0.34125  0.61649  0.17243  1.0000
  H   H388      1.0  0.38389  0.65017  0.20873  1.0000
  H   H389      1.0  0.41513  0.67851  0.20301  1.0000
  C   C226      1.0  0.09832  0.73571  0.42238  1.0000
  H   H390      1.0  0.45356  0.55830  0.23922  1.0000
  C   C227      1.0  0.44736  0.66008  0.25538  1.0000
  H   H391      1.0  0.46402  0.69756  0.21152  1.0000
  C   C228      1.0  0.32018  0.63629  0.19222  1.0000
  N   N15       1.0  0.02462  0.55751  0.34863  1.0000
  C   C229      1.0  0.34835  0.60985  0.00646  1.0000
  H   H392      1.0  0.34261  0.71903  0.05336  1.0000
  H   H393      1.0  0.28018  0.58409  0.18737  1.0000
  H   H394      1.0  0.27335  0.71914  0.08170  1.0000
  H   H395      1.0  0.09421  0.72387  0.40681  1.0000
  C   C230      1.0  0.49359  0.51384  0.29458  1.0000
  H   H396      1.0  0.15470  0.56251  0.44471  1.0000
  H   H397      1.0  0.12313  0.56537  0.43197  1.0000
  H   H398      1.0  0.18556  0.55333  0.21780  1.0000
  N   N16       1.0  0.30966  0.61361  0.18207  1.0000
  C   C231      1.0  0.30132  0.61387  0.15606  1.0000
  C   C232      1.0  0.03165  0.65731  0.48705  1.0000
  C   C233      1.0  0.31164  0.71842  0.06517  1.0000
  H   H399      1.0  0.44849  0.70044  0.18568  1.0000
  H   H400      1.0  0.29225  0.59724  0.14857  1.0000
  C   C234      1.0  0.31893  0.58281  0.16942  1.0000
  H   H401      1.0  0.13690  0.54181  0.47728  1.0000
  C   C235      1.0  0.40911  0.64635  0.99121  1.0000
  C   C236      1.0  0.44883  0.69807  0.20619  1.0000
  C   C237      1.0  0.27452  0.69830  0.05087  1.0000
  H   H402      1.0  0.38935  0.71492  0.10513  1.0000
  H   H403      1.0  0.03621  0.72625  0.47503  1.0000
  C   C238      1.0  0.50341  0.63277  0.37992  1.0000
  C   C239      1.0  0.32621  0.60507  0.18184  1.0000
  C   C240      1.0  0.46635  0.57091  0.45926  1.0000
  H   H404      1.0  0.39877  0.52572  0.42880  1.0000
  H   H405      1.0  0.04720  0.73429  0.43461  1.0000
  H   H406      1.0  0.20389  0.55948  0.14939  1.0000
  C   C241      1.0  0.30804  0.66908  0.07183  1.0000
  C   C242      1.0  0.19537  0.51052  0.15335  1.0000
  C   C243      1.0  0.05895  0.75149  0.43485  1.0000
  C   C244      1.0  0.44672  0.65553  0.22709  1.0000
  H   H407      1.0  0.48318  0.55327  0.21747  1.0000
  C   C245      1.0  0.40395  0.51745  0.39139  1.0000
  H   H408      1.0  0.30588  0.70768  0.01688  1.0000
  H   H409      1.0  0.32636  0.64459  0.14102  1.0000
  H   H410      1.0  0.19573  0.56849  0.17640  1.0000
  N   N17       1.0  0.43594  0.53099  0.21490  1.0000
  H   H411      1.0  0.01225  0.59091  0.34740  1.0000
  H   H412      1.0  0.44330  0.53693  0.45762  1.0000
  H   H413      1.0  0.33135  0.60371  0.20122  1.0000
  C   C246      1.0  0.03665  0.53423  0.37664  1.0000
  C   C247      1.0  0.47416  0.54275  0.23316  1.0000
  C   C248      1.0  0.01391  0.64791  0.47053  1.0000
  H   H414      1.0  0.44958  0.71263  0.21574  1.0000
  H   H415      1.0  0.13375  0.52061  0.44096  1.0000
  H   H416      1.0  0.18426  0.61048  0.43347  1.0000
  C   C249      1.0  0.30298  0.69370  0.02920  1.0000
  H   H417      1.0  0.34631  0.54966  0.02654  1.0000
  H   H418      1.0  0.33486  0.71065  0.08567  1.0000
  C   C250      1.0  0.21797  0.55545  0.18397  1.0000
  H   H419      1.0  0.46190  0.67619  0.17551  1.0000
  C   C251      1.0  0.45149  0.54157  0.23621  1.0000
  C   C252      1.0  0.04074  0.54872  0.35338  1.0000
  H   H420      1.0  0.41689  0.54364  0.17223  1.0000
  H   H421      1.0  0.31101  0.66543  0.09130  1.0000
  H   H422      1.0  0.08574  0.71258  0.45195  1.0000
  H   H423      1.0  0.31308  0.73179  0.05258  1.0000
  H   H424      1.0  0.06607  0.71655  0.43537  1.0000
  C   C253      1.0  0.45181  0.65865  0.17361  1.0000
  C   C254      1.0  0.04370  0.71535  0.47870  1.0000
  C   C255      1.0  0.02798  0.57407  0.36865  1.0000
  H   H425      1.0  0.41974  0.65657  0.17351  1.0000
  H   H426      1.0  0.42142  0.63299  0.18288  1.0000
  C   C256      1.0  0.42925  0.65077  0.18548  1.0000
  C   C257      1.0  0.12927  0.58205  0.43943  1.0000
  H   H427      1.0  0.31876  0.69330  0.03001  1.0000
  H   H428      1.0  0.47838  0.57088  0.47306  1.0000
  N   N18       1.0  0.42845  0.65657  0.21260  1.0000
  N   N19       1.0  0.29557  0.69700  0.05464  1.0000
  H   H429      1.0  0.46051  0.64986  0.18139  1.0000
  H   H430      1.0  0.46274  0.66684  0.21978  1.0000
  C   C258      1.0  0.43058  0.73881  0.08317  1.0000
  H   H431      1.0  0.13735  0.59262  0.42331  1.0000
  C   C259      1.0  0.32577  0.56982  0.00144  1.0000
  C   C260      1.0  0.15905  0.54776  0.13648  1.0000
  C   C261      1.0  0.17116  0.53754  0.21650  1.0000
  H   H432      1.0  0.36405  0.56243  0.05212  1.0000
  H   H433      1.0  0.23098  0.65368  0.99822  1.0000
  C   C262      1.0  0.42837  0.67823  0.21466  1.0000
  C   C263      1.0  0.38672  0.63568  0.20946  1.0000
  H   H434      1.0  0.42424  0.68135  0.23386  1.0000
  H   H435      1.0  0.46755  0.60879  0.46938  1.0000
  C   C264      1.0  0.29180  0.67884  0.07249  1.0000
  H   H436      1.0  0.41548  0.54720  0.21594  1.0000
  H   H437      1.0  0.34257  0.61459  0.04592  1.0000
  N   N20       1.0  0.17773  0.53428  0.16953  1.0000
  H   H438      1.0  0.42901  0.58720  0.41472  1.0000
  C   C265      1.0  0.49533  0.57933  0.40714  1.0000
  H   H439      1.0  0.14699  0.55424  0.13553  1.0000
  H   H440      1.0  0.38999  0.71860  0.04006  1.0000
  H   H441      1.0  0.15646  0.54008  0.21499  1.0000
  H   H442      1.0  0.11307  0.54191  0.46296  1.0000
  H   H443      1.0  0.46241  0.66055  0.26340  1.0000
  H   H444      1.0  0.42974  0.57184  0.44096  1.0000
  H   H445      1.0  0.46944  0.54266  0.44500  1.0000
  H   H446      1.0  0.43382  0.64700  0.26533  1.0000
  C   C266      1.0  0.43252  0.71825  0.04562  1.0000
  H   H447      1.0  0.44763  0.67587  0.25943  1.0000
  C   C267      1.0  0.45702  0.54860  0.44644  1.0000
  C   C268      1.0  0.10961  0.58601  0.44526  1.0000
  C   C269      1.0  0.17805  0.51857  0.15018  1.0000
  C   C270      1.0  0.23096  0.59798  0.99393  1.0000
  H   H448      1.0  0.37256  0.70675  0.07745  1.0000
  H   H449      1.0  0.41970  0.74233  0.09547  1.0000
  H   H450      1.0  0.31810  0.59952  0.02815  1.0000
  C   C271      1.0  0.15620  0.60945  0.46792  1.0000
  H   H451      1.0  0.37391  0.68715  0.09797  1.0000
  C   C272      1.0  0.08225  0.72547  0.44393  1.0000
  H   H452      1.0  0.39513  0.68945  0.06036  1.0000
  H   H453      1.0  0.41516  0.53934  0.25960  1.0000
  C   C273      1.0  0.28734  0.67316  0.01506  1.0000
  C   C274      1.0  0.13601  0.51755  0.40116  1.0000
  H   H454      1.0  0.06398  0.57977  0.31875  1.0000
  C   C275      1.0  0.00867  0.51359  0.28786  1.0000
  H   H455      1.0  0.08447  0.51717  0.40420  1.0000
  H   H456      1.0  0.31696  0.56550  0.01957  1.0000
  H   H457      1.0  0.27649  0.71107  0.03707  1.0000
  H   H458      1.0  0.49244  0.64920  0.40641  1.0000
  H   H459      1.0  0.04050  0.70382  0.46306  1.0000
  H   H460      1.0  0.40549  0.75295  0.01699  1.0000
  H   H461      1.0  0.43971  0.54969  0.15303  1.0000
  C   C276      1.0  0.33467  0.61286  0.02744  1.0000
  H   H462      1.0  0.27362  0.67521  0.00684  1.0000
  H   H463      1.0  0.43838  0.73150  0.09558  1.0000
  H   H464      1.0  0.05198  0.59213  0.29918  1.0000
  H   H465      1.0  0.32678  0.55496  0.99521  1.0000
  H   H466      1.0  0.44527  0.53352  0.25432  1.0000
  H   H467      1.0  0.39968  0.74185  0.05953  1.0000
  H   H468      1.0  0.11098  0.73900  0.47960  1.0000
  S   S69       1.0  0.46876  0.51484  0.29005  1.0000
  C   C277      1.0  0.40560  0.52586  0.24676  1.0000
  H   H469      1.0  0.11506  0.73959  0.42829  1.0000
  H   H470      1.0  0.15729  0.50860  0.19417  1.0000
  H   H471      1.0  0.29590  0.67009  0.99918  1.0000
  H   H472      1.0  0.02343  0.60254  0.37630  1.0000
  N   N21       1.0  0.34811  0.58800  0.00535  1.0000
  H   H473      1.0  0.01714  0.57333  0.31742  1.0000
  C   C278      1.0  0.10543  0.75134  0.47473  1.0000
  N   N22       1.0  0.08269  0.74077  0.46428  1.0000
  H   H474      1.0  0.09783  0.75037  0.41493  1.0000
  H   H475      1.0  0.09929  0.57515  0.46000  1.0000
  H   H476      1.0  0.11449  0.60306  0.45020  1.0000
  H   H477      1.0  0.34469  0.73802  0.07689  1.0000
  H   H478      1.0  0.13820  0.50970  0.36265  1.0000
  C   C279      1.0  0.43301  0.50848  0.20953  1.0000
  H   H479      1.0  0.36520  0.62268  0.00897  1.0000
  C   C280      1.0  0.13442  0.57210  0.48302  1.0000
  H   H480      1.0  0.40289  0.65815  0.99142  1.0000
  H   H481      1.0  0.29832  0.57672  0.99309  1.0000
  C   C281      1.0  0.14636  0.61681  0.48967  1.0000
  C   C282      1.0  0.42592  0.61657  0.99037  1.0000
  Fe  Fe35      1.0  0.12499  0.68507  0.52844  1.0000
  S   S70       1.0  0.11196  0.70843  0.51823  1.0000
  S   S71       1.0  0.12950  0.68041  0.56938  1.0000
  H   H482      1.0  0.14021  0.63069  0.62637  1.0000
  H   H483      1.0  0.46249  0.66414  0.63799  1.0000
  H   H484      1.0  0.13700  0.66409  0.61590  1.0000
  Fe  Fe36      1.0  0.09137  0.55860  0.66770  1.0000
  S   S72       1.0  0.10829  0.54432  0.69207  1.0000
  S   S73       1.0  0.05760  0.55623  0.66871  1.0000
  Fe  Fe37      1.0  0.12998  0.58053  0.63288  1.0000
  S   S74       1.0  0.15011  0.56815  0.65422  1.0000
  S   S75       1.0  0.13875  0.59586  0.59473  1.0000
  Fe  Fe38      1.0  0.11993  0.53688  0.65546  1.0000
  C   C283      1.0  0.12331  0.51490  0.59558  1.0000
  Fe  Fe39      1.0  0.13731  0.57690  0.68907  1.0000
  S   S76       1.0  0.16172  0.59852  0.71835  1.0000
  S   S77       1.0  0.10076  0.54862  0.63182  1.0000
  S   S78       1.0  0.11937  0.59174  0.66711  1.0000
  Fe  Fe40      1.0  0.42809  0.52561  0.64127  1.0000
  S   S79       1.0  0.42866  0.55805  0.63800  1.0000
  C   C284      1.0  0.06310  0.62950  0.61532  1.0000
  Fe  Fe41      1.0  0.47455  0.54430  0.65880  1.0000
  S   S80       1.0  0.47879  0.57837  0.65667  1.0000
  H   H485      1.0  0.11485  0.53940  0.49600  1.0000
  Fe  Fe42      1.0  0.44620  0.56564  0.67502  1.0000
  S   S81       1.0  0.44007  0.58773  0.70245  1.0000
  Fe  Fe43      1.0  0.46109  0.56815  0.62018  1.0000
  S   S82       1.0  0.46824  0.58734  0.58423  1.0000
  S   S83       1.0  0.44319  0.53218  0.67985  1.0000
  S   S84       1.0  0.45924  0.53504  0.62082  1.0000
  Fe  Fe44      1.0  0.37570  0.60104  0.87185  1.0000
  S   S85       1.0  0.39407  0.63221  0.89227  1.0000
  S   S86       1.0  0.34026  0.58122  0.87880  1.0000
  Fe  Fe45      1.0  0.41577  0.60203  0.84604  1.0000
  S   S87       1.0  0.43780  0.63322  0.86523  1.0000
  S   S88       1.0  0.42477  0.58062  0.82063  1.0000
  Fe  Fe46      1.0  0.41807  0.61940  0.90028  1.0000
  S   S89       1.0  0.43012  0.61679  0.93927  1.0000
  Fe  Fe47      1.0  0.41188  0.64344  0.85599  1.0000
  S   S90       1.0  0.41434  0.67229  0.83436  1.0000
  S   S91       1.0  0.39840  0.58736  0.88183  1.0000
  S   S92       1.0  0.39115  0.61307  0.83483  1.0000
  H   H486      1.0  0.49628  0.60255  0.49210  1.0000
  H   H487      1.0  0.19072  0.58586  0.91754  1.0000
  Fe  Fe48      1.0  0.20907  0.61159  0.85541  1.0000
  S   S93       1.0  0.22697  0.59345  0.86949  1.0000
  S   S94       1.0  0.17708  0.59132  0.83530  1.0000
  Fe  Fe49      1.0  0.24374  0.65404  0.87638  1.0000
  S   S95       1.0  0.26405  0.63905  0.89152  1.0000
  S   S96       1.0  0.25662  0.68962  0.88299  1.0000
  Fe  Fe50      1.0  0.25648  0.62136  0.85500  1.0000
  S   S97       1.0  0.28187  0.61977  0.83016  1.0000
  Fe  Fe51      1.0  0.23273  0.61289  0.90503  1.0000
  S   S98       1.0  0.22970  0.59624  0.94254  1.0000
  S   S99       1.0  0.23837  0.63830  0.83863  1.0000
  S   S100      1.0  0.21259  0.62901  0.89222  1.0000
  C   C285      1.0  0.23101  0.60891  0.97180  1.0000
  H   H488      1.0  0.15257  0.60358  0.94112  1.0000
  H   H489      1.0  0.34422  0.58058  0.95038  1.0000
  H   H490      1.0  0.08729  0.64958  0.58799  1.0000
  H   H491      1.0  0.23114  0.63768  0.95664  1.0000
  H   H492      1.0  0.48470  0.59976  0.73134  1.0000
  C   C286      1.0  0.30882  0.70651  0.83855  1.0000
  C   C287      1.0  0.28819  0.69541  0.84888  1.0000
  C   C288      1.0  0.28246  0.70365  0.86993  1.0000
  C   C289      1.0  0.29756  0.72302  0.88070  1.0000
  H   H493      1.0  0.46176  0.60625  0.63027  1.0000
  H   H494      1.0  0.31305  0.70010  0.82214  1.0000
  H   H495      1.0  0.27666  0.68054  0.84042  1.0000
  H   H496      1.0  0.29320  0.72943  0.89702  1.0000
  H   H497      1.0  0.31299  0.66093  0.90244  1.0000
  C   C290      1.0  0.42378  0.69789  0.84826  1.0000
  C   C291      1.0  0.41828  0.71302  0.83706  1.0000
  C   C292      1.0  0.42449  0.73329  0.84811  1.0000
  C   C293      1.0  0.31071  0.57380  0.98284  1.0000
  C   C294      1.0  0.44299  0.72398  0.88086  1.0000
  C   C295      1.0  0.43610  0.70333  0.87027  1.0000
  H   H498      1.0  0.40883  0.70889  0.81999  1.0000
  H   H499      1.0  0.02955  0.60549  0.64765  1.0000
  C   C296      1.0  0.03481  0.53127  0.67322  1.0000
  H   H500      1.0  0.44047  0.69174  0.87894  1.0000
  C   C297      1.0  0.32429  0.59239  0.86564  1.0000
  C   C298      1.0  0.33145  0.60582  0.84478  1.0000
  C   C299      1.0  0.31827  0.61412  0.83396  1.0000
  C   C300      1.0  0.29816  0.60952  0.84438  1.0000
  C   C301      1.0  0.29115  0.59646  0.86555  1.0000
  C   C302      1.0  0.30408  0.58763  0.87594  1.0000
  H   H501      1.0  0.34707  0.60971  0.83684  1.0000
  H   H502      1.0  0.32377  0.62432  0.81766  1.0000
  H   H503      1.0  0.27562  0.59288  0.87366  1.0000
  H   H504      1.0  0.29851  0.57729  0.89211  1.0000
  C   C303      1.0  0.42260  0.62486  0.96764  1.0000
  H   H505      1.0  0.18679  0.55176  0.89929  1.0000
  H   H506      1.0  0.14167  0.55538  0.95070  1.0000
  H   H507      1.0  0.47733  0.57190  0.76237  1.0000
  H   H508      1.0  0.41148  0.64626  0.95083  1.0000
  H   H509      1.0  0.37303  0.70586  0.83866  1.0000
  C   C304      1.0  0.43548  0.58517  0.73525  1.0000
  C   C305      1.0  0.43426  0.56736  0.74864  1.0000
  C   C306      1.0  0.43115  0.56633  0.77476  1.0000
  C   C307      1.0  0.42896  0.58292  0.78776  1.0000
  C   C308      1.0  0.42983  0.60055  0.77429  1.0000
  C   C309      1.0  0.43318  0.60169  0.74822  1.0000
  H   H510      1.0  0.43563  0.55438  0.73887  1.0000
  H   H511      1.0  0.43030  0.55253  0.78497  1.0000
  H   H512      1.0  0.42813  0.61342  0.78400  1.0000
  H   H513      1.0  0.43403  0.61552  0.73808  1.0000
  H   H514      1.0  0.13914  0.60793  0.90521  1.0000
  H   H515      1.0  0.01737  0.57694  0.64743  1.0000
  H   H516      1.0  0.22322  0.58748  0.71330  1.0000
  H   H517      1.0  0.34383  0.69177  0.83891  1.0000
  H   H518      1.0  0.35428  0.66841  0.92249  1.0000
  H   H519      1.0  0.03520  0.58740  0.60783  1.0000
  H   H520      1.0  0.36343  0.58287  0.76502  1.0000
  H   H521      1.0  0.17728  0.56591  0.87901  1.0000
  C   C310      1.0  0.16489  0.59606  0.75103  1.0000
  C   C311      1.0  0.15279  0.57705  0.76421  1.0000
  C   C312      1.0  0.15663  0.57585  0.79000  1.0000
  C   C313      1.0  0.17270  0.59351  0.80283  1.0000
  C   C314      1.0  0.18463  0.61254  0.78968  1.0000
  C   C315      1.0  0.18073  0.61378  0.76398  1.0000
  H   H522      1.0  0.14053  0.56330  0.75452  1.0000
  H   H523      1.0  0.14714  0.56110  0.80000  1.0000
  H   H524      1.0  0.19669  0.62643  0.79936  1.0000
  H   H525      1.0  0.18997  0.62863  0.75405  1.0000
  H   H526      1.0  0.36322  0.57184  0.98389  1.0000
  H   H527      1.0  0.21459  0.56029  0.82027  1.0000
  N   N23       1.0  0.35320  0.54913  0.80489  1.0000
  C   C316      1.0  0.13316  0.65748  0.57630  1.0000
  C   C317      1.0  0.13243  0.64328  0.55735  1.0000
  C   C318      1.0  0.13443  0.62455  0.56330  1.0000
  C   C319      1.0  0.13694  0.61981  0.58820  1.0000
  C   C320      1.0  0.13789  0.63410  0.60717  1.0000
  C   C321      1.0  0.13615  0.65300  0.60120  1.0000
  H   H528      1.0  0.13029  0.64667  0.53809  1.0000
  H   H529      1.0  0.13375  0.61354  0.54862  1.0000
  C   C322      1.0  0.34457  0.64162  0.89700  1.0000
  H   H530      1.0  0.32795  0.63839  0.89172  1.0000
  H   H531      1.0  0.34343  0.63131  0.91334  1.0000
  H   H532      1.0  0.35184  0.63629  0.88167  1.0000
  H   H533      1.0  0.43202  0.62861  0.62685  1.0000
  H   H534      1.0  0.04146  0.59078  0.66503  1.0000
  H   H535      1.0  0.14638  0.57594  0.49856  1.0000
  H   H536      1.0  0.46171  0.50677  0.72103  1.0000
  C   C323      1.0  0.21029  0.75376  0.54839  1.0000
  C   C324      1.0  0.49779  0.61875  0.55474  1.0000
  C   C325      1.0  0.31850  0.55005  0.82212  1.0000
  C   C326      1.0  0.48893  0.58653  0.72646  1.0000
  H   H537      1.0  0.49899  0.67241  0.58445  1.0000
  H   H538      1.0  0.38813  0.53881  0.81889  1.0000
  H   H539      1.0  0.34288  0.61406  0.98877  1.0000
  H   H540      1.0  0.49901  0.62834  0.63676  1.0000
  H   H541      1.0  0.05614  0.63362  0.63186  1.0000
  H   H542      1.0  0.14815  0.57230  0.88175  1.0000
  H   H543      1.0  0.31704  0.66181  0.86887  1.0000
  H   H544      1.0  0.46123  0.64113  0.68791  1.0000
  H   H545      1.0  0.09709  0.65391  0.61997  1.0000
  C   C327      1.0  0.12393  0.54057  0.91765  1.0000
  H   H546      1.0  0.06597  0.62604  0.66731  1.0000
  H   H547      1.0  0.35724  0.55642  0.75208  1.0000
  S   S101      1.0  0.10467  0.65996  0.50038  1.0000
  H   H548      1.0  0.05171  0.51674  0.69363  1.0000
  H   H549      1.0  0.20310  0.72310  0.52856  1.0000
  H   H550      1.0  0.09463  0.64296  0.66373  1.0000
  C   C328      1.0  0.43611  0.61505  0.62392  1.0000
  H   H551      1.0  0.12430  0.54321  0.89728  1.0000
  C   C329      1.0  0.37352  0.53230  0.83067  1.0000
  H   H552      1.0  0.28007  0.62209  0.77087  1.0000
  H   H553      1.0  0.43785  0.61296  0.60358  1.0000
  H   H554      1.0  0.42229  0.60006  0.63048  1.0000
  H   H555      1.0  0.04846  0.57605  0.62697  1.0000
  H   H556      1.0  0.33427  0.53648  0.50648  1.0000
  H   H557      1.0  0.37558  0.66620  0.90622  1.0000
  H   H558      1.0  0.19664  0.58398  0.71915  1.0000
  H   H559      1.0  0.06842  0.73885  0.50084  1.0000
  H   H560      1.0  0.45564  0.66359  0.68345  1.0000
  H   H561      1.0  0.30867  0.67970  0.88283  1.0000
  H   H562      1.0  0.33548  0.56558  0.78963  1.0000
  C   C330      1.0  0.47870  0.54051  0.73195  1.0000
  H   H563      1.0  0.31871  0.50579  0.53383  1.0000
  H   H564      1.0  0.10662  0.53414  0.92276  1.0000
  C   C331      1.0  0.35922  0.66538  0.90367  1.0000
  C   C332      1.0  0.31912  0.67159  0.88594  1.0000
  H   H565      1.0  0.34519  0.65900  0.85511  1.0000
  C   C333      1.0  0.19984  0.71639  0.58328  1.0000
  C   C334      1.0  0.34004  0.56143  0.80803  1.0000
  H   H566      1.0  0.12522  0.52210  0.55625  1.0000
  C   C335      1.0  0.49521  0.63992  0.64764  1.0000
  C   C336      1.0  0.15249  0.58519  0.89601  1.0000
  N   N24       1.0  0.36008  0.68232  0.88531  1.0000
  C   C337      1.0  0.35945  0.67460  0.85876  1.0000
  C   C338      1.0  0.34243  0.68887  0.89032  1.0000
  H   H567      1.0  0.37361  0.67136  0.85520  1.0000
  H   H568      1.0  0.34293  0.69393  0.91012  1.0000
  C   C339      1.0  0.17277  0.59536  0.96453  1.0000
  C   C340      1.0  0.35887  0.68983  0.83813  1.0000
  H   H569      1.0  0.15843  0.54220  0.89540  1.0000
  C   C341      1.0  0.34064  0.52812  0.79119  1.0000
  H   H570      1.0  0.16709  0.73844  0.53698  1.0000
  H   H571      1.0  0.34979  0.57702  0.81780  1.0000
  C   C342      1.0  0.37288  0.56292  0.78957  1.0000
  H   H572      1.0  0.38354  0.57792  0.79987  1.0000
  H   H573      1.0  0.39485  0.69838  0.88290  1.0000
  H   H574      1.0  0.34488  0.70362  0.87974  1.0000
  C   C343      1.0  0.21351  0.57107  0.80558  1.0000
  H   H575      1.0  0.35906  0.68264  0.81961  1.0000
  C   C344      1.0  0.32383  0.50903  0.80637  1.0000
  C   C345      1.0  0.04604  0.59071  0.62440  1.0000
  H   H576      1.0  0.38295  0.55442  0.78613  1.0000
  H   H577      1.0  0.17016  0.71852  0.58709  1.0000
  C   C346      1.0  0.47937  0.64672  0.60991  1.0000
  C   C347      1.0  0.38145  0.70195  0.88896  1.0000
  H   H578      1.0  0.06551  0.57072  0.59509  1.0000
  C   C348      1.0  0.23118  0.62912  0.97350  1.0000
  C   C349      1.0  0.47046  0.65711  0.65067  1.0000
  C   C350      1.0  0.18302  0.72317  0.57272  1.0000
  H   H579      1.0  0.48194  0.54390  0.71172  1.0000
  C   C351      1.0  0.07645  0.60604  0.59588  1.0000
  H   H580      1.0  0.50131  0.68126  0.61633  1.0000
  H   H581      1.0  0.41980  0.74464  0.83950  1.0000
  H   H582      1.0  0.38253  0.71559  0.87723  1.0000
  Fe  Fe52      1.0  0.14048  0.72278  0.49189  1.0000
  H   H583      1.0  0.45199  0.61281  0.65761  1.0000
  H   H584      1.0  0.01672  0.58919  0.53106  1.0000
  H   H585      1.0  0.48050  0.63364  0.59892  1.0000
  H   H586      1.0  0.17941  0.61115  0.97440  1.0000
  H   H587      1.0  0.31878  0.58688  0.96927  1.0000
  C   C352      1.0  0.35932  0.59330  0.95843  1.0000
  H   H588      1.0  0.13174  0.59547  0.87532  1.0000
  H   H589      1.0  0.48711  0.51306  0.73522  1.0000
  C   C353      1.0  0.08171  0.62609  0.66411  1.0000
  N   N25       1.0  0.47522  0.64055  0.63715  1.0000
  C   C354      1.0  0.08293  0.65035  0.60778  1.0000
  H   H590      1.0  0.34851  0.53970  0.84428  1.0000
  H   H591      1.0  0.14895  0.61057  0.50783  1.0000
  H   H592      1.0  0.39358  0.52269  0.54887  1.0000
  H   H593      1.0  0.09087  0.58582  0.61159  1.0000
  H   H594      1.0  0.27668  0.50950  0.53100  1.0000
  H   H595      1.0  0.19153  0.69892  0.58780  1.0000
  H   H596      1.0  0.43274  0.60525  0.99015  1.0000
  H   H597      1.0  0.12922  0.52794  0.92164  1.0000
  H   H598      1.0  0.06580  0.60465  0.57960  1.0000
  H   H599      1.0  0.25024  0.57954  0.74335  1.0000
  S   S102      1.0  0.15396  0.70024  0.50384  1.0000
  C   C355      1.0  0.49441  0.60732  0.57723  1.0000
  H   H600      1.0  0.48094  0.54258  0.78207  1.0000
  C   C356      1.0  0.45675  0.61818  0.63816  1.0000
  H   H601      1.0  0.01338  0.54122  0.65399  1.0000
  N   N26       1.0  0.49677  0.55717  0.74756  1.0000
  H   H602      1.0  0.35190  0.52238  0.78283  1.0000
  H   H603      1.0  0.43882  0.63854  0.66879  1.0000
  H   H604      1.0  0.32035  0.54518  0.84131  1.0000
  H   H605      1.0  0.33013  0.74868  0.87929  1.0000
  H   H606      1.0  0.25449  0.60540  0.73408  1.0000
  C   C357      1.0  0.25318  0.59562  0.75088  1.0000
  H   H607      1.0  0.46322  0.54135  0.73534  1.0000
  H   H608      1.0  0.17585  0.56299  0.93639  1.0000
  H   H609      1.0  0.20794  0.56580  0.75087  1.0000
  C   C358      1.0  0.49471  0.63407  0.67543  1.0000
  H   H610      1.0  0.21316  0.58496  0.81541  1.0000
  H   H611      1.0  0.48468  0.61435  0.54143  1.0000
  C   C359      1.0  0.21347  0.59190  0.72644  1.0000
  C   C360      1.0  0.08067  0.58595  0.59562  1.0000
  H   H612      1.0  0.09991  0.62257  0.63383  1.0000
  H   H613      1.0  0.47546  0.57490  0.71485  1.0000
  H   H614      1.0  0.12469  0.53045  0.60116  1.0000
  H   H615      1.0  0.21851  0.60939  0.72584  1.0000
  H   H616      1.0  0.15478  0.63467  0.49106  1.0000
  C   C361      1.0  0.49712  0.54831  0.77318  1.0000
  H   H617      1.0  0.22393  0.61256  0.79001  1.0000
  S   S103      1.0  0.34977  0.73885  0.83621  1.0000
  C   C362      1.0  0.21367  0.58351  0.75306  1.0000
  H   H618      1.0  0.14194  0.74865  0.55766  1.0000
  H   H619      1.0  0.25222  0.63388  0.74473  1.0000
  C   C363      1.0  0.36143  0.54639  0.83017  1.0000
  H   H620      1.0  0.18595  0.59046  0.96405  1.0000
  H   H621      1.0  0.08513  0.61876  0.68098  1.0000
  H   H622      1.0  0.50386  0.59376  0.71517  1.0000
  H   H623      1.0  0.37258  0.56240  0.83816  1.0000
  N   N27       1.0  0.23474  0.59344  0.76746  1.0000
  C   C364      1.0  0.01471  0.52828  0.66380  1.0000
  C   C365      1.0  0.20671  0.74003  0.52453  1.0000
  C   C366      1.0  0.23326  0.57810  0.78824  1.0000
  H   H624      1.0  0.33189  0.53061  0.77497  1.0000
  H   H625      1.0  0.41002  0.52521  0.59079  1.0000
  H   H626      1.0  0.48576  0.67106  0.65663  1.0000
  H   H627      1.0  0.20077  0.58533  0.76360  1.0000
  C   C367      1.0  0.13448  0.59249  0.89514  1.0000
  H   H628      1.0  0.31141  0.56152  0.82417  1.0000
  C   C368      1.0  0.15362  0.74561  0.56930  1.0000
  C   C369      1.0  0.16520  0.59806  0.93812  1.0000
  C   C370      1.0  0.08310  0.61355  0.64076  1.0000
  C   C371      1.0  0.02760  0.65525  0.51279  1.0000
  H   H629      1.0  0.25123  0.61969  0.79384  1.0000
  C   C372      1.0  0.45579  0.64940  0.67395  1.0000
  H   H630      1.0  0.05074  0.62590  0.60031  1.0000
  C   C373      1.0  0.36877  0.57002  0.76356  1.0000
  H   H631      1.0  0.28804  0.60761  0.74898  1.0000
  H   H632      1.0  0.22851  0.63515  0.75681  1.0000
  C   C374      1.0  0.23836  0.61454  0.77928  1.0000
  H   H633      1.0  0.19799  0.56186  0.79556  1.0000
  H   H634      1.0  0.22485  0.75449  0.55813  1.0000
  C   C375      1.0  0.49979  0.66771  0.60413  1.0000
  C   C376      1.0  0.24348  0.63392  0.76190  1.0000
  H   H635      1.0  0.25435  0.64896  0.77193  1.0000
  C   C377      1.0  0.27575  0.60578  0.76327  1.0000
  H   H636      1.0  0.11894  0.57998  0.90230  1.0000
  H   H637      1.0  0.27725  0.59548  0.77823  1.0000
  C   C378      1.0  0.38647  0.50931  0.56167  1.0000
  H   H638      1.0  0.37548  0.71637  0.92332  1.0000
  C   C379      1.0  0.17384  0.55694  0.89689  1.0000
  H   H639      1.0  0.09230  0.61979  0.59155  1.0000
  H   H640      1.0  0.30649  0.53617  0.81141  1.0000
  H   H641      1.0  0.23308  0.56309  0.78048  1.0000
  H   H642      1.0  0.07903  0.66421  0.60921  1.0000
  H   H643      1.0  0.38847  0.69909  0.92893  1.0000
  H   H644      1.0  0.45268  0.72827  0.89775  1.0000
  H   H645      1.0  0.08970  0.58619  0.57840  1.0000
  H   H646      1.0  0.35977  0.60941  0.95681  1.0000
  C   C380      1.0  0.41391  0.63961  0.96816  1.0000
  H   H647      1.0  0.50019  0.53392  0.77212  1.0000
  H   H648      1.0  0.04092  0.66257  0.52581  1.0000
  H   H649      1.0  0.17899  0.61188  0.92932  1.0000
  C   C381      1.0  0.31845  0.73389  0.87071  1.0000
  H   H650      1.0  0.49576  0.64746  0.68763  1.0000
  H   H651      1.0  0.24763  0.58527  0.80077  1.0000
  H   H652      1.0  0.37261  0.59380  0.94637  1.0000
  H   H653      1.0  0.16737  0.59861  0.88848  1.0000
  C   C382      1.0  0.13721  0.56109  0.93318  1.0000
  H   H654      1.0  0.20738  0.72507  0.60081  1.0000
  C   C383      1.0  0.31658  0.52614  0.50499  1.0000
  H   H655      1.0  0.30155  0.55891  0.97167  1.0000
  H   H656      1.0  0.15928  0.58387  0.97604  1.0000
  H   H657      1.0  0.12601  0.56760  0.93975  1.0000
  C   C384      1.0  0.32402  0.72563  0.84955  1.0000
  H   H658      1.0  0.48051  0.61892  0.68038  1.0000
  H   H659      1.0  0.46562  0.64867  0.60149  1.0000
  C   C385      1.0  0.43698  0.73891  0.86993  1.0000
  C   C386      1.0  0.38708  0.71083  0.91592  1.0000
  H   H660      1.0  0.08179  0.59780  0.64725  1.0000
  H   H661      1.0  0.40316  0.72513  0.91576  1.0000
  H   H662      1.0  0.21259  0.71857  0.56957  1.0000
  N   N28       1.0  0.15704  0.57842  0.92128  1.0000
  N   N29       1.0  0.06725  0.61018  0.61975  1.0000
  C   C387      1.0  0.03319  0.59150  0.64749  1.0000
  H   H663      1.0  0.18601  0.75356  0.60420  1.0000
  C   C388      1.0  0.49209  0.57634  0.75083  1.0000
  H   H664      1.0  0.30856  0.53392  0.51621  1.0000
  N   N30       1.0  0.19137  0.74662  0.56595  1.0000
  H   H665      1.0  0.22170  0.74698  0.51324  1.0000
  C   C389      1.0  0.03634  0.51443  0.68595  1.0000
  C   C390      1.0  0.39578  0.51078  0.58544  1.0000
  C   C391      1.0  0.17480  0.57148  0.91918  1.0000
  H   H666      1.0  0.17512  0.71262  0.55633  1.0000
  H   H667      1.0  0.38427  0.57720  0.75317  1.0000
  C   C392      1.0  0.12365  0.51015  0.57008  1.0000
  H   H668      1.0  0.19378  0.74039  0.51261  1.0000
  C   C393      1.0  0.47306  0.51654  0.73602  1.0000
  H   H669      1.0  0.05634  0.51774  0.63690  1.0000
  H   H670      1.0  0.37915  0.53203  0.85009  1.0000
  H   H671      1.0  0.46465  0.51071  0.75409  1.0000
  H   H672      1.0  0.32250  0.51253  0.82626  1.0000
  C   C394      1.0  0.00616  0.64431  0.52171  1.0000
  H   H673      1.0  0.03559  0.51642  0.61623  1.0000
  H   H674      1.0  0.14510  0.72864  0.57556  1.0000
  H   H675      1.0  0.05844  0.51427  0.60361  1.0000
  C   C395      1.0  0.04730  0.50981  0.61974  1.0000
  C   C396      1.0  0.36333  0.58789  0.98528  1.0000
  H   H676      1.0  0.36303  0.51541  0.82515  1.0000
  C   C397      1.0  0.17347  0.74961  0.55315  1.0000
  H   H677      1.0  0.07331  0.71649  0.49311  1.0000
  H   H678      1.0  0.03524  0.70545  0.49514  1.0000
  H   H679      1.0  0.38017  0.59940  0.99024  1.0000
  H   H680      1.0  0.31080  0.75380  0.81741  1.0000
  H   H681      1.0  0.12143  0.57568  0.49049  1.0000
  Fe  Fe53      1.0  0.41000  0.79721  0.09031  1.0000
  S   S104      1.0  0.43400  0.80790  0.12221  1.0000
  S   S105      1.0  0.42362  0.80064  0.05091  1.0000
  H   H682      1.0  0.35506  0.82865  0.23016  1.0000
  S   S106      1.0  0.39302  0.78362  0.16050  1.0000
  Fe  Fe54      1.0  0.41095  0.81654  0.14362  1.0000
  S   S107      1.0  0.41874  0.84741  0.16621  1.0000
  H   H683      1.0  0.47245  0.81216  0.33152  1.0000
  S   S108      1.0  0.38880  0.80929  0.11000  1.0000
  H   H684      1.0  0.33833  0.78773  0.22768  1.0000
  S   S109      1.0  0.31051  0.88928  0.46971  1.0000
  S   S110      1.0  0.36434  0.88045  0.46654  1.0000
  Fe  Fe55      1.0  0.42646  0.91288  0.34597  1.0000
  S   S111      1.0  0.44229  0.92153  0.30792  1.0000
  S   S112      1.0  0.39698  0.91661  0.35789  1.0000
  Fe  Fe56      1.0  0.45830  0.89800  0.36625  1.0000
  S   S113      1.0  0.47673  0.90537  0.33052  1.0000
  S   S114      1.0  0.46494  0.88225  0.39993  1.0000
  Fe  Fe57      1.0  0.47318  0.93599  0.33041  1.0000
  H   H685      1.0  0.37911  0.83257  0.21431  1.0000
  Fe  Fe58      1.0  0.44468  0.89015  0.31066  1.0000
  S   S115      1.0  0.44132  0.86363  0.28284  1.0000
  S   S116      1.0  0.45722  0.92977  0.36797  1.0000
  S   S117      1.0  0.42633  0.88051  0.34684  1.0000
  C   C398      1.0  0.37306  0.89090  0.43641  1.0000
  C   C399      1.0  0.39163  0.89041  0.42679  1.0000
  C   C400      1.0  0.39903  0.89831  0.40278  1.0000
  C   C401      1.0  0.38781  0.90665  0.38809  1.0000
  C   C402      1.0  0.36914  0.90709  0.39764  1.0000
  C   C403      1.0  0.36176  0.89923  0.42177  1.0000
  H   H686      1.0  0.40041  0.88389  0.43793  1.0000
  H   H687      1.0  0.41343  0.89787  0.39563  1.0000
  H   H688      1.0  0.36033  0.91341  0.38628  1.0000
  H   H689      1.0  0.34723  0.89938  0.42888  1.0000
  H   H690      1.0  0.48410  0.87113  0.44176  1.0000
  H   H691      1.0  0.46059  0.75966  0.06314  1.0000
  Fe  Fe59      1.0  0.37217  0.77599  0.12607  1.0000
  C   C404      1.0  0.42412  0.85116  0.19887  1.0000
  C   C405      1.0  0.42846  0.83668  0.21317  1.0000
  C   C406      1.0  0.43344  0.84069  0.23884  1.0000
  C   C407      1.0  0.43395  0.85908  0.25064  1.0000
  C   C408      1.0  0.42895  0.87324  0.23652  1.0000
  C   C409      1.0  0.42422  0.86935  0.21075  1.0000
  H   H692      1.0  0.42848  0.82264  0.20432  1.0000
  H   H693      1.0  0.43717  0.82957  0.24956  1.0000
  H   H694      1.0  0.42887  0.88721  0.24541  1.0000
  H   H695      1.0  0.42058  0.88046  0.19988  1.0000
  C   C410      1.0  0.38921  0.79600  0.02015  1.0000
  C   C411      1.0  0.41027  0.79821  0.02179  1.0000
  H   H696      1.0  0.34769  0.85993  0.39087  1.0000
  H   H697      1.0  0.38054  0.79572  0.03703  1.0000
  C   C412      1.0  0.47745  0.92484  0.24884  1.0000
  H   H698      1.0  0.04948  0.76065  0.43813  1.0000
  C   C413      1.0  0.45297  0.93459  0.20687  1.0000
  H   H699      1.0  0.36341  0.79348  0.99542  1.0000
  Fe  Fe60      1.0  0.41442  0.77455  0.13682  1.0000
  C   C414      1.0  0.35286  0.94526  0.43871  1.0000
  H   H700      1.0  0.48225  0.92148  0.19266  1.0000
  H   H701      1.0  0.40424  0.94294  0.47617  1.0000
  C   C415      1.0  0.36946  0.94615  0.45853  1.0000
  H   H702      1.0  0.49149  0.87555  0.35948  1.0000
  C   C416      1.0  0.44819  0.76091  0.07512  1.0000
  H   H703      1.0  0.34789  0.83312  0.15524  1.0000
  H   H704      1.0  0.30105  0.86216  0.41207  1.0000
  H   H705      1.0  0.46704  0.83194  0.31599  1.0000
  S   S118      1.0  0.32210  0.94780  0.48855  1.0000
  H   H706      1.0  0.43853  0.82527  0.34002  1.0000
  H   H707      1.0  0.28569  0.76786  0.41745  1.0000
  H   H708      1.0  0.35451  0.79389  0.16387  1.0000
  H   H709      1.0  0.28278  0.77962  0.44593  1.0000
  H   H710      1.0  0.39926  0.93943  0.43238  1.0000
  C   C417      1.0  0.34524  0.99171  0.48011  1.0000
  Fe  Fe61      1.0  0.33786  0.88485  0.48651  1.0000
  H   H711      1.0  0.49062  0.82182  0.29171  1.0000
  H   H712      1.0  0.47018  0.84609  0.38342  1.0000
  S   S119      1.0  0.39163  0.76336  0.10417  1.0000
  H   H713      1.0  0.44717  0.91744  0.21178  1.0000
  H   H714      1.0  0.35068  0.96015  0.43897  1.0000
  H   H715      1.0  0.35643  0.94163  0.41964  1.0000
  H   H716      1.0  0.33417  0.83011  0.46879  1.0000
  H   H717      1.0  0.31904  0.80512  0.21219  1.0000
  H   H718      1.0  0.45597  0.94898  0.24329  1.0000
  H   H719      1.0  0.23694  0.78743  0.46619  1.0000
  C   C418      1.0  0.37954  0.79474  0.99653  1.0000
  C   C419      1.0  0.49693  0.88367  0.43138  1.0000
  N   N31       1.0  0.30463  0.82353  0.42705  1.0000
  C   C420      1.0  0.28653  0.82643  0.41455  1.0000
  C   C421      1.0  0.30415  0.80276  0.41785  1.0000
  C   C422      1.0  0.32630  0.84181  0.42091  1.0000
  C   C423      1.0  0.30152  0.82312  0.45494  1.0000
  C   C424      1.0  0.28630  0.84833  0.41892  1.0000
  H   H720      1.0  0.36912  0.77713  0.22664  1.0000
  C   C425      1.0  0.33136  0.84623  0.39284  1.0000
  C   C426      1.0  0.50255  0.83883  0.36437  1.0000
  H   H721      1.0  0.28644  0.82387  0.39400  1.0000
  H   H722      1.0  0.27058  0.81408  0.42121  1.0000
  H   H723      1.0  0.31882  0.80131  0.42405  1.0000
  H   H724      1.0  0.30460  0.80248  0.39707  1.0000
  H   H725      1.0  0.32818  0.85702  0.42991  1.0000
  H   H726      1.0  0.33964  0.83890  0.42885  1.0000
  H   H727      1.0  0.30336  0.83901  0.46171  1.0000
  H   H728      1.0  0.28477  0.81143  0.46002  1.0000
  H   H729      1.0  0.27243  0.84848  0.40856  1.0000
  H   H730      1.0  0.28381  0.85083  0.43885  1.0000
  H   H731      1.0  0.45660  0.77013  0.09212  1.0000
  H   H732      1.0  0.33439  0.98877  0.46439  1.0000
  H   H733      1.0  0.43194  0.75906  0.02785  1.0000
  H   H734      1.0  0.38556  0.98710  0.46951  1.0000
  S   S120      1.0  0.43280  0.75624  0.14842  1.0000
  C   C427      1.0  0.36488  0.85151  0.19994  1.0000
  H   H735      1.0  0.09149  0.77146  0.44641  1.0000
  H   H736      1.0  0.36349  0.94960  0.47635  1.0000
  C   C428      1.0  0.42133  0.79865  0.99962  1.0000
  H   H737      1.0  0.50323  0.84982  0.29862  1.0000
  N   N32       1.0  0.39268  0.96208  0.45429  1.0000
  C   C429      1.0  0.48802  0.99409  0.31280  1.0000
  C   C430      1.0  0.40065  0.95603  0.43072  1.0000
  H   H738      1.0  0.33188  0.83236  0.38310  1.0000
  C   C431      1.0  0.39532  0.98490  0.45427  1.0000
  C   C432      1.0  0.35678  0.82389  0.15023  1.0000
  C   C433      1.0  0.42421  0.97091  0.42344  1.0000
  C   C434      1.0  0.46643  0.83633  0.36597  1.0000
  C   C435      1.0  0.31718  0.81779  0.47082  1.0000
  C   C436      1.0  0.49192  0.89254  0.41021  1.0000
  C   C437      1.0  0.37090  0.79320  0.22082  1.0000
  C   C438      1.0  0.49866  0.93019  0.20066  1.0000
  C   C439      1.0  0.20390  0.77485  0.47881  1.0000
  H   H739      1.0  0.31771  0.78572  0.15944  1.0000
  H   H740      1.0  0.26899  0.78135  0.41782  1.0000
  H   H741      1.0  0.39063  0.95506  0.41419  1.0000
  H   H742      1.0  0.11709  0.76179  0.46052  1.0000
  H   H743      1.0  0.49700  0.84323  0.40416  1.0000
  H   H744      1.0  0.48474  0.86856  0.32754  1.0000
  S   S121      1.0  0.33579  0.76039  0.12748  1.0000
  H   H745      1.0  0.29544  0.78572  0.17613  1.0000
  H   H746      1.0  0.48558  0.96045  0.27345  1.0000
  C   C440      1.0  0.36226  0.83009  0.21124  1.0000
  H   H747      1.0  0.46397  0.92214  0.26180  1.0000
  C   C441      1.0  0.36008  0.81047  0.17147  1.0000
  H   H748      1.0  0.34932  0.85176  0.19578  1.0000
  H   H749      1.0  0.49602  0.82124  0.36816  1.0000
  H   H750      1.0  0.43587  0.96862  0.43588  1.0000
  C   C442      1.0  0.46692  0.95007  0.22751  1.0000
  C   C443      1.0  0.38939  0.99311  0.42990  1.0000
  N   N33       1.0  0.48629  0.84334  0.34984  1.0000
  H   H751      1.0  0.37768  0.81642  0.17411  1.0000
  H   H752      1.0  0.47238  0.96645  0.21954  1.0000
  H   H753      1.0  0.37634  0.80383  0.23757  1.0000
  H   H754      1.0  0.34829  0.81323  0.13415  1.0000
  H   H755      1.0  0.32518  0.81999  0.18453  1.0000
  C   C444      1.0  0.47973  0.82958  0.32652  1.0000
  H   H756      1.0  0.06600  0.75631  0.41593  1.0000
  H   H757      1.0  0.47225  0.98037  0.31252  1.0000
  N   N34       1.0  0.34952  0.80983  0.19624  1.0000
  H   H758      1.0  0.45146  0.85411  0.34559  1.0000
  H   H759      1.0  0.43763  0.80039  0.00067  1.0000
  H   H760      1.0  0.34188  0.77593  0.19965  1.0000
  H   H761      1.0  0.31994  0.85094  0.38316  1.0000
  H   H762      1.0  0.36798  0.92956  0.46050  1.0000
  C   C445      1.0  0.34897  0.79101  0.21103  1.0000
  H   H763      1.0  0.37786  0.99978  0.43431  1.0000
  H   H764      1.0  0.47028  0.91171  0.23481  1.0000
  H   H765      1.0  0.42770  0.98812  0.42311  1.0000
  H   H766      1.0  0.37277  0.83572  0.14314  1.0000
  H   H767      1.0  0.37535  0.85583  0.18319  1.0000
  H   H768      1.0  0.43497  0.83610  0.36892  1.0000
  H   H769      1.0  0.31594  0.80165  0.46654  1.0000
  C   C446      1.0  0.49419  0.92053  0.26386  1.0000
  H   H770      1.0  0.37342  0.86459  0.21378  1.0000
  C   C447      1.0  0.28417  0.78193  0.42541  1.0000
  C   C448      1.0  0.44692  0.83813  0.35409  1.0000
  H   H771      1.0  0.46071  0.81934  0.37217  1.0000
  C   C449      1.0  0.32645  0.80625  0.19345  1.0000
  H   H772      1.0  0.43836  0.93712  0.20392  1.0000
  H   H773      1.0  0.48760  0.90296  0.26752  1.0000
  H   H774      1.0  0.07235  0.76558  0.47080  1.0000
  H   H775      1.0  0.38369  0.79942  0.20651  1.0000
  C   C450      1.0  0.50192  0.95014  0.21645  1.0000
  H   H776      1.0  0.46160  0.93819  0.18877  1.0000
  H   H777      1.0  0.42324  0.97050  0.47319  1.0000
  H   H778      1.0  0.33689  0.93200  0.44359  1.0000
  H   H779      1.0  0.30874  0.77088  0.18831  1.0000
  C   C451      1.0  0.31149  0.78594  0.17846  1.0000
  N   N35       1.0  0.48582  0.94682  0.23701  1.0000
  C   C452      1.0  0.49428  0.86685  0.34345  1.0000
  H   H780      1.0  0.49736  0.92871  0.28235  1.0000
  H   H781      1.0  0.42709  0.96650  0.40429  1.0000
  C   C453      1.0  0.40578  0.95966  0.47567  1.0000
  C   C454      1.0  0.07701  0.75815  0.45491  1.0000
  H   H782      1.0  0.38180  0.98093  0.41508  1.0000
  H   H783      1.0  0.19882  0.75950  0.46944  1.0000
  C   C455      1.0  0.23274  0.81126  0.48839  1.0000
  S   S122      1.0  0.26034  0.83115  0.48419  1.0000
  H   H784      1.0  0.50238  0.91866  0.21155  1.0000
  C   C456      1.0  0.22561  0.79084  0.47691  1.0000
  C   C457      1.0  0.49755  0.83368  0.30721  1.0000
  H   H785      1.0  0.41233  0.99643  0.45888  1.0000
  H   H786      1.0  0.50240  0.96269  0.20316  1.0000
  H   H787      1.0  0.44114  0.77056  0.06583  1.0000
  C   C458      1.0  0.49666  0.96344  0.25728  1.0000
  H   H788      1.0  0.49104  0.99162  0.24850  1.0000
  H   H789      1.0  0.46952  0.85681  0.82129  1.0000
  Fe  Fe62      1.0  0.46444  0.89630  0.63534  1.0000
  S   S123      1.0  0.47989  0.89786  0.67277  1.0000
  C   C459      1.0  0.45951  0.79510  0.81731  1.0000
  Fe  Fe63      1.0  0.43439  0.91413  0.65584  1.0000
  S   S124      1.0  0.44734  0.91736  0.69529  1.0000
  S   S125      1.0  0.41358  0.92883  0.63994  1.0000
  Fe  Fe64      1.0  0.47989  0.93022  0.67688  1.0000
  H   H790      1.0  0.31294  0.81759  0.49084  1.0000
  Fe  Fe65      1.0  0.44620  0.88461  0.68876  1.0000
  S   S126      1.0  0.43367  0.85486  0.71429  1.0000
  S   S127      1.0  0.46715  0.92951  0.63842  1.0000
  S   S128      1.0  0.43064  0.88057  0.65044  1.0000
  Fe  Fe66      1.0  0.42030  0.77687  0.87836  1.0000
  S   S129      1.0  0.31607  0.85857  0.51169  1.0000
  Fe  Fe67      1.0  0.41004  0.81158  0.85582  1.0000
  S   S130      1.0  0.37632  0.79630  0.87152  1.0000
  S   S131      1.0  0.42347  0.84274  0.83300  1.0000
  Fe  Fe68      1.0  0.39126  0.79126  0.90710  1.0000
  S   S132      1.0  0.37808  0.79451  0.94505  1.0000
  H   H791      1.0  0.19171  0.78738  0.57963  1.0000
  S   S133      1.0  0.42512  0.80923  0.89261  1.0000
  S   S134      1.0  0.40798  0.78058  0.84083  1.0000
  Fe  Fe69      1.0  0.32200  0.88461  0.53965  1.0000
  S   S135      1.0  0.29333  0.88935  0.52657  1.0000
  S   S136      1.0  0.32748  0.87469  0.57828  1.0000
  H   H792      1.0  0.34741  0.78158  0.75979  1.0000
  H   H793      1.0  0.38316  0.00283  0.53720  1.0000
  H   H794      1.0  0.30576  0.76987  0.79472  1.0000
  H   H795      1.0  0.38159  0.78483  0.79917  1.0000
  C   C460      1.0  0.35710  0.97851  0.51576  1.0000
  H   H796      1.0  0.48951  0.88617  0.54899  1.0000
  C   C461      1.0  0.49278  0.98694  0.67534  1.0000
  H   H797      1.0  0.44919  0.90489  0.56346  1.0000
  C   C462      1.0  0.39068  0.79539  0.97434  1.0000
  H   H798      1.0  0.38418  0.95318  0.50839  1.0000
  C   C463      1.0  0.41157  0.79711  0.97603  1.0000
  H   H799      1.0  0.48824  0.86218  0.87429  1.0000
  H   H800      1.0  0.42036  0.79769  0.95914  1.0000
  N   N36       1.0  0.41453  0.88590  0.55884  1.0000
  N   N37       1.0  0.48429  0.83549  0.82836  1.0000
  Fe  Fe70      1.0  0.31788  0.91420  0.50054  1.0000
  C   C464      1.0  0.38988  0.91344  0.62258  1.0000
  C   C465      1.0  0.37750  0.89144  0.62695  1.0000
  C   C466      1.0  0.35831  0.87980  0.61336  1.0000
  C   C467      1.0  0.35166  0.88992  0.59486  1.0000
  C   C468      1.0  0.36419  0.91187  0.59022  1.0000
  C   C469      1.0  0.38308  0.92364  0.60431  1.0000
  H   H801      1.0  0.38246  0.88352  0.64122  1.0000
  H   H802      1.0  0.34855  0.86288  0.61719  1.0000
  H   H803      1.0  0.35903  0.91986  0.57626  1.0000
  H   H804      1.0  0.39244  0.94072  0.60109  1.0000
  C   C470      1.0  0.43154  0.85212  0.74742  1.0000
  C   C471      1.0  0.42448  0.83148  0.75792  1.0000
  C   C472      1.0  0.42224  0.82837  0.78400  1.0000
  C   C473      1.0  0.42678  0.84587  0.80000  1.0000
  C   C474      1.0  0.43399  0.86652  0.78958  1.0000
  C   C475      1.0  0.43640  0.86967  0.76347  1.0000
  H   H805      1.0  0.42079  0.81780  0.74571  1.0000
  H   H806      1.0  0.41706  0.81246  0.79170  1.0000
  H   H807      1.0  0.43759  0.88021  0.80173  1.0000
  H   H808      1.0  0.44182  0.88564  0.75574  1.0000
  H   H809      1.0  0.40520  0.85447  0.54151  1.0000
  H   H810      1.0  0.44059  0.89114  0.51255  1.0000
  H   H811      1.0  0.43761  0.91453  0.53984  1.0000
  H   H812      1.0  0.42295  0.86438  0.50292  1.0000
  C   C476      1.0  0.47486  0.85804  0.86062  1.0000
  C   C477      1.0  0.31824  0.76536  0.80187  1.0000
  H   H813      1.0  0.37281  0.80442  0.76199  1.0000
  H   H814      1.0  0.32552  0.79733  0.76724  1.0000
  C   C478      1.0  0.50217  0.89038  0.56287  1.0000
  C   C479      1.0  0.48180  0.85567  0.83387  1.0000
  H   H815      1.0  0.37541  0.87113  0.51872  1.0000
  H   H816      1.0  0.44904  0.94025  0.57266  1.0000
  H   H817      1.0  0.37404  0.85406  0.54480  1.0000
  C   C480      1.0  0.20517  0.78426  0.58649  1.0000
  S   S137      1.0  0.38758  0.75874  0.89527  1.0000
  H   H818      1.0  0.40078  0.90226  0.53574  1.0000
  S   S138      1.0  0.34639  0.91055  0.51576  1.0000
  C   C481      1.0  0.37280  0.99981  0.52100  1.0000
  N   N38       1.0  0.35143  0.80144  0.79284  1.0000
  C   C482      1.0  0.19864  0.75999  0.58949  1.0000
  C   C483      1.0  0.43465  0.90721  0.55877  1.0000
  H   H819      1.0  0.39279  0.84223  0.57871  1.0000
  H   H820      1.0  0.10250  0.75590  0.51509  1.0000
  H   H821      1.0  0.40919  0.88860  0.59834  1.0000
  H   H822      1.0  0.43622  0.92097  0.59637  1.0000
  H   H823      1.0  0.38195  0.83075  0.79252  1.0000
  C   C484      1.0  0.36470  0.83237  0.82563  1.0000
  H   H824      1.0  0.35981  0.82740  0.74912  1.0000
  H   H825      1.0  0.47430  0.79480  0.81024  1.0000
  H   H826      1.0  0.35550  0.96546  0.52793  1.0000
  H   H827      1.0  0.47029  0.87150  0.86102  1.0000
  H   H828      1.0  0.37845  0.84874  0.82724  1.0000
  H   H829      1.0  0.49087  0.79962  0.84981  1.0000
  C   C485      1.0  0.47960  0.83993  0.78112  1.0000
  H   H830      1.0  0.17956  0.76603  0.54504  1.0000
  H   H831      1.0  0.49364  0.83327  0.86659  1.0000
  H   H832      1.0  0.41203  0.96369  0.51570  1.0000
  C   C486      1.0  0.37575  0.87008  0.53940  1.0000
  H   H833      1.0  0.21501  0.77047  0.54174  1.0000
  C   C487      1.0  0.34961  0.83001  0.76337  1.0000
  H   H834      1.0  0.45818  0.81228  0.85049  1.0000
  Fe  Fe71      1.0  0.37547  0.76510  0.85896  1.0000
  C   C488      1.0  0.34296  0.97430  0.49543  1.0000
  C   C489      1.0  0.41882  0.87083  0.54191  1.0000
  C   C490      1.0  0.39210  0.85536  0.58985  1.0000
  H   H835      1.0  0.10241  0.77745  0.49580  1.0000
  H   H836      1.0  0.42023  0.92755  0.57420  1.0000
  H   H837      1.0  0.39236  0.85108  0.60981  1.0000
  Fe  Fe72      1.0  0.28841  0.86400  0.49698  1.0000
  H   H838      1.0  0.38979  0.89609  0.56619  1.0000
  H   H839      1.0  0.36084  0.87082  0.54580  1.0000
  H   H840      1.0  0.18437  0.80302  0.51373  1.0000
  C   C491      1.0  0.33745  0.80991  0.77974  1.0000
  H   H841      1.0  0.46053  0.84347  0.86673  1.0000
  C   C492      1.0  0.36017  0.79160  0.77342  1.0000
  H   H842      1.0  0.32735  0.81359  0.79323  1.0000
  H   H843      1.0  0.45235  0.78151  0.83067  1.0000
  H   H844      1.0  0.37999  0.81269  0.81613  1.0000
  H   H845      1.0  0.44971  0.82013  0.82278  1.0000
  C   C493      1.0  0.43470  0.92478  0.57658  1.0000
  H   H846      1.0  0.35057  0.83499  0.82060  1.0000
  H   H847      1.0  0.34819  0.77923  0.82287  1.0000
  C   C494      1.0  0.46250  0.81622  0.83047  1.0000
  S   S139      1.0  0.44504  0.76447  0.88363  1.0000
  H   H848      1.0  0.33768  0.83377  0.75321  1.0000
  H   H849      1.0  0.44774  0.79111  0.80165  1.0000
  C   C495      1.0  0.42389  0.87812  0.51446  1.0000
  H   H850      1.0  0.21001  0.79224  0.60506  1.0000
  H   H851      1.0  0.43270  0.86840  0.54927  1.0000
  H   H852      1.0  0.15771  0.75661  0.58561  1.0000
  H   H853      1.0  0.42617  0.87623  0.59179  1.0000
  C   C496      1.0  0.39560  0.88961  0.55044  1.0000
  C   C497      1.0  0.37036  0.77735  0.78340  1.0000
  C   C498      1.0  0.33812  0.78513  0.81208  1.0000
  H   H854      1.0  0.47761  0.97264  0.67293  1.0000
  H   H855      1.0  0.48709  0.83963  0.76289  1.0000
  H   H856      1.0  0.37965  0.77443  0.76822  1.0000
  S   S140      1.0  0.47121  0.88706  0.59674  1.0000
  H   H857      1.0  0.33196  0.79267  0.82637  1.0000
  H   H858      1.0  0.21931  0.79229  0.57405  1.0000
  H   H859      1.0  0.36185  0.82454  0.84422  1.0000
  C   C499      1.0  0.41144  0.87739  0.58520  1.0000
  C   C500      1.0  0.37024  0.81927  0.80596  1.0000
  H   H860      1.0  0.35971  0.84442  0.77479  1.0000
  H   H861      1.0  0.49410  0.94936  0.59265  1.0000
  H   H862      1.0  0.37656  0.85603  0.58691  1.0000
  H   H863      1.0  0.46319  0.82630  0.78099  1.0000
  H   H864      1.0  0.35781  0.76137  0.78930  1.0000
  C   C501      1.0  0.19583  0.79935  0.50362  1.0000
  H   H865      1.0  0.32245  0.75666  0.78715  1.0000
  H   H866      1.0  0.22263  0.83077  0.51096  1.0000
  H   H867      1.0  0.41233  0.88348  0.50641  1.0000
  C   C502      1.0  0.21764  0.81523  0.50209  1.0000
  C   C503      1.0  0.40042  0.96486  0.50211  1.0000
  H   H868      1.0  0.40209  0.98148  0.50361  1.0000
  H   H869      1.0  0.49791  0.82507  0.79733  1.0000
  H   H870      1.0  0.47836  0.85534  0.78179  1.0000
  C   C504      1.0  0.10912  0.76573  0.49807  1.0000
  C   C505      1.0  0.49381  0.83822  0.80251  1.0000
  H   H871      1.0  0.21298  0.75905  0.59771  1.0000
  C   C506      1.0  0.18869  0.77900  0.49201  1.0000
  C   C507      1.0  0.49762  0.89208  0.58813  1.0000
  H   H872      1.0  0.49712  0.87040  0.83015  1.0000
  C   C508      1.0  0.49994  0.83430  0.84728  1.0000
  S   S141      1.0  0.16049  0.76000  0.49358  1.0000
  H   H873      1.0  0.12676  0.77518  0.50135  1.0000
  Fe  Fe73      1.0  0.68487  0.12456  0.46796  1.0000
  S   S142      1.0  0.71211  0.11811  0.45397  1.0000
  S   S143      1.0  0.66046  0.13286  0.44810  1.0000
  H   H874      1.0  0.66386  0.12916  0.27630  1.0000
  H   H875      1.0  0.66371  0.19322  0.31641  1.0000
  H   H876      1.0  0.70482  0.17039  0.28761  1.0000
  H   H877      1.0  0.54469  0.04352  0.31326  1.0000
  H   H878      1.0  0.82218  0.22450  0.39964  1.0000
  H   H879      1.0  0.57300  0.19062  0.12583  1.0000
  Fe  Fe74      1.0  0.58964  0.10661  0.32991  1.0000
  S   S144      1.0  0.59242  0.13995  0.33166  1.0000
  S   S145      1.0  0.61701  0.09902  0.34157  1.0000
  Fe  Fe75      1.0  0.54371  0.08805  0.31011  1.0000
  S   S146      1.0  0.54307  0.12034  0.31037  1.0000
  C   C509      1.0  0.67319  0.16978  0.28109  1.0000
  Fe  Fe76      1.0  0.57642  0.13303  0.29364  1.0000
  S   S147      1.0  0.59168  0.16164  0.26675  1.0000
  Fe  Fe77      1.0  0.55913  0.12456  0.34788  1.0000
  H   H880      1.0  0.70891  0.02474  0.46678  1.0000
  S   S148      1.0  0.57588  0.10034  0.29074  1.0000
  S   S149      1.0  0.55748  0.09153  0.34876  1.0000
  Fe  Fe78      1.0  0.61746  0.20188  0.12390  1.0000
  S   S150      1.0  0.65147  0.21320  0.10977  1.0000
  S   S151      1.0  0.59914  0.17165  0.14762  1.0000
  Fe  Fe79      1.0  0.61233  0.23792  0.09605  1.0000
  C   C510      1.0  0.52634  0.18993  0.14767  1.0000
  C   C511      1.0  0.63209  0.13775  0.25389  1.0000
  Fe  Fe80      1.0  0.63879  0.21790  0.07231  1.0000
  S   S152      1.0  0.64859  0.20953  0.03470  1.0000
  C   C512      1.0  0.61953  0.21810  0.00653  1.0000
  H   H881      1.0  0.50498  0.08527  0.40582  1.0000
  S   S153      1.0  0.60455  0.20389  0.08552  1.0000
  S   S154      1.0  0.62215  0.23483  0.13524  1.0000
  H   H882      1.0  0.64804  0.18195  0.34378  1.0000
  H   H883      1.0  0.51870  0.08439  0.37903  1.0000
  C   C513      1.0  0.55544  0.18624  0.12594  1.0000
  C   C514      1.0  0.54921  0.18992  0.09921  1.0000
  C   C515      1.0  0.51765  0.19839  0.16930  1.0000
  C   C516      1.0  0.63492  0.21018  0.00681  1.0000
  H   H884      1.0  0.63624  0.02767  0.41035  1.0000
  H   H885      1.0  0.61521  0.22332  0.02380  1.0000
  C   C517      1.0  0.67200  0.12906  0.31509  1.0000
  C   C518      1.0  0.69305  0.01705  0.47512  1.0000
  H   H886      1.0  0.53745  0.13867  0.43308  1.0000
  C   C519      1.0  0.69561  0.17918  0.29376  1.0000
  H   H887      1.0  0.66454  0.12712  0.33382  1.0000
  H   H888      1.0  0.81246  0.23130  0.42741  1.0000
  C   C520      1.0  0.59831  0.16910  0.18081  1.0000
  C   C521      1.0  0.60782  0.18698  0.19672  1.0000
  C   C522      1.0  0.60565  0.18431  0.22289  1.0000
  C   C523      1.0  0.59404  0.16379  0.23357  1.0000
  C   C524      1.0  0.58468  0.14588  0.21767  1.0000
  C   C525      1.0  0.58680  0.14855  0.19149  1.0000
  H   H889      1.0  0.61670  0.20289  0.18887  1.0000
  H   H890      1.0  0.61298  0.19830  0.23496  1.0000
  H   H891      1.0  0.57566  0.12999  0.22552  1.0000
  H   H892      1.0  0.57929  0.13461  0.17939  1.0000
  H   H893      1.0  0.63456  0.17779  0.31449  1.0000
  H   H894      1.0  0.61625  0.13515  0.24592  1.0000
  H   H895      1.0  0.63210  0.12177  0.25400  1.0000
  H   H896      1.0  0.64459  0.14883  0.24101  1.0000
  H   H897      1.0  0.64150  0.11713  0.29674  1.0000
  H   H898      1.0  0.63770  0.14484  0.32964  1.0000
  H   H899      1.0  0.66276  0.03571  0.42247  1.0000
  H   H900      1.0  0.63230  0.16234  0.27804  1.0000
  H   H901      1.0  0.53711  0.08916  0.42229  1.0000
  C   C526      1.0  0.64845  0.12279  0.41862  1.0000
  C   C527      1.0  0.65449  0.10971  0.40387  1.0000
  C   C528      1.0  0.64467  0.10238  0.38032  1.0000
  C   C529      1.0  0.62868  0.10795  0.37147  1.0000
  C   C530      1.0  0.62258  0.12091  0.38631  1.0000
  C   C531      1.0  0.63247  0.12832  0.40973  1.0000
  H   H902      1.0  0.66681  0.10538  0.41052  1.0000
  H   H903      1.0  0.64948  0.09237  0.36894  1.0000
  H   H904      1.0  0.61030  0.12532  0.37973  1.0000
  H   H905      1.0  0.62772  0.13845  0.42099  1.0000
  H   H906      1.0  0.67359  0.11405  0.31154  1.0000
  H   H907      1.0  0.70483  0.19636  0.28839  1.0000
  C   C532      1.0  0.64948  0.17900  0.32360  1.0000
  H   H908      1.0  0.52249  0.19488  0.18785  1.0000
  C   C533      1.0  0.81835  0.23416  0.48754  1.0000
  C   C534      1.0  0.83246  0.20991  0.47367  1.0000
  C   C535      1.0  0.52370  0.13199  0.42052  1.0000
  C   C536      1.0  0.79346  0.19572  0.48021  1.0000
  C   C537      1.0  0.79715  0.21678  0.48703  1.0000
  C   C538      1.0  0.52700  0.13041  0.39486  1.0000
  C   C539      1.0  0.82539  0.23780  0.41314  1.0000
  H   H909      1.0  0.84599  0.20697  0.46838  1.0000
  C   C540      1.0  0.54958  0.17020  0.17932  1.0000
  S   S155      1.0  0.64574  0.25210  0.08045  1.0000
  C   C541      1.0  0.65202  0.15810  0.32086  1.0000
  H   H910      1.0  0.84115  0.24180  0.42224  1.0000
  H   H911      1.0  0.55769  0.20307  0.18657  1.0000
  H   H912      1.0  0.55469  0.18119  0.08575  1.0000
  C   C542      1.0  0.52894  0.07387  0.41148  1.0000
  H   H913      1.0  0.63267  0.10101  0.48361  1.0000
  H   H914      1.0  0.50636  0.18296  0.45671  1.0000
  S   S156      1.0  0.76692  0.17312  0.48182  1.0000
  H   H915      1.0  0.52262  0.21586  0.16741  1.0000
  H   H916      1.0  0.54102  0.00686  0.32180  1.0000
  C   C543      1.0  0.56151  0.22198  0.14050  1.0000
  S   S157      1.0  0.69780  0.05837  0.47830  1.0000
  H   H917      1.0  0.55120  0.22639  0.12800  1.0000
  C   C544      1.0  0.81143  0.19256  0.47360  1.0000
  H   H918      1.0  0.64145  0.03017  0.44383  1.0000
  H   H919      1.0  0.53196  0.16342  0.18245  1.0000
  C   C545      1.0  0.51066  0.07475  0.39576  1.0000
  Fe  Fe81      1.0  0.73347  0.14245  0.48306  1.0000
  C   C546      1.0  0.56886  0.23808  0.16262  1.0000
  H   H920      1.0  0.66561  0.16007  0.33328  1.0000
  H   H921      1.0  0.52327  0.06108  0.42573  1.0000
  H   H922      1.0  0.55647  0.23454  0.17714  1.0000
  H   H923      1.0  0.55715  0.20713  0.09373  1.0000
  H   H924      1.0  0.51544  0.02085  0.36622  1.0000
  H   H925      1.0  0.57730  0.19950  0.16876  1.0000
  S   S158      1.0  0.51278  0.05842  0.30041  1.0000
  H   H926      1.0  0.57294  0.25447  0.15552  1.0000
  H   H927      1.0  0.54114  0.07231  0.39936  1.0000
  H   H928      1.0  0.66935  0.18340  0.27667  1.0000
  H   H929      1.0  0.52233  0.03565  0.39473  1.0000
  H   H930      1.0  0.53150  0.18331  0.09671  1.0000
  H   H931      1.0  0.57651  0.22611  0.12959  1.0000
  H   H932      1.0  0.54710  0.16852  0.12886  1.0000
  H   H933      1.0  0.58371  0.23873  0.17142  1.0000
  N   N39       1.0  0.55050  0.19816  0.14665  1.0000
  C   C547      1.0  0.52889  0.02982  0.31313  1.0000
  H   H934      1.0  0.69149  0.25016  0.02661  1.0000
  H   H935      1.0  0.51820  0.17201  0.14852  1.0000
  C   C548      1.0  0.65749  0.13145  0.29457  1.0000
  H   H936      1.0  0.69513  0.17939  0.31438  1.0000
  H   H937      1.0  0.52022  0.19411  0.13028  1.0000
  Fe  Fe82      1.0  0.70130  0.09278  0.48477  1.0000
  S   S159      1.0  0.55337  0.13858  0.38376  1.0000
  H   H938      1.0  0.51170  0.12107  0.35882  1.0000
  H   H939      1.0  0.68845  0.14247  0.31554  1.0000
  H   H940      1.0  0.61994  0.13609  0.29110  1.0000
  H   H941      1.0  0.67547  0.16419  0.26233  1.0000
  C   C549      1.0  0.55954  0.19386  0.17058  1.0000
  C   C550      1.0  0.64538  0.02491  0.42573  1.0000
  Fe  Fe83      1.0  0.65527  0.24641  0.11877  1.0000
  N   N40       1.0  0.65482  0.15193  0.29452  1.0000
  C   C551      1.0  0.63427  0.14740  0.28041  1.0000
  C   C552      1.0  0.50923  0.12198  0.37866  1.0000
  C   C553      1.0  0.51063  0.03272  0.30749  1.0000
  H   H942      1.0  0.80915  0.17659  0.46844  1.0000
  H   H943      1.0  0.60564  0.09844  0.47959  1.0000
  C   C554      1.0  0.83629  0.23090  0.48069  1.0000
  H   H944      1.0  0.51152  0.05260  0.35696  1.0000
  H   H945      1.0  0.60995  0.07555  0.48691  1.0000
  C   C555      1.0  0.68317  0.02976  0.48310  1.0000
  H   H946      1.0  0.50789  0.17490  0.42536  1.0000
  H   H947      1.0  0.55696  0.16951  0.19759  1.0000
  C   C556      1.0  0.50889  0.02698  0.38156  1.0000
  C   C557      1.0  0.52676  0.00905  0.31800  1.0000
  H   H948      1.0  0.55316  0.15973  0.16637  1.0000
  S   S160      1.0  0.86368  0.25203  0.48012  1.0000
  S   S161      1.0  0.59105  0.25322  0.08450  1.0000
  H   H949      1.0  0.80806  0.25234  0.39337  1.0000
  H   H950      1.0  0.60639  0.00543  0.44234  1.0000
  Fe  Fe84      1.0  0.69742  0.12368  0.52261  1.0000
  S   S162      1.0  0.72502  0.11648  0.51252  1.0000
  S   S163      1.0  0.69293  0.13486  0.56095  1.0000
  Fe  Fe85      1.0  0.62418  0.20006  0.84378  1.0000
  S   S164      1.0  0.64047  0.20542  0.88181  1.0000
  S   S165      1.0  0.61857  0.16997  0.82075  1.0000
  H   H951      1.0  0.71744  0.20074  0.82627  1.0000
  H   H952      1.0  0.53066  0.05095  0.74683  1.0000
  H   H953      1.0  0.81726  0.18847  0.57047  1.0000
  Fe  Fe86      1.0  0.66076  0.23924  0.86886  1.0000
  H   H954      1.0  0.80576  0.21189  0.59328  1.0000
  Fe  Fe87      1.0  0.61733  0.21796  0.89445  1.0000
  S   S166      1.0  0.60242  0.21455  0.93306  1.0000
  S   S167      1.0  0.64669  0.23315  0.83010  1.0000
  S   S168      1.0  0.59883  0.20948  0.85779  1.0000
  Fe  Fe88      1.0  0.59353  0.09361  0.64533  1.0000
  S   S169      1.0  0.59968  0.12801  0.64036  1.0000
  S   S170      1.0  0.61457  0.07863  0.63151  1.0000
  Fe  Fe89      1.0  0.54704  0.07906  0.66159  1.0000
  S   S171      1.0  0.54941  0.11224  0.65725  1.0000
  H   H955      1.0  0.54866  0.11035  0.71260  1.0000
  Fe  Fe90      1.0  0.56706  0.11388  0.62171  1.0000
  S   S172      1.0  0.56156  0.12254  0.58243  1.0000
  Fe  Fe91      1.0  0.58169  0.12351  0.67690  1.0000
  S   S173      1.0  0.58955  0.15064  0.70574  1.0000
  S   S174      1.0  0.56209  0.07987  0.62465  1.0000
  S   S175      1.0  0.57804  0.08988  0.68334  1.0000
  C   C558      1.0  0.61065  0.16494  0.78868  1.0000
  C   C559      1.0  0.60623  0.17937  0.77440  1.0000
  C   C560      1.0  0.60014  0.17482  0.74903  1.0000
  C   C561      1.0  0.59858  0.15592  0.73745  1.0000
  C   C562      1.0  0.60333  0.14161  0.75162  1.0000
  C   C563      1.0  0.60913  0.14602  0.77711  1.0000
  H   H956      1.0  0.60731  0.19399  0.78294  1.0000
  H   H957      1.0  0.59648  0.18601  0.73833  1.0000
  H   H958      1.0  0.60251  0.12717  0.74297  1.0000
  H   H959      1.0  0.61263  0.13478  0.78791  1.0000
  C   C564      1.0  0.61521  0.21275  0.96118  1.0000
  H   H960      1.0  0.54395  0.01998  0.61062  1.0000
  C   C565      1.0  0.63058  0.20482  0.96146  1.0000
  H   H961      1.0  0.82492  0.18908  0.53851  1.0000
  H   H962      1.0  0.63469  0.19939  0.94422  1.0000
  H   H963      1.0  0.74693  0.14087  0.59935  1.0000
  H   H964      1.0  0.59789  0.08578  0.52434  1.0000
  H   H965      1.0  0.73537  0.21944  0.79104  1.0000
  C   C566      1.0  0.70614  0.19628  0.81005  1.0000
  C   C567      1.0  0.52895  0.11967  0.55102  1.0000
  S   S176      1.0  0.51428  0.05162  0.66961  1.0000
  H   H966      1.0  0.54715  0.03842  0.68386  1.0000
  C   C568      1.0  0.53197  0.02416  0.68151  1.0000
  H   H967      1.0  0.65443  0.12356  0.52879  1.0000
  H   H968      1.0  0.71785  0.24086  0.78458  1.0000
  H   H969      1.0  0.71465  0.23221  0.83298  1.0000
  H   H970      1.0  0.58362  0.09903  0.55802  1.0000
  C   C569      1.0  0.67073  0.11892  0.57980  1.0000
  C   C570      1.0  0.65861  0.09681  0.57554  1.0000
  C   C571      1.0  0.64137  0.08453  0.59150  1.0000
  C   C572      1.0  0.63573  0.09442  0.61121  1.0000
  C   C573      1.0  0.64750  0.11663  0.61498  1.0000
  C   C574      1.0  0.66517  0.12876  0.59958  1.0000
  H   H971      1.0  0.66287  0.08908  0.56041  1.0000
  H   H972      1.0  0.63241  0.06733  0.58862  1.0000
  H   H973      1.0  0.64338  0.12435  0.63024  1.0000
  H   H974      1.0  0.67447  0.14587  0.60294  1.0000
  H   H975      1.0  0.69905  0.18991  0.86162  1.0000
  C   C575      1.0  0.61471  0.09660  0.51893  1.0000
  H   H976      1.0  0.67459  0.18703  0.87548  1.0000
  H   H977      1.0  0.66216  0.19733  0.83777  1.0000
  H   H978      1.0  0.65459  0.02870  0.50033  1.0000
  H   H979      1.0  0.71079  0.24774  0.98195  1.0000
  H   H980      1.0  0.73775  0.18844  0.53266  1.0000
  H   H981      1.0  0.65184  0.19691  0.98426  1.0000
  H   H982      1.0  0.55336  0.08360  0.76964  1.0000
  N   N41       1.0  0.53434  0.09517  0.74747  1.0000
  C   C576      1.0  0.54347  0.11648  0.76129  1.0000
  H   H983      1.0  0.56632  0.09769  0.74207  1.0000
  H   H984      1.0  0.65628  0.15605  0.55225  1.0000
  C   C577      1.0  0.59907  0.10215  0.56718  1.0000
  S   S177      1.0  0.67332  0.09859  0.49721  1.0000
  C   C578      1.0  0.54430  0.06411  0.73715  1.0000
  N   N42       1.0  0.68965  0.20464  0.81375  1.0000
  C   C579      1.0  0.53237  0.09998  0.72036  1.0000
  H   H985      1.0  0.51566  0.07292  0.77639  1.0000
  C   C580      1.0  0.66490  0.17731  0.78081  1.0000
  H   H986      1.0  0.53148  0.13024  0.61337  1.0000
  H   H987      1.0  0.66752  0.17502  0.83219  1.0000
  C   C581      1.0  0.52528  0.12724  0.59444  1.0000
  C   C582      1.0  0.54967  0.11611  0.78897  1.0000
  C   C583      1.0  0.66249  0.01922  0.49395  1.0000
  H   H988      1.0  0.78115  0.14543  0.57512  1.0000
  C   C584      1.0  0.65666  0.15539  0.53155  1.0000
  Fe  Fe92      1.0  0.62228  0.24285  0.84610  1.0000
  H   H989      1.0  0.69849  0.17833  0.81005  1.0000
  H   H990      1.0  0.68942  0.23280  0.83137  1.0000
  H   H991      1.0  0.66146  0.20459  0.79580  1.0000
  H   H992      1.0  0.53796  0.11658  0.53639  1.0000
  H   H993      1.0  0.56471  0.11423  0.79086  1.0000
  H   H994      1.0  0.67397  0.16248  0.52627  1.0000
  H   H995      1.0  0.50903  0.05234  0.60384  1.0000
  C   C585      1.0  0.81215  0.17992  0.55234  1.0000
  H   H996      1.0  0.75362  0.20081  0.55955  1.0000
  C   C586      1.0  0.67494  0.20050  0.79133  1.0000
  C   C587      1.0  0.51347  0.02609  0.67433  1.0000
  C   C588      1.0  0.60962  0.21920  0.98386  1.0000
  C   C589      1.0  0.58485  0.11870  0.51467  1.0000
  H   H997      1.0  0.65425  0.17631  0.76474  1.0000
  H   H998      1.0  0.53180  0.12349  0.76120  1.0000
  C   C590      1.0  0.50594  0.12818  0.58856  1.0000
  C   C591      1.0  0.72066  0.20429  0.78683  1.0000
  C   C592      1.0  0.64022  0.20337  0.98419  1.0000
  H   H999      1.0  0.59800  0.10652  0.58694  1.0000
  H   H1000     1.0  0.79107  0.21360  0.56635  1.0000
  C   C593      1.0  0.53692  0.12314  0.57566  1.0000
  H   H1001     1.0  0.67327  0.22823  0.94393  1.0000
  H   H1002     1.0  0.61819  0.13600  0.56036  1.0000
  H   H1003     1.0  0.76621  0.20088  0.52963  1.0000
  H   H1004     1.0  0.70167  0.24210  0.93547  1.0000
  H   H1005     1.0  0.61454  0.14654  0.52039  1.0000
  C   C594      1.0  0.50930  0.12013  0.54523  1.0000
  H   H1006     1.0  0.78091  0.21326  0.59685  1.0000
  C   C595      1.0  0.61873  0.12070  0.55505  1.0000
  N   N43       1.0  0.62154  0.11958  0.52713  1.0000
  C   C596      1.0  0.64530  0.13209  0.52134  1.0000
  C   C597      1.0  0.55042  0.08608  0.74975  1.0000
  H   H1007     1.0  0.52611  0.08536  0.70850  1.0000
  H   H1008     1.0  0.72569  0.19182  0.78098  1.0000
  H   H1009     1.0  0.55323  0.13192  0.79770  1.0000
  H   H1010     1.0  0.55824  0.06028  0.73859  1.0000
  H   H1011     1.0  0.57925  0.12398  0.53161  1.0000
  H   H1012     1.0  0.51361  0.07792  0.61755  1.0000
  H   H1013     1.0  0.65464  0.16524  0.79459  1.0000
  H   H1014     1.0  0.71238  0.20667  0.77028  1.0000
  H   H1015     1.0  0.62470  0.08996  0.52871  1.0000
  H   H1016     1.0  0.69462  0.24586  0.78944  1.0000
  H   H1017     1.0  0.52696  0.12890  0.71978  1.0000
  H   H1018     1.0  0.69148  0.21810  0.95349  1.0000
  H   H1019     1.0  0.55806  0.12856  0.75169  1.0000
  H   H1020     1.0  0.54070  0.06400  0.71698  1.0000
  H   H1021     1.0  0.64999  0.16581  0.52331  1.0000
  C   C598      1.0  0.68688  0.19618  0.86120  1.0000
  H   H1022     1.0  0.60104  0.08712  0.56773  1.0000
  C   C599      1.0  0.67553  0.19272  0.83549  1.0000
  H   H1023     1.0  0.67729  0.17275  0.77362  1.0000
  H   H1024     1.0  0.81161  0.16374  0.55372  1.0000
  H   H1025     1.0  0.68277  0.23474  0.98871  1.0000
  C   C600      1.0  0.70052  0.22837  0.82040  1.0000
  C   C601      1.0  0.51818  0.11149  0.71504  1.0000
  H   H1026     1.0  0.53648  0.10349  0.79979  1.0000
  H   H1027     1.0  0.59759  0.22515  0.98388  1.0000
  C   C602      1.0  0.60968  0.12995  0.51320  1.0000
  N   N44       1.0  0.77198  0.16956  0.56103  1.0000
  C   C603      1.0  0.76730  0.14636  0.56556  1.0000
  C   C604      1.0  0.79051  0.17856  0.54285  1.0000
  C   C605      1.0  0.75215  0.16945  0.54912  1.0000
  C   C606      1.0  0.77699  0.18134  0.58576  1.0000
  C   C607      1.0  0.74728  0.13281  0.58158  1.0000
  H   H1028     1.0  0.68323  0.21097  0.77531  1.0000
  C   C608      1.0  0.75298  0.19138  0.54255  1.0000
  C   C609      1.0  0.78939  0.20628  0.58500  1.0000
  H   H1029     1.0  0.76514  0.13756  0.54748  1.0000
  H   H1030     1.0  0.69430  0.21329  0.86724  1.0000
  H   H1031     1.0  0.79382  0.19478  0.53611  1.0000
  H   H1032     1.0  0.78632  0.16852  0.52555  1.0000
  H   H1033     1.0  0.74793  0.15967  0.53165  1.0000
  H   H1034     1.0  0.73800  0.16180  0.56161  1.0000
  H   H1035     1.0  0.76180  0.17713  0.59634  1.0000
  H   H1036     1.0  0.78675  0.17583  0.59775  1.0000
  H   H1037     1.0  0.73207  0.12844  0.57100  1.0000
  H   H1038     1.0  0.74748  0.11733  0.58645  1.0000
  S   S178      1.0  0.70657  0.15012  0.49461  1.0000
  H   H1039     1.0  0.63284  0.12093  0.56520  1.0000
  C   C610      1.0  0.70843  0.24461  0.79866  1.0000
  C   C611      1.0  0.54548  0.00785  0.62291  1.0000
  C   C612      1.0  0.69475  0.24581  0.97523  1.0000
  H   H1040     1.0  0.55659  0.01640  0.63863  1.0000
  C   C613      1.0  0.69004  0.23324  0.95038  1.0000
  H   H1041     1.0  0.57777  0.10094  0.51428  1.0000
  C   C614      1.0  0.51298  0.08027  0.75903  1.0000
  H   H1042     1.0  0.52378  0.07682  0.58741  1.0000
  H   H1043     1.0  0.64814  0.13336  0.50083  1.0000
  H   H1044     1.0  0.78356  0.21965  0.49215  1.0000
  H   H1045     1.0  0.82081  0.25006  0.49324  1.0000
  H   H1046     1.0  0.51445  0.11046  0.69472  1.0000
  H   H1047     1.0  0.65959  0.25004  0.97943  1.0000
  H   H1048     1.0  0.57808  0.12299  0.49791  1.0000
  H   H1049     1.0  0.61446  0.13265  0.49316  1.0000
  C   C615      1.0  0.61592  0.09305  0.49062  1.0000
  C   C616      1.0  0.50984  0.06842  0.60007  1.0000
  H   H1050     1.0  0.64700  0.25267  0.94094  1.0000
  S   S179      1.0  0.63860  0.25215  0.88337  1.0000
  Fe  Fe93      1.0  0.90034  0.46042  0.34742  1.0000
  S   S180      1.0  0.93251  0.45993  0.34758  1.0000
  S   S181      1.0  0.88905  0.46958  0.38337  1.0000
  Fe  Fe94      1.0  0.88776  0.43779  0.29582  1.0000
  S   S182      1.0  0.91899  0.43522  0.29275  1.0000
  S   S183      1.0  0.85931  0.42655  0.26817  1.0000
  Fe  Fe95      1.0  0.91432  0.42596  0.33353  1.0000
  S   S184      1.0  0.92382  0.40162  0.35092  1.0000
  Fe  Fe96      1.0  0.93458  0.46929  0.30733  1.0000
  C   C617      1.0  0.57131  0.48315  0.24535  1.0000
  S   S185      1.0  0.88191  0.42571  0.33563  1.0000
  S   S186      1.0  0.90366  0.47269  0.30802  1.0000
  Fe  Fe97      1.0  0.58182  0.46315  0.34820  1.0000
  S   S187      1.0  0.55221  0.46825  0.35256  1.0000
  S   S188      1.0  0.60229  0.46845  0.38286  1.0000
  Fe  Fe98      1.0  0.56856  0.44314  0.29536  1.0000
  S   S189      1.0  0.53811  0.44728  0.29647  1.0000
  S   S190      1.0  0.57057  0.42150  0.26398  1.0000
  Fe  Fe99      1.0  0.55877  0.47982  0.31299  1.0000
  C   C618      1.0  0.99153  0.48245  0.31449  1.0000
  Fe  Fe100     1.0  0.53445  0.43519  0.33592  1.0000
  H   H1051     1.0  0.59279  0.47049  0.47183  1.0000
  S   S191      1.0  0.58984  0.47685  0.30939  1.0000
  S   S192      1.0  0.56356  0.42923  0.33418  1.0000
  Fe  Fe101     1.0  0.80655  0.41075  0.07284  1.0000
  S   S193      1.0  0.81854  0.38757  0.08703  1.0000
  S   S194      1.0  0.81495  0.42790  0.03521  1.0000
  Fe  Fe102     1.0  0.77874  0.40478  0.11885  1.0000
  S   S195      1.0  0.78771  0.38043  0.13612  1.0000
  S   S196      1.0  0.75564  0.41260  0.14117  1.0000
  Fe  Fe103     1.0  0.82157  0.40302  0.12510  1.0000
  S   S197      1.0  0.85056  0.40848  0.15014  1.0000
  Fe  Fe104     1.0  0.78394  0.36703  0.09722  1.0000
  S   S198      1.0  0.76832  0.33216  0.08532  1.0000
  S   S199      1.0  0.81285  0.42845  0.10993  1.0000
  S   S200      1.0  0.77168  0.38920  0.08093  1.0000
  Fe  Fe105     1.0  0.61670  0.41347  0.12919  1.0000
  S   S201      1.0  0.62844  0.42409  0.08984  1.0000
  S   S202      1.0  0.61761  0.43882  0.15758  1.0000
  Fe  Fe106     1.0  0.61283  0.36852  0.11961  1.0000
  S   S203      1.0  0.62426  0.37520  0.08002  1.0000
  S   S204      1.0  0.60898  0.33945  0.14170  1.0000
  Fe  Fe107     1.0  0.64891  0.40687  0.09485  1.0000
  S   S205      1.0  0.68222  0.42042  0.07826  1.0000
  Fe  Fe108     1.0  0.60307  0.39185  0.07713  1.0000
  S   S206      1.0  0.58453  0.38793  0.04077  1.0000
  S   S207      1.0  0.63954  0.39886  0.13479  1.0000
  S   S208      1.0  0.58909  0.38242  0.11606  1.0000
  Fe  Fe109     1.0  0.88976  0.33223  0.46979  1.0000
  S   S209      1.0  0.90381  0.31075  0.45591  1.0000
  S   S210      1.0  0.87296  0.34610  0.44420  1.0000
  C   C619      1.0  0.54036  0.36908  0.34175  1.0000
  H   H1052     1.0  0.86203  0.31052  0.37792  1.0000
  C   C620      1.0  0.52754  0.42335  0.46457  1.0000
  H   H1053     1.0  0.89935  0.46935  0.45469  1.0000
  C   C621      1.0  0.83147  0.29514  0.39856  1.0000
  H   H1054     1.0  0.88813  0.29767  0.40348  1.0000
  C   C622      1.0  0.87968  0.48749  0.24847  1.0000
  C   C623      1.0  0.91744  0.44607  0.43078  1.0000
  C   C624      1.0  0.73539  0.41486  0.12352  1.0000
  C   C625      1.0  0.73774  0.41858  0.09780  1.0000
  C   C626      1.0  0.72131  0.42035  0.08404  1.0000
  C   C627      1.0  0.70232  0.41785  0.09586  1.0000
  C   C628      1.0  0.69986  0.41384  0.12152  1.0000
  C   C629      1.0  0.71654  0.41269  0.13540  1.0000
  H   H1055     1.0  0.75239  0.42053  0.08861  1.0000
  H   H1056     1.0  0.72330  0.42360  0.06421  1.0000
  H   H1057     1.0  0.68529  0.41191  0.13074  1.0000
  H   H1058     1.0  0.71472  0.40979  0.15532  1.0000
  C   C630      1.0  0.59721  0.27778  0.09968  1.0000
  C   C631      1.0  0.60577  0.28153  0.12388  1.0000
  C   C632      1.0  0.60883  0.30031  0.13675  1.0000
  C   C633      1.0  0.60455  0.31603  0.12499  1.0000
  C   C634      1.0  0.59680  0.31273  0.10038  1.0000
  C   C635      1.0  0.59273  0.29340  0.08792  1.0000
  C   C636      1.0  0.51410  0.49290  0.29543  1.0000
  H   H1059     1.0  0.61458  0.30269  0.15587  1.0000
  H   H1060     1.0  0.59332  0.32474  0.09128  1.0000
  H   H1061     1.0  0.58606  0.29052  0.06919  1.0000
  C   C637      1.0  0.70963  0.28352  0.10102  1.0000
  C   C638      1.0  0.72892  0.29694  0.08882  1.0000
  C   C639      1.0  0.74403  0.31583  0.10046  1.0000
  C   C640      1.0  0.74003  0.32107  0.12447  1.0000
  H   H1062     1.0  0.61519  0.34838  0.99835  1.0000
  H   H1063     1.0  0.73206  0.29275  0.07030  1.0000
  C   C641      1.0  0.76643  0.29116  0.15926  1.0000
  C   C642      1.0  0.89422  0.49605  0.39209  1.0000
  C   C643      1.0  0.81300  0.41400  0.00672  1.0000
  C   C644      1.0  0.80758  0.39202  0.00608  1.0000
  N   N45       1.0  0.91189  0.48872  0.22275  1.0000
  H   H1064     1.0  0.80461  0.38309  0.02337  1.0000
  C   C645      1.0  0.62184  0.40367  0.01243  1.0000
  C   C646      1.0  0.59937  0.39569  0.01253  1.0000
  H   H1065     1.0  0.51931  0.49517  0.21767  1.0000
  H   H1066     1.0  0.63049  0.40573  0.02989  1.0000
  N   N46       1.0  0.55597  0.48369  0.22559  1.0000
  N   N47       1.0  0.89796  0.42814  0.44264  1.0000
  H   H1067     1.0  0.71829  0.31116  0.15580  1.0000
  H   H1068     1.0  0.56500  0.48375  0.26428  1.0000
  C   C647      1.0  0.58414  0.42690  0.23465  1.0000
  C   C648      1.0  0.57984  0.40960  0.21813  1.0000
  C   C649      1.0  0.59004  0.41292  0.19464  1.0000
  C   C650      1.0  0.60461  0.43368  0.18723  1.0000
  C   C651      1.0  0.60897  0.45101  0.20375  1.0000
  C   C652      1.0  0.59896  0.44764  0.22738  1.0000
  H   H1069     1.0  0.56856  0.39346  0.22352  1.0000
  H   H1070     1.0  0.58654  0.39942  0.18221  1.0000
  H   H1071     1.0  0.62036  0.46710  0.19833  1.0000
  H   H1072     1.0  0.60306  0.46101  0.24013  1.0000
  H   H1073     1.0  0.71159  0.36762  0.15111  1.0000
  H   H1074     1.0  0.54098  0.43989  0.20936  1.0000
  C   C653      1.0  0.53407  0.44199  0.22722  1.0000
  C   C654      1.0  0.82398  0.29355  0.45326  1.0000
  H   H1075     1.0  0.53491  0.40669  0.37943  1.0000
  H   H1076     1.0  0.75157  0.33561  0.13349  1.0000
  H   H1077     1.0  0.66362  0.47114  0.17097  1.0000
  H   H1078     1.0  0.52857  0.33599  0.30586  1.0000
  H   H1079     1.0  0.97711  0.46960  0.32218  1.0000
  C   C655      1.0  0.90902  0.38525  0.37601  1.0000
  C   C656      1.0  0.91897  0.37621  0.39188  1.0000
  C   C657      1.0  0.90787  0.36365  0.41249  1.0000
  C   C658      1.0  0.88659  0.35980  0.41714  1.0000
  C   C659      1.0  0.87638  0.36823  0.40081  1.0000
  C   C660      1.0  0.88761  0.38108  0.38043  1.0000
  H   H1080     1.0  0.93548  0.37923  0.38844  1.0000
  H   H1081     1.0  0.91591  0.35725  0.42496  1.0000
  H   H1082     1.0  0.85987  0.36519  0.40418  1.0000
  H   H1083     1.0  0.87971  0.38770  0.36808  1.0000
  C   C661      1.0  0.85702  0.42065  0.23554  1.0000
  C   C662      1.0  0.87341  0.41888  0.22198  1.0000
  C   C663      1.0  0.87118  0.41516  0.19591  1.0000
  C   C664      1.0  0.85257  0.41314  0.18304  1.0000
  C   C665      1.0  0.83613  0.41477  0.19664  1.0000
  C   C666      1.0  0.83835  0.41845  0.22269  1.0000
  H   H1084     1.0  0.88773  0.42024  0.23160  1.0000
  H   H1085     1.0  0.88394  0.41378  0.18563  1.0000
  H   H1086     1.0  0.82171  0.41326  0.18708  1.0000
  H   H1087     1.0  0.82557  0.41982  0.23293  1.0000
  C   C667      1.0  0.51781  0.38353  0.40813  1.0000
  C   C668      1.0  0.63069  0.49911  0.41436  1.0000
  H   H1088     1.0  0.93152  0.48167  0.19587  1.0000
  C   C669      1.0  0.52705  0.34665  0.29126  1.0000
  H   H1089     1.0  0.52699  0.35946  0.35463  1.0000
  H   H1090     1.0  0.51453  0.47755  0.29399  1.0000
  H   H1091     1.0  0.93415  0.43026  0.46623  1.0000
  H   H1092     1.0  0.54933  0.36907  0.26323  1.0000
  H   H1093     1.0  0.84027  0.31380  0.36441  1.0000
  H   H1094     1.0  0.72557  0.36756  0.12262  1.0000
  C   C670      1.0  0.72120  0.30723  0.13704  1.0000
  C   C671      1.0  0.99390  0.35554  0.48119  1.0000
  C   C672      1.0  0.67767  0.46764  0.17408  1.0000
  H   H1095     1.0  0.57272  0.46786  0.24453  1.0000
  H   H1096     1.0  0.94553  0.47548  0.23669  1.0000
  H   H1097     1.0  0.70063  0.47390  0.09791  1.0000
  H   H1098     1.0  0.80233  0.26639  0.43131  1.0000
  C   C673      1.0  0.92096  0.41371  0.46748  1.0000
  H   H1099     1.0  0.90610  0.46001  0.20136  1.0000
  H   H1100     1.0  0.54237  0.43853  0.24303  1.0000
  N   N48       1.0  0.51698  0.36025  0.30175  1.0000
  H   H1101     1.0  0.70086  0.29320  0.00159  1.0000
  H   H1102     1.0  0.87510  0.49653  0.23455  1.0000
  H   H1103     1.0  0.93308  0.45123  0.21872  1.0000
  C   C674      1.0  0.92853  0.43915  0.41006  1.0000
  Fe  Fe110     1.0  0.88503  0.28863  0.48750  1.0000
  H   H1104     1.0  0.59250  0.50034  0.17728  1.0000
  C   C675      1.0  0.98980  0.49715  0.29790  1.0000
  C   C676      1.0  0.70152  0.27749  0.00036  1.0000
  H   H1105     1.0  0.92838  0.40283  0.46298  1.0000
  C   C677      1.0  0.90219  0.40922  0.44903  1.0000
  H   H1106     1.0  0.54063  0.39056  0.47547  1.0000
  H   H1107     1.0  0.73933  0.40025  0.03262  1.0000
  H   H1108     1.0  0.84054  0.28840  0.36094  1.0000
  C   C678      1.0  0.82510  0.25717  0.39918  1.0000
  C   C679      1.0  0.70180  0.49632  0.14695  1.0000
  C   C680      1.0  0.73570  0.41075  0.99529  1.0000
  H   H1109     1.0  0.89290  0.47605  0.17395  1.0000
  H   H1110     1.0  0.56641  0.32020  0.00344  1.0000
  H   H1111     1.0  0.55956  0.42559  0.45822  1.0000
  H   H1112     1.0  0.83365  0.25872  0.38135  1.0000
  H   H1113     1.0  0.92995  0.45539  0.44496  1.0000
  C   C681      1.0  0.85729  0.40424  0.43364  1.0000
  H   H1114     1.0  0.87125  0.44991  0.45173  1.0000
  Fe  Fe111     1.0  0.93135  0.32855  0.48305  1.0000
  S   S211      1.0  0.68191  0.27248  0.14105  1.0000
  H   H1115     1.0  0.87659  0.26971  0.40986  1.0000
  N   N49       1.0  0.67830  0.34267  0.11688  1.0000
  C   C682      1.0  0.66979  0.35330  0.13557  1.0000
  C   C683      1.0  0.68782  0.35781  0.09522  1.0000
  C   C684      1.0  0.69558  0.33781  0.12814  1.0000
  C   C685      1.0  0.65985  0.32175  0.10864  1.0000
  C   C686      1.0  0.66406  0.34274  0.16158  1.0000
  C   C687      1.0  0.67154  0.36155  0.07874  1.0000
  C   C688      1.0  0.71565  0.35750  0.13818  1.0000
  C   C689      1.0  0.66505  0.30878  0.08855  1.0000
  H   H1116     1.0  0.68141  0.37046  0.13863  1.0000
  H   H1117     1.0  0.65493  0.35378  0.12827  1.0000
  H   H1118     1.0  0.69756  0.35258  0.08296  1.0000
  H   H1119     1.0  0.69963  0.37397  0.10204  1.0000
  H   H1120     1.0  0.68896  0.32571  0.14338  1.0000
  H   H1121     1.0  0.70165  0.33008  0.11399  1.0000
  H   H1122     1.0  0.65352  0.31059  0.12473  1.0000
  H   H1123     1.0  0.64561  0.32394  0.10234  1.0000
  H   H1124     1.0  0.65589  0.35062  0.17249  1.0000
  H   H1125     1.0  0.65276  0.32539  0.16058  1.0000
  H   H1126     1.0  0.67868  0.34498  0.17227  1.0000
  H   H1127     1.0  0.66023  0.34667  0.06888  1.0000
  H   H1128     1.0  0.66239  0.36822  0.08977  1.0000
  H   H1129     1.0  0.68047  0.37369  0.06424  1.0000
  H   H1130     1.0  0.72601  0.35191  0.14875  1.0000
  H   H1131     1.0  0.67139  0.29824  0.09738  1.0000
  H   H1132     1.0  0.67674  0.31892  0.07444  1.0000
  H   H1133     1.0  0.65005  0.29862  0.07797  1.0000
  H   H1134     1.0  0.85722  0.38879  0.43901  1.0000
  C   C690      1.0  0.70582  0.28865  0.12520  1.0000
  H   H1135     1.0  0.73803  0.46494  0.14210  1.0000
  C   C691      1.0  0.72575  0.46994  0.13525  1.0000
  H   H1136     1.0  0.84128  0.30289  0.45796  1.0000
  H   H1137     1.0  0.77169  0.28640  0.17671  1.0000
  H   H1138     1.0  0.91303  0.45818  0.42216  1.0000
  C   C692      1.0  0.55256  0.50350  0.22965  1.0000
  H   H1139     1.0  0.54994  0.47522  0.18644  1.0000
  H   H1140     1.0  0.87740  0.43476  0.41680  1.0000
  C   C693      1.0  0.89004  0.48872  0.18356  1.0000
  H   H1141     1.0  0.69322  0.27438  0.03994  1.0000
  H   H1142     1.0  0.60309  0.49977  0.22737  1.0000
  H   H1143     1.0  0.52225  0.46416  0.21591  1.0000
  H   H1144     1.0  0.86719  0.27984  0.38384  1.0000
  H   H1145     1.0  0.60932  0.26963  0.13306  1.0000
  H   H1146     1.0  0.88282  0.45977  0.48173  1.0000
  H   H1147     1.0  0.55196  0.38315  0.35271  1.0000
  H   H1148     1.0  0.91892  0.45495  0.24460  1.0000
  H   H1149     1.0  0.81787  0.30426  0.44450  1.0000
  C   C694      1.0  0.91965  0.47364  0.21097  1.0000
  C   C695      1.0  0.87258  0.28274  0.40349  1.0000
  H   H1150     1.0  0.87944  0.46270  0.22416  1.0000
  H   H1151     1.0  0.55865  0.45013  0.46236  1.0000
  C   C696      1.0  0.87953  0.42084  0.42412  1.0000
  H   H1152     1.0  0.85754  0.27700  0.43950  1.0000
  H   H1153     1.0  0.71744  0.47245  0.17341  1.0000
  H   H1154     1.0  0.82176  0.26211  0.44915  1.0000
  H   H1155     1.0  0.52674  0.38261  0.27084  1.0000
  H   H1156     1.0  0.51705  0.42938  0.22778  1.0000
  H   H1157     1.0  0.52788  0.46522  0.24846  1.0000
  C   C697      1.0  0.55206  0.43358  0.47015  1.0000
  H   H1158     1.0  0.93612  0.42919  0.41738  1.0000
  H   H1159     1.0  0.51644  0.33550  0.27660  1.0000
  C   C698      1.0  0.88811  0.49953  0.41604  1.0000
  H   H1160     1.0  0.68047  0.44072  0.19297  1.0000
  H   H1161     1.0  0.70142  0.44735  0.15844  1.0000
  S   S212      1.0  0.96444  0.49590  0.29006  1.0000
  H   H1162     1.0  0.54658  0.38910  0.30884  1.0000
  C   C699      1.0  0.92820  0.50397  0.24101  1.0000
  C   C700      1.0  0.81976  0.27386  0.43663  1.0000
  H   H1163     1.0  0.67580  0.44335  0.12800  1.0000
  H   H1164     1.0  0.67121  0.49691  0.13550  1.0000
  H   H1165     1.0  0.58870  0.43448  0.48689  1.0000
  H   H1166     1.0  0.88029  0.48610  0.42858  1.0000
  H   H1167     1.0  0.76312  0.42245  0.02191  1.0000
  H   H1168     1.0  0.86415  0.30291  0.42747  1.0000
  H   H1169     1.0  0.62361  0.48713  0.42881  1.0000
  C   C701      1.0  0.53228  0.37732  0.31917  1.0000
  H   H1170     1.0  0.84536  0.40046  0.41818  1.0000
  H   H1171     1.0  0.55484  0.34723  0.27174  1.0000
  H   H1172     1.0  0.86444  0.47546  0.25700  1.0000
  H   H1173     1.0  0.90476  0.40157  0.43196  1.0000
  N   N50       1.0  0.80230  0.32668  0.15505  1.0000
  C   C702      1.0  0.81298  0.34298  0.13462  1.0000
  C   C703      1.0  0.79181  0.33619  0.17265  1.0000
  C   C704      1.0  0.78542  0.30638  0.14291  1.0000
  C   C705      1.0  0.81951  0.32247  0.16776  1.0000
  C   C706      1.0  0.82252  0.33555  0.11267  1.0000
  C   C707      1.0  0.80726  0.35683  0.18671  1.0000
  C   C708      1.0  0.81280  0.30803  0.19112  1.0000
  H   H1174     1.0  0.80125  0.34802  0.12618  1.0000
  H   H1175     1.0  0.82648  0.35794  0.14211  1.0000
  H   H1176     1.0  0.78215  0.32466  0.18724  1.0000
  H   H1177     1.0  0.77989  0.33988  0.16232  1.0000
  H   H1178     1.0  0.77765  0.31043  0.12684  1.0000
  H   H1179     1.0  0.79297  0.29660  0.13478  1.0000
  H   H1180     1.0  0.82608  0.31446  0.15462  1.0000
  H   H1181     1.0  0.83394  0.33778  0.17264  1.0000
  H   H1182     1.0  0.83582  0.33185  0.11872  1.0000
  H   H1183     1.0  0.81000  0.32166  0.10238  1.0000
  H   H1184     1.0  0.82954  0.34892  0.09900  1.0000
  H   H1185     1.0  0.81931  0.35437  0.19823  1.0000
  H   H1186     1.0  0.81556  0.37053  0.17389  1.0000
  H   H1187     1.0  0.79774  0.36177  0.19966  1.0000
  H   H1188     1.0  0.75539  0.29839  0.16367  1.0000
  H   H1189     1.0  0.80628  0.29075  0.18583  1.0000
  H   H1190     1.0  0.80110  0.31040  0.20313  1.0000
  H   H1191     1.0  0.82721  0.31232  0.20328  1.0000
  C   C709      1.0  0.67713  0.45992  0.12902  1.0000
  N   N51       1.0  0.69133  0.47226  0.15080  1.0000
  C   C710      1.0  0.89132  0.47529  0.23659  1.0000
  H   H1192     1.0  0.58047  0.34231  0.02320  1.0000
  C   C711      1.0  0.66805  0.44432  0.18379  1.0000
  C   C712      1.0  0.84441  0.30197  0.37411  1.0000
  H   H1193     1.0  0.93004  0.49536  0.25770  1.0000
  C   C713      1.0  0.74947  0.40705  0.01580  1.0000
  C   C714      1.0  0.70864  0.46510  0.15571  1.0000
  H   H1194     1.0  0.68110  0.48437  0.10036  1.0000
  C   C715      1.0  0.90815  0.50173  0.20248  1.0000
  H   H1195     1.0  0.67347  0.45806  0.08849  1.0000
  H   H1196     1.0  0.75664  0.27617  0.14850  1.0000
  H   H1197     1.0  0.75574  0.39556  0.01024  1.0000
  H   H1198     1.0  0.65996  0.43256  0.16869  1.0000
  C   C716      1.0  0.85693  0.28557  0.42216  1.0000
  C   C717      1.0  0.62321  0.49418  0.38965  1.0000
  H   H1199     1.0  0.56200  0.36920  0.29293  1.0000
  H   H1200     1.0  0.81416  0.29000  0.39382  1.0000
  C   C718      1.0  0.58278  0.33081  0.01046  1.0000
  C   C719      1.0  0.53443  0.46437  0.22967  1.0000
  H   H1201     1.0  0.71869  0.46018  0.11823  1.0000
  C   C720      1.0  0.68377  0.46988  0.10272  1.0000
  H   H1202     1.0  0.88776  0.39609  0.45770  1.0000
  H   H1203     1.0  0.81520  0.28792  0.47117  1.0000
  C   C721      1.0  0.92985  0.46341  0.22902  1.0000
  C   C722      1.0  0.59467  0.50109  0.24440  1.0000
  H   H1204     1.0  0.65559  0.44204  0.19806  1.0000
  H   H1205     1.0  0.66020  0.45745  0.13155  1.0000
  H   H1206     1.0  0.72028  0.39567  0.99392  1.0000
  C   C723      1.0  0.89262  0.43642  0.46637  1.0000
  H   H1207     1.0  0.60382  0.49909  0.26045  1.0000
  H   H1208     1.0  0.91723  0.43038  0.39466  1.0000
  H   H1209     1.0  0.68710  0.47831  0.18982  1.0000
  H   H1210     1.0  0.87389  0.48132  0.19241  1.0000
  H   H1211     1.0  0.87951  0.42316  0.47676  1.0000
  S   S213      1.0  0.96682  0.34755  0.47045  1.0000
  H   H1212     1.0  0.53239  0.38449  0.41672  1.0000
  H   H1213     1.0  0.73131  0.42314  0.00330  1.0000
  C   C724      1.0  0.51927  0.39609  0.38697  1.0000
  H   H1214     1.0  0.88313  0.41361  0.40732  1.0000
  H   H1215     1.0  0.57123  0.47082  0.19960  1.0000
  H   H1216     1.0  0.89440  0.46633  0.25201  1.0000
  H   H1217     1.0  0.54905  0.35971  0.33605  1.0000
  H   H1218     1.0  0.83694  0.31039  0.40945  1.0000
  H   H1219     1.0  0.58896  0.32130  0.02172  1.0000
  C   C725      1.0  0.88616  0.45487  0.46308  1.0000
  C   C726      1.0  0.54952  0.35903  0.27922  1.0000
  H   H1220     1.0  0.52452  0.38698  0.32707  1.0000
  H   H1221     1.0  0.90669  0.44259  0.47942  1.0000
  H   H1222     1.0  0.94168  0.45377  0.40182  1.0000
  H   H1223     1.0  0.91501  0.41074  0.48704  1.0000
  H   H1224     1.0  0.71872  0.28116  0.00393  1.0000
  H   H1225     1.0  0.73453  0.48727  0.13067  1.0000
  H   H1226     1.0  0.69786  0.26907  0.09190  1.0000
  N   N52       1.0  0.83383  0.27802  0.41378  1.0000
  C   C727      1.0  0.51171  0.37126  0.28040  1.0000
  C   C728      1.0  0.56386  0.48223  0.19969  1.0000
  H   H1227     1.0  0.52442  0.41605  0.44557  1.0000
  H   H1228     1.0  0.52142  0.43566  0.46540  1.0000
  H   H1229     1.0  0.51188  0.40163  0.29229  1.0000
  H   H1230     1.0  0.85138  0.41059  0.44932  1.0000
  H   H1231     1.0  0.51779  0.41000  0.47727  1.0000
  H   H1232     1.0  0.88950  0.49978  0.16889  1.0000
  H   H1233     1.0  0.67069  0.25863  0.02031  1.0000
  H   H1234     1.0  0.88925  0.49830  0.26386  1.0000
  C   C729      1.0  0.68829  0.26420  0.02280  1.0000
  H   H1235     1.0  0.56776  0.39882  0.48743  1.0000
  H   H1236     1.0  0.71126  0.50095  0.12941  1.0000
  C   C730      1.0  0.58029  0.50351  0.18761  1.0000
  H   H1237     1.0  0.53843  0.50283  0.19216  1.0000
  H   H1238     1.0  0.54690  0.50375  0.24907  1.0000
  H   H1239     1.0  0.57912  0.29354  0.99302  1.0000
  H   H1240     1.0  0.71385  0.50459  0.16207  1.0000
  Fe  Fe112     1.0  0.55469  0.42745  0.62364  1.0000
  S   S214      1.0  0.55271  0.45890  0.62264  1.0000
  S   S215      1.0  0.54859  0.40671  0.58884  1.0000
  Fe  Fe113     1.0  0.57185  0.43442  0.67800  1.0000
  S   S216      1.0  0.57163  0.46666  0.68090  1.0000
  S   S217      1.0  0.58188  0.41649  0.70729  1.0000
  Fe  Fe114     1.0  0.53934  0.45053  0.66149  1.0000
  H   H1241     1.0  0.67264  0.33819  0.79201  1.0000
  Fe  Fe115     1.0  0.58507  0.47245  0.64172  1.0000
  C   C731      1.0  0.88438  0.41264  0.94016  1.0000
  S   S218      1.0  0.53859  0.41773  0.66089  1.0000
  S   S219      1.0  0.58809  0.44161  0.64034  1.0000
  Fe  Fe116     1.0  0.60129  0.40125  0.84960  1.0000
  S   S220      1.0  0.63516  0.42123  0.86419  1.0000
  S   S221      1.0  0.58537  0.41821  0.82668  1.0000
  Fe  Fe117     1.0  0.59970  0.36002  0.87154  1.0000
  S   S222      1.0  0.63347  0.37674  0.88611  1.0000
  S   S223      1.0  0.58306  0.32532  0.88332  1.0000
  Fe  Fe118     1.0  0.62413  0.40195  0.89976  1.0000
  S   S224      1.0  0.63752  0.41372  0.93880  1.0000
  Fe  Fe119     1.0  0.64124  0.39413  0.84980  1.0000
  S   S225      1.0  0.66967  0.39831  0.82627  1.0000
  S   S226      1.0  0.58966  0.38440  0.88682  1.0000
  S   S227      1.0  0.60817  0.37503  0.83345  1.0000
  Fe  Fe120     1.0  0.77397  0.37214  0.84755  1.0000
  S   S228      1.0  0.76621  0.37952  0.88586  1.0000
  S   S229      1.0  0.75072  0.34381  0.82490  1.0000
  Fe  Fe121     1.0  0.81653  0.41279  0.84440  1.0000
  S   S230      1.0  0.81210  0.42397  0.88288  1.0000
  S   S231      1.0  0.84768  0.43310  0.82293  1.0000
  Fe  Fe122     1.0  0.80105  0.38980  0.89488  1.0000
  S   S232      1.0  0.80947  0.37951  0.93198  1.0000
  Fe  Fe123     1.0  0.77752  0.41302  0.87146  1.0000
  S   S233      1.0  0.75764  0.42907  0.88558  1.0000
  S   S234      1.0  0.80800  0.37909  0.85750  1.0000
  S   S235      1.0  0.78275  0.40512  0.83206  1.0000
  Fe  Fe124     1.0  0.90008  0.32688  0.52387  1.0000
  S   S236      1.0  0.91425  0.30436  0.51346  1.0000
  S   S237      1.0  0.90142  0.33665  0.56450  1.0000
  Fe  Fe125     1.0  0.89474  0.44244  0.68272  1.0000
  S   S238      1.0  0.91577  0.42910  0.66474  1.0000
  S   S239      1.0  0.86537  0.42326  0.70725  1.0000
  Fe  Fe126     1.0  0.91475  0.48368  0.65180  1.0000
  S   S240      1.0  0.93790  0.47443  0.63198  1.0000
  H   H1242     1.0  0.71950  0.35197  0.86665  1.0000
  Fe  Fe127     1.0  0.90979  0.44167  0.62840  1.0000
  S   S241      1.0  0.90259  0.42646  0.58989  1.0000
  Fe  Fe128     1.0  0.94266  0.46279  0.66952  1.0000
  S   S242      1.0  0.97524  0.46627  0.68247  1.0000
  S   S243      1.0  0.88624  0.45183  0.64554  1.0000
  S   S244      1.0  0.92208  0.47515  0.69016  1.0000
  C   C732      1.0  0.90182  0.36169  0.57133  1.0000
  C   C733      1.0  0.89800  0.37369  0.55272  1.0000
  C   C734      1.0  0.89855  0.39367  0.55864  1.0000
  C   C735      1.0  0.90322  0.40190  0.58308  1.0000
  C   C736      1.0  0.90753  0.39015  0.60159  1.0000
  C   C737      1.0  0.90650  0.36992  0.59579  1.0000
  H   H1243     1.0  0.89429  0.36742  0.53384  1.0000
  H   H1244     1.0  0.89516  0.40270  0.54427  1.0000
  H   H1245     1.0  0.91140  0.39654  0.62037  1.0000
  H   H1246     1.0  0.90957  0.36073  0.61023  1.0000
  H   H1247     1.0  0.94253  0.38276  0.54042  1.0000
  H   H1248     1.0  0.70090  0.36515  0.84134  1.0000
  C   C738      1.0  0.80992  0.39290  0.96040  1.0000
  C   C739      1.0  0.81509  0.41484  0.96101  1.0000
  C   C740      1.0  0.99782  0.49160  0.67935  1.0000
  H   H1249     1.0  0.81802  0.42378  0.94377  1.0000
  H   H1250     1.0  0.60615  0.30079  0.80830  1.0000
  C   C741      1.0  0.85245  0.42986  0.79083  1.0000
  C   C742      1.0  0.83614  0.41559  0.77506  1.0000
  C   C743      1.0  0.84049  0.41373  0.74965  1.0000
  C   C744      1.0  0.86116  0.42603  0.73963  1.0000
  C   C745      1.0  0.87751  0.44031  0.75537  1.0000
  C   C746      1.0  0.87313  0.44223  0.78080  1.0000
  H   H1251     1.0  0.82016  0.40597  0.78246  1.0000
  H   H1252     1.0  0.82768  0.40263  0.73773  1.0000
  H   H1253     1.0  0.89352  0.44984  0.74802  1.0000
  H   H1254     1.0  0.88588  0.45331  0.79280  1.0000
  C   C747      1.0  0.70633  0.28342  0.84098  1.0000
  C   C748      1.0  0.71938  0.30249  0.82831  1.0000
  C   C749      1.0  0.73618  0.31950  0.84085  1.0000
  C   C750      1.0  0.74061  0.31700  0.86584  1.0000
  H   H1255     1.0  0.85577  0.39292  0.86128  1.0000
  H   H1256     1.0  0.71608  0.30435  0.80892  1.0000
  H   H1257     1.0  0.75374  0.32999  0.87554  1.0000
  C   C751      1.0  0.69419  0.40783  0.84268  1.0000
  C   C752      1.0  0.71227  0.40803  0.83081  1.0000
  C   C753      1.0  0.73169  0.41426  0.84403  1.0000
  C   C754      1.0  0.73334  0.42108  0.86889  1.0000
  C   C755      1.0  0.71542  0.42149  0.88054  1.0000
  C   C756      1.0  0.69575  0.41457  0.86757  1.0000
  H   H1258     1.0  0.71121  0.40301  0.81149  1.0000
  H   H1259     1.0  0.74549  0.41415  0.83482  1.0000
  H   H1260     1.0  0.71666  0.42703  0.89962  1.0000
  H   H1261     1.0  0.68188  0.41463  0.87677  1.0000
  C   C757      1.0  0.59111  0.30834  0.86657  1.0000
  C   C758      1.0  0.59213  0.29088  0.87861  1.0000
  C   C759      1.0  0.59892  0.27741  0.86550  1.0000
  C   C760      1.0  0.60404  0.28101  0.84013  1.0000
  C   C761      1.0  0.60241  0.29810  0.82798  1.0000
  C   C762      1.0  0.59645  0.31206  0.84129  1.0000
  H   H1262     1.0  0.58785  0.28785  0.89812  1.0000
  N   N53       1.0  0.74569  0.41758  0.96971  1.0000
  N   N54       1.0  0.55839  0.43428  0.49726  1.0000
  H   H1263     1.0  0.59544  0.32534  0.83184  1.0000
  C   C763      1.0  0.62230  0.40653  0.96681  1.0000
  H   H1264     1.0  0.96263  0.33825  0.57580  1.0000
  C   C764      1.0  0.59979  0.39841  0.96684  1.0000
  C   C765      1.0  0.86424  0.39685  0.95449  1.0000
  H   H1265     1.0  0.59119  0.39646  0.94936  1.0000
  C   C766      1.0  0.75471  0.38538  0.96240  1.0000
  H   H1266     1.0  0.52848  0.37002  0.72193  1.0000
  C   C767      1.0  0.81697  0.42538  0.98409  1.0000
  C   C768      1.0  0.58255  0.41753  0.74046  1.0000
  C   C769      1.0  0.58375  0.40055  0.75354  1.0000
  C   C770      1.0  0.58459  0.40056  0.77986  1.0000
  C   C771      1.0  0.58428  0.41763  0.79349  1.0000
  C   C772      1.0  0.58286  0.43457  0.78046  1.0000
  C   C773      1.0  0.58216  0.43463  0.75406  1.0000
  H   H1267     1.0  0.58396  0.38720  0.74323  1.0000
  H   H1268     1.0  0.58534  0.38727  0.78961  1.0000
  H   H1269     1.0  0.58264  0.44787  0.79085  1.0000
  H   H1270     1.0  0.58157  0.44799  0.74428  1.0000
  C   C774      1.0  0.52211  0.38759  0.58106  1.0000
  H   H1271     1.0  0.82855  0.44520  0.67069  1.0000
  H   H1272     1.0  0.53220  0.37808  0.54715  1.0000
  H   H1273     1.0  0.83352  0.47717  0.77630  1.0000
  H   H1274     1.0  0.94640  0.35004  0.54217  1.0000
  H   H1275     1.0  0.87201  0.44171  0.94062  1.0000
  H   H1276     1.0  0.72664  0.28232  0.95973  1.0000
  C   C775      1.0  0.70611  0.35372  0.87617  1.0000
  H   H1277     1.0  0.95716  0.40414  0.50376  1.0000
  H   H1278     1.0  0.65515  0.48220  0.59566  1.0000
  H   H1279     1.0  0.91019  0.42583  0.89921  1.0000
  C   C776      1.0  0.99500  0.39443  0.55701  1.0000
  C   C777      1.0  0.56555  0.34090  0.95068  1.0000
  C   C778      1.0  0.66981  0.49788  0.59403  1.0000
  H   H1280     1.0  0.71387  0.49706  0.60484  1.0000
  H   H1281     1.0  0.77845  0.42736  0.98346  1.0000
  C   C779      1.0  0.55011  0.44787  0.51138  1.0000
  C   C780      1.0  0.86785  0.40281  0.89893  1.0000
  H   H1282     1.0  0.69832  0.30635  0.95519  1.0000
  H   H1283     1.0  0.96851  0.32981  0.54669  1.0000
  H   H1284     1.0  0.54676  0.45718  0.75006  1.0000
  N   N55       1.0  0.59706  0.33300  0.96490  1.0000
  C   C781      1.0  0.71382  0.30531  0.95550  1.0000
  C   C782      1.0  0.57464  0.32439  0.95387  1.0000
  C   C783      1.0  0.63645  0.35965  0.95372  1.0000
  S   S245      1.0  0.87020  0.30980  0.50034  1.0000
  H   H1285     1.0  0.77061  0.44814  0.98286  1.0000
  H   H1286     1.0  0.60192  0.47428  0.58902  1.0000
  H   H1287     1.0  0.69553  0.33282  0.81981  1.0000
  H   H1288     1.0  0.88098  0.47193  0.71512  1.0000
  C   C784      1.0  0.52298  0.39201  0.74657  1.0000
  H   H1289     1.0  0.67246  0.25727  0.92893  1.0000
  H   H1290     1.0  0.72528  0.38644  0.95339  1.0000
  C   C785      1.0  0.86935  0.45186  0.90369  1.0000
  H   H1291     1.0  0.90035  0.44333  0.88716  1.0000
  H   H1292     1.0  0.57105  0.38712  0.98954  1.0000
  H   H1293     1.0  0.57442  0.28494  0.96063  1.0000
  H   H1294     1.0  0.70149  0.41189  0.97324  1.0000
  H   H1295     1.0  0.53990  0.46064  0.71878  1.0000
  H   H1296     1.0  0.53967  0.39771  0.75403  1.0000
  N   N56       1.0  0.97083  0.38099  0.55514  1.0000
  C   C786      1.0  0.80637  0.38161  0.98304  1.0000
  H   H1297     1.0  0.77034  0.39525  0.97154  1.0000
  H   H1298     1.0  0.82136  0.44243  0.98446  1.0000
  H   H1299     1.0  0.71300  0.36854  0.88791  1.0000
  H   H1300     1.0  0.51598  0.43194  0.77701  1.0000
  N   N57       1.0  0.69429  0.26735  0.97482  1.0000
  C   C787      1.0  0.62043  0.49286  0.55763  1.0000
  H   H1301     1.0  0.50599  0.37430  0.71235  1.0000
  N   N58       1.0  0.84334  0.37683  0.64577  1.0000
  C   C788      1.0  0.83198  0.38988  0.65442  1.0000
  C   C789      1.0  0.85705  0.38842  0.62369  1.0000
  C   C790      1.0  0.85785  0.37677  0.66686  1.0000
  C   C791      1.0  0.82663  0.35425  0.63945  1.0000
  C   C792      1.0  0.81745  0.38138  0.67765  1.0000
  C   C793      1.0  0.84487  0.39203  0.60135  1.0000
  C   C794      1.0  0.87132  0.36447  0.66235  1.0000
  C   C795      1.0  0.83336  0.34119  0.62085  1.0000
  H   H1302     1.0  0.84392  0.40686  0.65843  1.0000
  H   H1303     1.0  0.82122  0.39084  0.63949  1.0000
  H   H1304     1.0  0.86610  0.38004  0.61619  1.0000
  H   H1305     1.0  0.86982  0.40454  0.62951  1.0000
  H   H1306     1.0  0.86934  0.39360  0.67208  1.0000
  H   H1307     1.0  0.84843  0.36947  0.68399  1.0000
  H   H1308     1.0  0.82085  0.34453  0.65681  1.0000
  H   H1309     1.0  0.81216  0.35479  0.63091  1.0000
  H   H1310     1.0  0.82693  0.38320  0.69500  1.0000
  H   H1311     1.0  0.80862  0.39122  0.68055  1.0000
  H   H1312     1.0  0.80517  0.36441  0.67541  1.0000
  H   H1313     1.0  0.84140  0.40595  0.60488  1.0000
  H   H1314     1.0  0.85530  0.39612  0.58453  1.0000
  H   H1315     1.0  0.82970  0.37757  0.59675  1.0000
  H   H1316     1.0  0.88182  0.37025  0.64579  1.0000
  H   H1317     1.0  0.86093  0.34685  0.66118  1.0000
  H   H1318     1.0  0.88223  0.36716  0.67867  1.0000
  H   H1319     1.0  0.82496  0.32387  0.62594  1.0000
  H   H1320     1.0  0.85076  0.34549  0.62040  1.0000
  H   H1321     1.0  0.82767  0.34209  0.60164  1.0000
  N   N59       1.0  0.65527  0.43312  0.76679  1.0000
  C   C796      1.0  0.64348  0.44586  0.77508  1.0000
  C   C797      1.0  0.65945  0.43720  0.73918  1.0000
  C   C798      1.0  0.67638  0.44179  0.78099  1.0000
  C   C799      1.0  0.64139  0.40970  0.77278  1.0000
  C   C800      1.0  0.63971  0.44635  0.80341  1.0000
  C   C801      1.0  0.63912  0.42962  0.72244  1.0000
  C   C802      1.0  0.69288  0.43371  0.77306  1.0000
  C   C803      1.0  0.64681  0.39273  0.75982  1.0000
  H   H1322     1.0  0.65216  0.46295  0.76889  1.0000
  H   H1323     1.0  0.62718  0.43941  0.76632  1.0000
  H   H1324     1.0  0.66922  0.42964  0.73149  1.0000
  H   H1325     1.0  0.66939  0.45475  0.73574  1.0000
  H   H1326     1.0  0.68479  0.45972  0.77986  1.0000
  H   H1327     1.0  0.67350  0.43788  0.80123  1.0000
  H   H1328     1.0  0.64135  0.40697  0.79326  1.0000
  H   H1329     1.0  0.62425  0.40514  0.76824  1.0000
  H   H1330     1.0  0.62941  0.45461  0.80679  1.0000
  H   H1331     1.0  0.63096  0.42992  0.81116  1.0000
  H   H1332     1.0  0.65495  0.45556  0.81394  1.0000
  H   H1333     1.0  0.62762  0.41252  0.72559  1.0000
  H   H1334     1.0  0.63068  0.43985  0.72493  1.0000
  H   H1335     1.0  0.64396  0.43110  0.70250  1.0000
  H   H1336     1.0  0.68681  0.41621  0.77619  1.0000
  H   H1337     1.0  0.70739  0.44158  0.78526  1.0000
  H   H1338     1.0  0.69852  0.43808  0.75362  1.0000
  H   H1339     1.0  0.65021  0.38313  0.77424  1.0000
  H   H1340     1.0  0.66072  0.39907  0.74709  1.0000
  H   H1341     1.0  0.63260  0.38121  0.74896  1.0000
  H   H1342     1.0  0.75881  0.37837  0.94572  1.0000
  C   C804      1.0  0.69040  0.35552  0.85681  1.0000
  H   H1343     1.0  0.54487  0.37928  0.50357  1.0000
  H   H1344     1.0  0.93087  0.46610  0.90997  1.0000
  H   H1345     1.0  0.66630  0.27946  0.93586  1.0000
  H   H1346     1.0  0.56259  0.31103  0.96500  1.0000
  H   H1347     1.0  0.61526  0.47902  0.54538  1.0000
  N   N60       1.0  0.67303  0.33463  0.84681  1.0000
  C   C805      1.0  0.97187  0.34429  0.55827  1.0000
  H   H1348     1.0  0.66200  0.34513  0.89580  1.0000
  C   C806      1.0  0.58842  0.39321  0.98964  1.0000
  C   C807      1.0  0.63322  0.40920  0.98972  1.0000
  C   C808      1.0  0.91770  0.45421  0.92161  1.0000
  H   H1349     1.0  0.69344  0.31858  0.84773  1.0000
  H   H1350     1.0  0.66618  0.49937  0.55478  1.0000
  C   C809      1.0  0.52250  0.38242  0.72036  1.0000
  H   H1351     1.0  0.87833  0.41863  0.86190  1.0000
  H   H1352     1.0  0.79875  0.45253  0.95193  1.0000
  H   H1353     1.0  0.69825  0.34020  0.88931  1.0000
  C   C810      1.0  0.71054  0.28179  0.95610  1.0000
  C   C811      1.0  0.66456  0.26356  0.94230  1.0000
  H   H1354     1.0  0.84973  0.42234  0.92339  1.0000
  C   C812      1.0  0.86721  0.43375  0.92196  1.0000
  H   H1355     1.0  0.64494  0.30645  0.85939  1.0000
  C   C813      1.0  0.74260  0.39830  0.95403  1.0000
  H   H1356     1.0  0.66746  0.31352  0.87889  1.0000
  C   C814      1.0  0.78160  0.44161  0.94753  1.0000
  C   C815      1.0  0.96739  0.39752  0.51280  1.0000
  C   C816      1.0  0.72824  0.29744  0.87814  1.0000
  C   C817      1.0  0.73423  0.42890  0.95666  1.0000
  H   H1357     1.0  0.54486  0.42748  0.72573  1.0000
  C   C818      1.0  0.50783  0.47685  0.67227  1.0000
  S   S246      1.0  0.50894  0.45197  0.67486  1.0000
  C   C819      1.0  0.84038  0.46331  0.70509  1.0000
  H   H1358     1.0  0.96390  0.40821  0.54875  1.0000
  C   C820      1.0  0.54886  0.41203  0.50854  1.0000
  H   H1359     1.0  0.85936  0.46866  0.75127  1.0000
  H   H1360     1.0  0.63878  0.31967  0.89890  1.0000
  H   H1361     1.0  0.96935  0.37001  0.59341  1.0000
  H   H1362     1.0  0.68449  0.36481  0.80603  1.0000
  H   H1363     1.0  0.89464  0.40427  0.93664  1.0000
  C   C821      1.0  0.84012  0.46181  0.67639  1.0000
  H   H1364     1.0  0.60832  0.36364  0.94550  1.0000
  H   H1365     1.0  0.65993  0.28851  0.83584  1.0000
  S   S247      1.0  0.61205  0.50462  0.63025  1.0000
  H   H1366     1.0  0.77549  0.45110  0.93620  1.0000
  H   H1367     1.0  0.57414  0.31703  0.93520  1.0000
  H   H1368     1.0  0.87167  0.44896  0.88386  1.0000
  C   C822      1.0  0.61293  0.49013  0.58237  1.0000
  H   H1369     1.0  0.98634  0.33006  0.50780  1.0000
  H   H1370     1.0  0.61815  0.31996  0.97930  1.0000
  H   H1371     1.0  0.85507  0.38149  0.94425  1.0000
  C   C823      1.0  0.59898  0.34371  0.98997  1.0000
  H   H1372     1.0  0.84228  0.44925  0.71248  1.0000
  C   C824      1.0  0.71092  0.28073  0.86579  1.0000
  H   H1373     1.0  0.74464  0.37209  0.97514  1.0000
  C   C825      1.0  0.83220  0.47546  0.75561  1.0000
  C   C826      1.0  0.90190  0.43576  0.90477  1.0000
  H   H1374     1.0  0.65798  0.35375  0.79305  1.0000
  H   H1375     1.0  0.88223  0.46766  0.90994  1.0000
  C   C827      1.0  0.66818  0.30107  0.82156  1.0000
  H   H1376     1.0  0.98070  0.41078  0.59569  1.0000
  H   H1377     1.0  0.54219  0.49597  0.66910  1.0000
  H   H1378     1.0  0.68367  0.36620  0.86444  1.0000
  C   C828      1.0  0.96159  0.37755  0.58122  1.0000
  C   C829      1.0  0.85478  0.48131  0.74481  1.0000
  H   H1379     1.0  0.73200  0.29535  0.89728  1.0000
  C   C830      1.0  0.65891  0.32068  0.86740  1.0000
  S   S248      1.0  0.61370  0.26528  0.82342  1.0000
  H   H1380     1.0  0.70423  0.40165  0.94281  1.0000
  H   H1381     1.0  0.64394  0.32522  0.82456  1.0000
  H   H1382     1.0  0.85162  0.39226  0.90660  1.0000
  H   H1383     1.0  0.63898  0.33743  0.87485  1.0000
  H   H1384     1.0  0.83429  0.47281  0.66782  1.0000
  C   C831      1.0  0.86353  0.40814  0.87222  1.0000
  H   H1385     1.0  0.96508  0.38314  0.50174  1.0000
  H   H1386     1.0  0.65598  0.30249  0.80927  1.0000
  N   N61       1.0  0.85701  0.48390  0.71675  1.0000
  C   C832      1.0  0.65911  0.33979  0.82892  1.0000
  H   H1387     1.0  0.87635  0.39248  0.89720  1.0000
  H   H1388     1.0  0.98941  0.35236  0.56234  1.0000
  H   H1389     1.0  0.59993  0.26410  0.87493  1.0000
  H   H1390     1.0  0.72281  0.31322  0.93831  1.0000
  H   H1391     1.0  0.82376  0.46046  0.71015  1.0000
  C   C833      1.0  0.51864  0.37577  0.55877  1.0000
  H   H1392     1.0  0.00048  0.44192  0.64002  1.0000
  C   C834      1.0  0.61217  0.34975  0.94704  1.0000
  C   C835      1.0  0.96433  0.35897  0.54385  1.0000
  C   C836      1.0  0.70936  0.41623  0.95471  1.0000
  H   H1393     1.0  0.94415  0.36600  0.58091  1.0000
  H   H1394     1.0  0.65380  0.35122  0.83763  1.0000
  H   H1395     1.0  0.88254  0.48871  0.68997  1.0000
  H   H1396     1.0  0.74004  0.43312  0.93713  1.0000
  H   H1397     1.0  0.74648  0.40273  0.93401  1.0000
  H   H1398     1.0  0.53884  0.42687  0.77744  1.0000
  C   C837      1.0  0.66946  0.34968  0.80368  1.0000
  H   H1399     1.0  0.90498  0.48679  0.60067  1.0000
  H   H1400     1.0  0.64570  0.37129  0.93893  1.0000
  H   H1401     1.0  0.85591  0.46469  0.66856  1.0000
  H   H1402     1.0  0.90977  0.46286  0.93134  1.0000
  C   C838      1.0  0.87933  0.48675  0.71029  1.0000
  H   H1403     1.0  0.92546  0.44809  0.93564  1.0000
  H   H1404     1.0  0.99900  0.41173  0.55965  1.0000
  H   H1405     1.0  0.51477  0.41209  0.81375  1.0000
  C   C839      1.0  0.68369  0.32258  0.83401  1.0000
  C   C840      1.0  0.55082  0.39440  0.49259  1.0000
  H   H1406     1.0  0.69293  0.27067  0.83139  1.0000
  H   H1407     1.0  0.78151  0.42816  0.93621  1.0000
  H   H1408     1.0  0.89638  0.49044  0.55652  1.0000
  H   H1409     1.0  0.89349  0.42577  0.95378  1.0000
  C   C841      1.0  0.64933  0.33168  0.88512  1.0000
  H   H1410     1.0  0.64013  0.36905  0.97138  1.0000
  H   H1411     1.0  0.97008  0.35982  0.52447  1.0000
  H   H1412     1.0  0.50709  0.39294  0.61374  1.0000
  H   H1413     1.0  0.86939  0.39260  0.97249  1.0000
  H   H1414     1.0  0.68023  0.48448  0.56366  1.0000
  H   H1415     1.0  0.73785  0.44449  0.96615  1.0000
  C   C842      1.0  0.67170  0.26468  0.96992  1.0000
  H   H1416     1.0  0.67748  0.29517  0.80961  1.0000
  H   H1417     1.0  0.61026  0.34293  0.92779  1.0000
  H   H1418     1.0  0.65062  0.41560  0.98993  1.0000
  H   H1419     1.0  0.82085  0.45834  0.75182  1.0000
  H   H1420     1.0  0.70647  0.27552  0.93675  1.0000
  C   C843      1.0  0.96044  0.39237  0.54026  1.0000
  C   C844      1.0  0.53382  0.45048  0.73565  1.0000
  H   H1421     1.0  0.95286  0.40415  0.58780  1.0000
  H   H1422     1.0  0.60938  0.31226  0.94793  1.0000
  H   H1423     1.0  0.98431  0.41014  0.51139  1.0000
  C   C845      1.0  0.96387  0.39788  0.59544  1.0000
  N   N62       1.0  0.88022  0.42166  0.91614  1.0000
  C   C846      1.0  0.52667  0.49618  0.66991  1.0000
  H   H1424     1.0  0.86603  0.49637  0.75458  1.0000
  C   C847      1.0  0.52105  0.41901  0.77422  1.0000
  H   H1425     1.0  0.85429  0.45381  0.90446  1.0000
  H   H1426     1.0  0.58792  0.44199  0.51828  1.0000
  H   H1427     1.0  0.53148  0.40624  0.51314  1.0000
  H   H1428     1.0  0.95895  0.39351  0.61518  1.0000
  H   H1429     1.0  0.64259  0.34739  0.95455  1.0000
  C   C848      1.0  0.52877  0.42695  0.72911  1.0000
  H   H1430     1.0  0.55662  0.41228  0.52692  1.0000
  C   C849      1.0  0.60398  0.31521  0.96658  1.0000
  H   H1431     1.0  0.70299  0.42662  0.94556  1.0000
  H   H1432     1.0  0.80261  0.36470  0.98280  1.0000
  H   H1433     1.0  0.85191  0.41509  0.87228  1.0000
  C   C850      1.0  0.58692  0.29290  0.97528  1.0000
  H   H1434     1.0  0.52054  0.42313  0.71053  1.0000
  H   H1435     1.0  0.54847  0.33230  0.94439  1.0000
  H   H1436     1.0  0.70881  0.49563  0.52185  1.0000
  H   H1437     1.0  0.53214  0.44035  0.51063  1.0000
  C   C851      1.0  0.76912  0.43369  0.97223  1.0000
  H   H1438     1.0  0.57404  0.45996  0.54235  1.0000
  H   H1439     1.0  0.57417  0.35289  0.93597  1.0000
  H   H1440     1.0  0.54958  0.46190  0.54768  1.0000
  H   H1441     1.0  0.51811  0.39150  0.79742  1.0000
  C   C852      1.0  0.51098  0.40296  0.79583  1.0000
  N   N63       1.0  0.51605  0.40979  0.74806  1.0000
  H   H1442     1.0  0.59488  0.28228  0.97840  1.0000
  H   H1443     1.0  0.50530  0.30918  0.53088  1.0000
  H   H1444     1.0  0.68049  0.48974  0.51923  1.0000
  H   H1445     1.0  0.86564  0.50365  0.66992  1.0000
  H   H1446     1.0  0.53339  0.39457  0.70710  1.0000
  H   H1447     1.0  0.51260  0.37810  0.75845  1.0000
  C   C853      1.0  0.55634  0.45155  0.53932  1.0000
  H   H1448     1.0  0.68112  0.49841  0.60891  1.0000
  H   H1449     1.0  0.54942  0.43623  0.54987  1.0000
  H   H1450     1.0  0.59217  0.47851  0.50408  1.0000
  S   S249      1.0  0.69561  0.25632  0.88124  1.0000
  H   H1451     1.0  0.85347  0.40426  0.95922  1.0000
  H   H1452     1.0  0.72376  0.31467  0.97162  1.0000
  H   H1453     1.0  0.56570  0.34917  0.96848  1.0000
  C   C854      1.0  0.67910  0.49973  0.56749  1.0000
  H   H1454     1.0  0.71918  0.26085  0.80622  1.0000
  H   H1455     1.0  0.00134  0.38971  0.57389  1.0000
  H   H1456     1.0  0.55543  0.46391  0.50245  1.0000
  C   C855      1.0  0.89764  0.50260  0.57001  1.0000
  H   H1457     1.0  0.66973  0.27841  0.97829  1.0000
  C   C856      1.0  0.99902  0.34437  0.49979  1.0000
  H   H1458     1.0  0.00018  0.38782  0.51699  1.0000
  H   H1459     1.0  0.51962  0.45241  0.74200  1.0000
  C   C857      1.0  0.58267  0.44365  0.49902  1.0000
  S   S250      1.0  0.91796  0.35141  0.49474  1.0000
  H   H1460     1.0  0.71766  0.49976  0.56187  1.0000
  H   H1461     1.0  0.59849  0.35939  0.98798  1.0000
  H   H1462     1.0  0.82538  0.48618  0.74866  1.0000
  C   C858      1.0  0.90246  0.50048  0.59507  1.0000
  C   C859      1.0  0.69740  0.50240  0.51767  1.0000
  H   H1463     1.0  0.83561  0.49823  0.70823  1.0000
  C   C860      1.0  0.85322  0.50291  0.70913  1.0000
  H   H1464     1.0  0.90016  0.50190  0.74287  1.0000
  H   H1465     1.0  0.61302  0.47226  0.49352  1.0000
  C   C861      1.0  0.59548  0.46755  0.49160  1.0000
  C   C862      1.0  0.50456  0.38395  0.59649  1.0000
  Fe  Fe129     1.0  0.90204  0.57003  0.45746  1.0000
  S   S251      1.0  0.90537  0.56374  0.41650  1.0000
  S   S252      1.0  0.90780  0.60321  0.46989  1.0000
  Fe  Fe130     1.0  0.55490  0.67979  0.46908  1.0000
  S   S253      1.0  0.58897  0.70107  0.45755  1.0000
  S   S254      1.0  0.52597  0.66864  0.44302  1.0000
  H   H1466     1.0  0.65201  0.59522  0.41933  1.0000
  C   C863      1.0  0.86228  0.60172  0.42025  1.0000
  C   C864      1.0  0.59928  0.53782  0.36150  1.0000
  H   H1467     1.0  0.88714  0.52275  0.44240  1.0000
  H   H1468     1.0  0.58242  0.75061  0.44836  1.0000
  Fe  Fe131     1.0  0.68470  0.56680  0.45080  1.0000
  S   S255      1.0  0.71196  0.59697  0.46640  1.0000
  S   S256      1.0  0.67659  0.56109  0.40963  1.0000
  H   H1469     1.0  0.87210  0.57754  0.43105  1.0000
  H   H1470     1.0  0.54994  0.72384  0.42974  1.0000
  S   S257      1.0  0.69284  0.54477  0.47420  1.0000
  H   H1471     1.0  0.87930  0.61402  0.42282  1.0000
  S   S258      1.0  0.61594  0.66070  0.46625  1.0000
  S   S259      1.0  0.92378  0.56725  0.48665  1.0000
  H   H1472     1.0  0.59567  0.51741  0.24636  1.0000
  C   C865      1.0  0.63251  0.50971  0.37103  1.0000
  C   C866      1.0  0.54161  0.64942  0.40840  1.0000
  C   C867      1.0  0.52459  0.65384  0.41558  1.0000
  S   S260      1.0  0.51829  0.61223  0.34618  1.0000
  H   H1473     1.0  0.57073  0.71784  0.41862  1.0000
  H   H1474     1.0  0.55632  0.65561  0.41940  1.0000
  H   H1475     1.0  0.92243  0.51524  0.24909  1.0000
  H   H1476     1.0  0.61561  0.54332  0.35336  1.0000
  C   C868      1.0  0.80511  0.54450  0.38807  1.0000
  S   S261      1.0  0.55837  0.51105  0.30179  1.0000
  C   C869      1.0  0.64931  0.53005  0.37718  1.0000
  H   H1477     1.0  0.95550  0.51092  0.21483  1.0000
  H   H1478     1.0  0.82456  0.61738  0.47506  1.0000
  C   C870      1.0  0.81123  0.53780  0.44862  1.0000
  H   H1479     1.0  0.80306  0.54050  0.46515  1.0000
  H   H1480     1.0  0.82863  0.52542  0.41474  1.0000
  H   H1481     1.0  0.99862  0.57788  0.37586  1.0000
  C   C871      1.0  0.65664  0.53502  0.40197  1.0000
  H   H1482     1.0  0.79863  0.52961  0.43434  1.0000
  C   C872      1.0  0.82905  0.55969  0.43994  1.0000
  H   H1483     1.0  0.80446  0.52846  0.39103  1.0000
  H   H1484     1.0  0.65656  0.54199  0.36274  1.0000
  H   H1485     1.0  0.84108  0.56511  0.45544  1.0000
  H   H1486     1.0  0.60862  0.52772  0.39489  1.0000
  H   H1487     1.0  0.58597  0.74623  0.35527  1.0000
  H   H1488     1.0  0.62418  0.57042  0.44080  1.0000
  C   C873      1.0  0.53239  0.53151  0.30169  1.0000
  H   H1489     1.0  0.97917  0.62947  0.46641  1.0000
  H   H1490     1.0  0.60581  0.73249  0.41419  1.0000
  C   C874      1.0  0.90147  0.53771  0.40760  1.0000
  C   C875      1.0  0.90738  0.53424  0.38352  1.0000
  H   H1491     1.0  0.65266  0.52322  0.43972  1.0000
  H   H1492     1.0  0.55284  0.63358  0.38136  1.0000
  H   H1493     1.0  0.51160  0.58105  0.40218  1.0000
  H   H1494     1.0  0.58325  0.52809  0.39697  1.0000
  H   H1495     1.0  0.91469  0.54766  0.37080  1.0000
  H   H1496     1.0  0.50783  0.60929  0.42628  1.0000
  H   H1497     1.0  0.85580  0.60675  0.40387  1.0000
  C   C876      1.0  0.60176  0.53716  0.44494  1.0000
  H   H1498     1.0  0.84087  0.53604  0.37100  1.0000
  H   H1499     1.0  0.92314  0.51051  0.19139  1.0000
  C   C877      1.0  0.53318  0.51168  0.29988  1.0000
  S   S262      1.0  0.65950  0.56677  0.47695  1.0000
  C   C878      1.0  0.89189  0.52029  0.42388  1.0000
  C   C879      1.0  0.60012  0.53763  0.39035  1.0000
  H   H1500     1.0  0.86834  0.55137  0.38209  1.0000
  C   C880      1.0  0.64887  0.62455  0.47499  1.0000
  H   H1501     1.0  0.80135  0.54482  0.36791  1.0000
  H   H1502     1.0  0.00209  0.52410  0.34175  1.0000
  C   C881      1.0  0.68612  0.50666  0.14637  1.0000
  H   H1503     1.0  0.82410  0.57745  0.39758  1.0000
  C   C882      1.0  0.56460  0.73007  0.41783  1.0000
  C   C883      1.0  0.64387  0.59662  0.40198  1.0000
  C   C884      1.0  0.63049  0.57446  0.38956  1.0000
  H   H1504     1.0  0.85354  0.60226  0.43733  1.0000
  H   H1505     1.0  0.64160  0.56701  0.38656  1.0000
  H   H1506     1.0  0.87097  0.58104  0.39841  1.0000
  H   H1507     1.0  0.62648  0.57766  0.37046  1.0000
  H   H1508     1.0  0.59692  0.52113  0.43618  1.0000
  C   C885      1.0  0.63495  0.63307  0.46623  1.0000
  C   C886      1.0  0.90395  0.51350  0.37583  1.0000
  H   H1509     1.0  0.65698  0.60679  0.38905  1.0000
  C   C887      1.0  0.82735  0.56337  0.39392  1.0000
  H   H1510     1.0  0.63262  0.55221  0.42702  1.0000
  H   H1511     1.0  0.61484  0.74684  0.44232  1.0000
  H   H1512     1.0  0.59163  0.54758  0.35400  1.0000
  H   H1513     1.0  0.96825  0.52740  0.34044  1.0000
  H   H1514     1.0  0.58729  0.53951  0.44905  1.0000
  C   C888      1.0  0.95075  0.51851  0.23025  1.0000
  C   C889      1.0  0.64721  0.51951  0.42055  1.0000
  H   H1515     1.0  0.64343  0.74542  0.41392  1.0000
  C   C890      1.0  0.53958  0.63688  0.38689  1.0000
  C   C891      1.0  0.50561  0.64570  0.40108  1.0000
  H   H1516     1.0  0.99701  0.53497  0.36969  1.0000
  H   H1517     1.0  0.56776  0.51857  0.22844  1.0000
  H   H1518     1.0  0.58892  0.73036  0.37951  1.0000
  H   H1519     1.0  0.58938  0.51686  0.20071  1.0000
  C   C892      1.0  0.52040  0.62830  0.37273  1.0000
  N   N64       1.0  0.83996  0.56032  0.41527  1.0000
  N   N65       1.0  0.61080  0.55914  0.40370  1.0000
  H   H1520     1.0  0.85470  0.52311  0.38666  1.0000
  C   C893      1.0  0.84359  0.54053  0.41203  1.0000
  H   H1521     1.0  0.63411  0.60532  0.40584  1.0000
  C   C894      1.0  0.59496  0.56826  0.40793  1.0000
  H   H1522     1.0  0.81826  0.52700  0.45486  1.0000
  H   H1523     1.0  0.98577  0.54119  0.31546  1.0000
  C   C895      1.0  0.61844  0.55561  0.42902  1.0000
  C   C896      1.0  0.58606  0.57474  0.38464  1.0000
  H   H1524     1.0  0.54709  0.54611  0.30501  1.0000
  C   C897      1.0  0.86197  0.57953  0.41601  1.0000
  H   H1525     1.0  0.79227  0.54588  0.39922  1.0000
  H   H1526     1.0  0.62691  0.50596  0.35192  1.0000
  H   H1527     1.0  0.62504  0.62607  0.44986  1.0000
  C   C898      1.0  0.59679  0.74641  0.37076  1.0000
  H   H1528     1.0  0.58047  0.55636  0.41782  1.0000
  H   H1529     1.0  0.60150  0.58225  0.42106  1.0000
  C   C899      1.0  0.81407  0.60244  0.48414  1.0000
  H   H1530     1.0  0.50642  0.58770  0.44505  1.0000
  H   H1531     1.0  0.57172  0.56072  0.37691  1.0000
  H   H1532     1.0  0.68148  0.50889  0.16562  1.0000
  H   H1533     1.0  0.58953  0.52106  0.35465  1.0000
  C   C900      1.0  0.61440  0.74906  0.42172  1.0000
  S   S263      1.0  0.87181  0.55288  0.47984  1.0000
  H   H1534     1.0  0.83700  0.56787  0.37640  1.0000
  H   H1535     1.0  0.82189  0.57125  0.44002  1.0000
  C   C901      1.0  0.00219  0.53895  0.34991  1.0000
  H   H1536     1.0  0.59807  0.58217  0.36972  1.0000
  H   H1537     1.0  0.58116  0.58741  0.38997  1.0000
  C   C902      1.0  0.85237  0.53797  0.38638  1.0000
  H   H1538     1.0  0.57224  0.50903  0.17327  1.0000
  Fe  Fe132     1.0  0.59811  0.67946  0.48162  1.0000
  H   H1539     1.0  0.85493  0.54015  0.42667  1.0000
  H   H1540     1.0  0.98236  0.55609  0.34156  1.0000
  C   C903      1.0  0.53613  0.50593  0.21197  1.0000
  C   C904      1.0  0.51262  0.53256  0.29943  1.0000
  C   C905      1.0  0.98386  0.54147  0.33604  1.0000
  H   H1541     1.0  0.64958  0.61114  0.46540  1.0000
  H   H1542     1.0  0.95156  0.53399  0.22349  1.0000
  H   H1543     1.0  0.60935  0.53683  0.46318  1.0000
  H   H1544     1.0  0.55918  0.73123  0.39860  1.0000
  H   H1545     1.0  0.51590  0.61944  0.46924  1.0000
  C   C906      1.0  0.99252  0.63652  0.47946  1.0000
  H   H1546     1.0  0.90860  0.51097  0.35730  1.0000
  C   C907      1.0  0.58082  0.75231  0.42787  1.0000
  H   H1547     1.0  0.90459  0.51459  0.21056  1.0000
  H   H1548     1.0  0.61195  0.74841  0.36160  1.0000
  H   H1549     1.0  0.69423  0.52287  0.13772  1.0000
  H   H1550     1.0  0.53801  0.52267  0.21338  1.0000
  H   H1551     1.0  0.96316  0.52193  0.24509  1.0000
  C   C908      1.0  0.63377  0.65058  0.47839  1.0000
  H   H1552     1.0  0.51216  0.54791  0.30102  1.0000
  C   C909      1.0  0.79169  0.59662  0.48607  1.0000
  H   H1553     1.0  0.78532  0.60707  0.47850  1.0000
  C   C910      1.0  0.95650  0.54939  0.57901  1.0000
  H   H1554     1.0  0.60472  0.62999  0.60801  1.0000
  H   H1555     1.0  0.95712  0.53467  0.57154  1.0000
  H   H1556     1.0  0.94809  0.60280  0.58825  1.0000
  H   H1557     1.0  0.00328  0.64334  0.54162  1.0000
  H   H1558     1.0  0.57777  0.59803  0.57519  1.0000
  H   H1559     1.0  0.54847  0.60545  0.55516  1.0000
  S   S264      1.0  0.88900  0.52224  0.53035  1.0000
  S   S265      1.0  0.89894  0.58490  0.52669  1.0000
  Fe  Fe133     1.0  0.56789  0.67905  0.52326  1.0000
  S   S266      1.0  0.60293  0.70069  0.51541  1.0000
  S   S267      1.0  0.55940  0.66542  0.56238  1.0000
  H   H1560     1.0  0.60336  0.64733  0.51987  1.0000
  S   S268      1.0  0.69570  0.57571  0.52152  1.0000
  H   H1561     1.0  0.51799  0.53465  0.72124  1.0000
  S   S269      1.0  0.91094  0.51386  0.64408  1.0000
  C   C911      1.0  0.70162  0.52236  0.53392  1.0000
  H   H1562     1.0  0.67130  0.65854  0.52399  1.0000
  H   H1563     1.0  0.85264  0.52024  0.67538  1.0000
  C   C912      1.0  0.66102  0.65121  0.50796  1.0000
  C   C913      1.0  0.55354  0.60892  0.53539  1.0000
  C   C914      1.0  0.80904  0.57013  0.50579  1.0000
  C   C915      1.0  0.51787  0.63626  0.54967  1.0000
  Fe  Fe134     1.0  0.89422  0.55309  0.51067  1.0000
  H   H1564     1.0  0.97854  0.59442  0.58722  1.0000
  H   H1565     1.0  0.50540  0.58964  0.76111  1.0000
  C   C916      1.0  0.64183  0.53105  0.56497  1.0000
  Fe  Fe135     1.0  0.92802  0.59931  0.50093  1.0000
  H   H1566     1.0  0.98429  0.55723  0.60441  1.0000
  H   H1567     1.0  0.51696  0.56954  0.71483  1.0000
  H   H1568     1.0  0.65293  0.54687  0.55836  1.0000
  S   S270      1.0  0.96162  0.62154  0.51773  1.0000
  H   H1569     1.0  0.93795  0.57493  0.59557  1.0000
  H   H1570     1.0  0.53117  0.54389  0.75140  1.0000
  H   H1571     1.0  0.62472  0.59220  0.53830  1.0000
  H   H1572     1.0  0.54017  0.53079  0.66757  1.0000
  C   C917      1.0  0.63448  0.52828  0.58983  1.0000
  C   C918      1.0  0.70089  0.53918  0.57354  1.0000
  C   C919      1.0  0.53457  0.64263  0.56728  1.0000
  C   C920      1.0  0.53133  0.63096  0.58956  1.0000
  S   S271      1.0  0.50484  0.54160  0.66982  1.0000
  H   H1573     1.0  0.68761  0.54233  0.56575  1.0000
  H   H1574     1.0  0.54427  0.63575  0.60317  1.0000
  N   N66       1.0  0.96621  0.56772  0.56079  1.0000
  H   H1575     1.0  0.95867  0.53867  0.61654  1.0000
  C   C921      1.0  0.57453  0.60698  0.52987  1.0000
  C   C922      1.0  0.90062  0.53364  0.60514  1.0000
  C   C923      1.0  0.51388  0.56400  0.79180  1.0000
  C   C924      1.0  0.60729  0.62150  0.59167  1.0000
  C   C925      1.0  0.72268  0.51391  0.59814  1.0000
  H   H1576     1.0  0.60398  0.58700  0.56083  1.0000
  C   C926      1.0  0.98841  0.63480  0.50517  1.0000
  C   C927      1.0  0.89461  0.52038  0.56224  1.0000
  C   C928      1.0  0.89607  0.53592  0.57989  1.0000
  H   H1577     1.0  0.64005  0.54201  0.60234  1.0000
  C   C929      1.0  0.96689  0.58819  0.57138  1.0000
  S   S272      1.0  0.55586  0.69990  0.50273  1.0000
  H   H1578     1.0  0.99032  0.55641  0.55290  1.0000
  H   H1579     1.0  0.89352  0.54956  0.57411  1.0000
  H   H1580     1.0  0.54023  0.59688  0.52386  1.0000
  H   H1581     1.0  0.93348  0.58350  0.56495  1.0000
  C   C930      1.0  0.89810  0.50592  0.72326  1.0000
  H   H1582     1.0  0.90171  0.54566  0.61873  1.0000
  H   H1583     1.0  0.73597  0.55862  0.57972  1.0000
  S   S273      1.0  0.64487  0.51555  0.51812  1.0000
  H   H1584     1.0  0.94890  0.54315  0.50323  1.0000
  H   H1585     1.0  0.71810  0.52449  0.60959  1.0000
  C   C931      1.0  0.95244  0.56165  0.53751  1.0000
  H   H1586     1.0  0.55473  0.62482  0.53014  1.0000
  H   H1587     1.0  0.72621  0.56435  0.55062  1.0000
  H   H1588     1.0  0.98089  0.50629  0.65926  1.0000
  H   H1589     1.0  0.68997  0.52836  0.52754  1.0000
  H   H1590     1.0  0.85995  0.51581  0.72364  1.0000
  C   C932      1.0  0.90403  0.51600  0.61274  1.0000
  H   H1591     1.0  0.52024  0.64522  0.53249  1.0000
  H   H1592     1.0  0.58608  0.64757  0.54402  1.0000
  H   H1593     1.0  0.96451  0.53798  0.52604  1.0000
  H   H1594     1.0  0.93578  0.52681  0.52999  1.0000
  H   H1595     1.0  0.89599  0.52082  0.72293  1.0000
  H   H1596     1.0  0.99167  0.57735  0.51445  1.0000
  C   C933      1.0  0.94521  0.58687  0.58047  1.0000
  H   H1597     1.0  0.97304  0.60124  0.55725  1.0000
  H   H1598     1.0  0.72057  0.57353  0.57942  1.0000
  H   H1599     1.0  0.93558  0.55839  0.54197  1.0000
  S   S274      1.0  0.68011  0.62364  0.50790  1.0000
  N   N67       1.0  0.70028  0.51906  0.56189  1.0000
  H   H1600     1.0  0.54380  0.55687  0.72315  1.0000
  C   C934      1.0  0.59982  0.64395  0.54013  1.0000
  C   C935      1.0  0.63491  0.51329  0.54885  1.0000
  H   H1601     1.0  0.60747  0.60667  0.59922  1.0000
  S   S275      1.0  0.74929  0.56977  0.50251  1.0000
  S   S276      1.0  0.56356  0.65713  0.49072  1.0000
  H   H1602     1.0  0.93907  0.54451  0.58144  1.0000
  H   H1603     1.0  0.69778  0.53748  0.59389  1.0000
  H   H1604     1.0  0.57818  0.61056  0.50961  1.0000
  C   C936      1.0  0.77774  0.57764  0.49830  1.0000
  H   H1605     1.0  0.96501  0.56650  0.61533  1.0000
  Fe  Fe136     1.0  0.59051  0.72048  0.49240  1.0000
  C   C937      1.0  0.51819  0.56485  0.73443  1.0000
  H   H1606     1.0  0.51459  0.66530  0.60553  1.0000
  H   H1607     1.0  0.64674  0.67342  0.50850  1.0000
  H   H1608     1.0  0.95771  0.57532  0.52414  1.0000
  C   C938      1.0  0.58834  0.61562  0.57290  1.0000
  C   C939      1.0  0.96699  0.55354  0.60520  1.0000
  N   N68       1.0  0.59403  0.62070  0.54571  1.0000
  Fe  Fe137     1.0  0.66978  0.54714  0.50202  1.0000
  C   C940      1.0  0.52800  0.54888  0.73279  1.0000
  H   H1609     1.0  0.63406  0.65982  0.55279  1.0000
  H   H1610     1.0  0.87894  0.52845  0.68745  1.0000
  H   H1611     1.0  0.53053  0.57973  0.74352  1.0000
  H   H1612     1.0  0.57852  0.62373  0.57949  1.0000
  C   C941      1.0  0.66211  0.63362  0.49592  1.0000
  H   H1613     1.0  0.62198  0.67729  0.54783  1.0000
  H   H1614     1.0  0.57014  0.58960  0.53216  1.0000
  H   H1615     1.0  0.62349  0.63207  0.58440  1.0000
  Fe  Fe138     1.0  0.68670  0.59557  0.49429  1.0000
  C   C942      1.0  0.82305  0.58933  0.49400  1.0000
  C   C943      1.0  0.61882  0.66115  0.55500  1.0000
  C   C944      1.0  0.95037  0.54121  0.52364  1.0000
  H   H1616     1.0  0.61474  0.66106  0.57503  1.0000
  C   C945      1.0  0.61221  0.61589  0.53719  1.0000
  C   C946      1.0  0.60907  0.59269  0.54154  1.0000
  C   C947      1.0  0.64698  0.65962  0.49932  1.0000
  C   C948      1.0  0.51139  0.61318  0.59440  1.0000
  C   C949      1.0  0.86332  0.51402  0.68411  1.0000
  H   H1617     1.0  0.59741  0.58121  0.52798  1.0000
  H   H1618     1.0  0.61495  0.61900  0.51679  1.0000
  H   H1619     1.0  0.62789  0.62679  0.54577  1.0000
  C   C950      1.0  0.98907  0.57176  0.55522  1.0000
  H   H1620     1.0  0.71778  0.53491  0.52841  1.0000
  H   H1621     1.0  0.81548  0.55983  0.51363  1.0000
  C   C951      1.0  0.72223  0.55989  0.57045  1.0000
  C   C952      1.0  0.52548  0.51589  0.66904  1.0000
  H   H1622     1.0  0.73458  0.52741  0.56169  1.0000
  H   H1623     1.0  0.91343  0.50950  0.71342  1.0000
  C   C953      1.0  0.50545  0.51641  0.66982  1.0000
  Fe  Fe139     1.0  0.87808  0.58578  0.49409  1.0000
  H   H1624     1.0  0.66435  0.51045  0.59753  1.0000
  H   H1625     1.0  0.74019  0.51965  0.60189  1.0000
  C   C954      1.0  0.78671  0.56447  0.50805  1.0000
  H   H1626     1.0  0.53051  0.57103  0.78428  1.0000
  H   H1627     1.0  0.77629  0.54976  0.51757  1.0000
  H   H1628     1.0  0.51387  0.55500  0.80897  1.0000
  C   C955      1.0  0.71917  0.51519  0.56983  1.0000
  H   H1629     1.0  0.50901  0.60429  0.61162  1.0000
  C   C956      1.0  0.62007  0.50781  0.59864  1.0000
  C   C957      1.0  0.99628  0.50849  0.66674  1.0000
  Fe  Fe140     1.0  0.71888  0.57466  0.49205  1.0000
  C   C958      1.0  0.99946  0.58576  0.53207  1.0000
  H   H1630     1.0  0.50916  0.63159  0.67971  1.0000
  H   H1631     1.0  0.99894  0.60147  0.53289  1.0000
  H   H1632     1.0  0.50956  0.65582  0.64589  1.0000
  H   H1633     1.0  0.69980  0.50736  0.49774  1.0000
  H   H1634     1.0  0.99989  0.57990  0.57135  1.0000
  H   H1635     1.0  0.50971  0.57699  0.79783  1.0000
  S   S277      1.0  0.85177  0.59804  0.49139  1.0000
  Fe  Fe141     1.0  0.57410  0.90599  0.46871  1.0000
  S   S278      1.0  0.56251  0.91566  0.43336  1.0000
  S   S279      1.0  0.60396  0.90146  0.46304  1.0000
  H   H1636     1.0  0.57242  0.76262  0.42571  1.0000
  H   H1637     1.0  0.65202  0.00112  0.44330  1.0000
  C   C959      1.0  0.61570  0.78428  0.42808  1.0000
  H   H1638     1.0  0.60445  0.94972  0.43858  1.0000
  H   H1639     1.0  0.52773  0.88966  0.35308  1.0000
  H   H1640     1.0  0.60150  0.80264  0.40744  1.0000
  H   H1641     1.0  0.51366  0.99114  0.23181  1.0000
  H   H1642     1.0  0.63318  0.95419  0.40633  1.0000
  C   C960      1.0  0.53515  0.90683  0.42546  1.0000
  H   H1643     1.0  0.61882  0.78243  0.44814  1.0000
  H   H1644     1.0  0.51126  0.83142  0.31495  1.0000
  H   H1645     1.0  0.51406  0.86798  0.38838  1.0000
  H   H1646     1.0  0.51747  0.84282  0.35365  1.0000
  C   C961      1.0  0.51853  0.89086  0.43908  1.0000
  H   H1647     1.0  0.52232  0.88390  0.45531  1.0000
  H   H1648     1.0  0.58827  0.77098  0.38458  1.0000
  H   H1649     1.0  0.65032  0.99883  0.41026  1.0000
  C   C962      1.0  0.63644  0.95724  0.42658  1.0000
  C   C963      1.0  0.60588  0.80034  0.42676  1.0000
  H   H1650     1.0  0.59361  0.96211  0.40445  1.0000
  C   C964      1.0  0.68297  0.99455  0.47809  1.0000
  C   C965      1.0  0.60851  0.97777  0.40379  1.0000
  H   H1651     1.0  0.69126  0.98535  0.47199  1.0000
  H   H1652     1.0  0.63196  0.79278  0.41950  1.0000
  C   C966      1.0  0.62046  0.96404  0.43944  1.0000
  H   H1653     1.0  0.54290  0.92815  0.39383  1.0000
  H   H1654     1.0  0.61577  0.00476  0.37803  1.0000
  C   C967      1.0  0.60267  0.99434  0.39081  1.0000
  H   H1655     1.0  0.51115  0.96235  0.26483  1.0000
  H   H1656     1.0  0.62476  0.96621  0.45964  1.0000
  H   H1657     1.0  0.58181  0.95855  0.46005  1.0000
  H   H1658     1.0  0.63471  0.94194  0.43505  1.0000
  C   C968      1.0  0.50461  0.98724  0.24961  1.0000
  H   H1659     1.0  0.61492  0.99358  0.46612  1.0000
  N   N69       1.0  0.60283  0.76252  0.41588  1.0000
  S   S280      1.0  0.58314  0.83860  0.48830  1.0000
  C   C969      1.0  0.50968  0.85061  0.38976  1.0000
  H   H1660     1.0  0.61801  0.81631  0.43374  1.0000
  H   H1661     1.0  0.65348  0.96916  0.42981  1.0000
  C   C970      1.0  0.58307  0.97354  0.45134  1.0000
  C   C971      1.0  0.53009  0.91576  0.40440  1.0000
  H   H1662     1.0  0.51865  0.95658  0.22414  1.0000
  N   N70       1.0  0.61936  0.98378  0.42905  1.0000
  C   C972      1.0  0.50855  0.90874  0.39687  1.0000
  H   H1663     1.0  0.59174  0.79560  0.43920  1.0000
  H   H1664     1.0  0.51577  0.99782  0.26425  1.0000
  H   H1665     1.0  0.61891  0.97447  0.39038  1.0000
  H   H1666     1.0  0.57364  0.96957  0.43367  1.0000
  C   C973      1.0  0.66243  0.98382  0.48874  1.0000
  H   H1667     1.0  0.58770  0.98559  0.37956  1.0000
  H   H1668     1.0  0.57527  0.98037  0.46439  1.0000
  H   H1669     1.0  0.52418  0.84928  0.39673  1.0000
  C   C974      1.0  0.60111  0.76579  0.38822  1.0000
  H   H1670     1.0  0.61641  0.77922  0.38145  1.0000
  H   H1671     1.0  0.56518  0.76087  0.48720  1.0000
  H   H1672     1.0  0.55709  0.79239  0.48447  1.0000
  C   C975      1.0  0.64220  0.00146  0.42693  1.0000
  H   H1673     1.0  0.64892  0.77166  0.42475  1.0000
  C   C976      1.0  0.51846  0.87983  0.33683  1.0000
  C   C977      1.0  0.60677  0.99017  0.44748  1.0000
  H   H1674     1.0  0.52639  0.87029  0.32948  1.0000
  H   H1675     1.0  0.52002  0.89175  0.32216  1.0000
  C   C978      1.0  0.57346  0.79502  0.48808  1.0000
  H   H1676     1.0  0.63977  0.76362  0.39291  1.0000
  C   C979      1.0  0.63794  0.75820  0.41259  1.0000
  C   C980      1.0  0.57802  0.77700  0.48962  1.0000
  H   H1677     1.0  0.50968  0.92581  0.25381  1.0000
  H   H1678     1.0  0.50483  0.91574  0.38061  1.0000
  C   C981      1.0  0.50636  0.99114  0.31787  1.0000
  H   H1679     1.0  0.51007  0.93549  0.18471  1.0000
  S   S281      1.0  0.50468  0.96527  0.32241  1.0000
  H   H1680     1.0  0.59889  0.00462  0.40368  1.0000
  H   H1681     1.0  0.51784  0.95617  0.57467  1.0000
  H   H1682     1.0  0.51762  0.81688  0.85948  1.0000
  N   N71       1.0  0.55969  0.83860  0.57138  1.0000
  H   H1683     1.0  0.51803  0.94133  0.61813  1.0000
  H   H1684     1.0  0.52389  0.82078  0.53352  1.0000
  H   H1685     1.0  0.51273  0.97710  0.58940  1.0000
  Fe  Fe142     1.0  0.57673  0.90289  0.52531  1.0000
  S   S282      1.0  0.56590  0.90441  0.56505  1.0000
  S   S283      1.0  0.60714  0.89868  0.52301  1.0000
  H   H1686     1.0  0.61558  0.87259  0.57281  1.0000
  H   H1687     1.0  0.58979  0.98667  0.59344  1.0000
  H   H1688     1.0  0.55210  0.96234  0.57882  1.0000
  H   H1689     1.0  0.55530  0.79080  0.57003  1.0000
  H   H1690     1.0  0.55701  0.95246  0.67301  1.0000
  H   H1691     1.0  0.63193  0.80391  0.50025  1.0000
  H   H1692     1.0  0.52564  0.83069  0.57439  1.0000
  C   C982      1.0  0.53945  0.89952  0.57328  1.0000
  C   C983      1.0  0.52306  0.89420  0.55542  1.0000
  C   C984      1.0  0.60164  0.85652  0.56990  1.0000
  C   C985      1.0  0.58124  0.96955  0.59911  1.0000
  H   H1693     1.0  0.51533  0.96305  0.63171  1.0000
  H   H1694     1.0  0.52918  0.99816  0.63060  1.0000
  H   H1695     1.0  0.52645  0.89300  0.53591  1.0000
  H   H1696     1.0  0.54206  0.85715  0.56348  1.0000
  C   C986      1.0  0.54155  0.85333  0.60351  1.0000
  S   S284      1.0  0.51042  0.95955  0.68817  1.0000
  H   H1697     1.0  0.54748  0.97936  0.65529  1.0000
  H   H1698     1.0  0.53831  0.80951  0.51613  1.0000
  H   H1699     1.0  0.60426  0.84534  0.58266  1.0000
  C   C987      1.0  0.54173  0.84473  0.57692  1.0000
  H   H1700     1.0  0.53295  0.93926  0.65501  1.0000
  N   N72       1.0  0.54716  0.97162  0.61610  1.0000
  C   C988      1.0  0.56758  0.80563  0.57918  1.0000
  C   C989      1.0  0.53480  0.90090  0.59857  1.0000
  H   H1701     1.0  0.58577  0.96016  0.58546  1.0000
  C   C990      1.0  0.51120  0.98501  0.68294  1.0000
  H   H1702     1.0  0.58246  0.86296  0.59637  1.0000
  C   C991      1.0  0.53630  0.81482  0.53516  1.0000
  H   H1703     1.0  0.56143  0.84735  0.53242  1.0000
  H   H1704     1.0  0.63638  0.98841  0.50521  1.0000
  C   C992      1.0  0.51155  0.96071  0.59154  1.0000
  H   H1705     1.0  0.57328  0.79995  0.59575  1.0000
  H   H1706     1.0  0.58128  0.87228  0.56579  1.0000
  C   C993      1.0  0.51403  0.89742  0.60597  1.0000
  C   C994      1.0  0.58080  0.85824  0.57631  1.0000
  H   H1707     1.0  0.55843  0.94177  0.64302  1.0000
  H   H1708     1.0  0.55488  0.86976  0.60627  1.0000
  C   C995      1.0  0.55425  0.99450  0.60769  1.0000
  H   H1709     1.0  0.54739  0.90487  0.61251  1.0000
  H   H1710     1.0  0.53978  0.80912  0.59076  1.0000
  H   H1711     1.0  0.54503  0.00233  0.69214  1.0000
  H   H1712     1.0  0.57056  0.82793  0.53834  1.0000
  H   H1713     1.0  0.56377  0.82627  0.60716  1.0000
  C   C996      1.0  0.55811  0.83289  0.54401  1.0000
  C   C997      1.0  0.55724  0.82017  0.58816  1.0000
  H   H1714     1.0  0.52632  0.85478  0.60605  1.0000
  H   H1715     1.0  0.58727  0.96736  0.61758  1.0000
  C   C998      1.0  0.52289  0.95883  0.61563  1.0000
  H   H1716     1.0  0.60235  0.85223  0.55006  1.0000
  H   H1717     1.0  0.51063  0.89857  0.62549  1.0000
  C   C999      1.0  0.55051  0.94999  0.65362  1.0000
  H   H1718     1.0  0.58166  0.81336  0.56676  1.0000
  S   S285      1.0  0.58847  0.93101  0.49901  1.0000
  C   C1000     1.0  0.55648  0.96094  0.59852  1.0000
  H   H1719     1.0  0.54939  0.94337  0.60202  1.0000
  C   C1001     1.0  0.65211  0.99632  0.49664  1.0000
  H   H1720     1.0  0.57267  0.98286  0.64413  1.0000
  H   H1721     1.0  0.53042  0.80057  0.54752  1.0000
  H   H1722     1.0  0.51192  0.81382  0.82691  1.0000
  C   C1002     1.0  0.55506  0.97210  0.64247  1.0000
  H   H1723     1.0  0.51553  0.84927  0.84668  1.0000
  S   S286      1.0  0.55937  0.87820  0.49546  1.0000
  H   H1724     1.0  0.50958  0.85296  0.80179  1.0000
  H   H1725     1.0  0.62378  0.83535  0.49801  1.0000
  C   C1003     1.0  0.61090  0.81921  0.49568  1.0000
  H   H1726     1.0  0.55072  0.99535  0.58751  1.0000
  H   H1727     1.0  0.54213  0.84240  0.61824  1.0000
  C   C1004     1.0  0.61549  0.80124  0.49697  1.0000
  S   S287      1.0  0.60657  0.75802  0.49395  1.0000
  C   C1005     1.0  0.59917  0.77993  0.49391  1.0000
  C   C1006     1.0  0.53075  0.00369  0.68616  1.0000
  Fe  Fe143     1.0  0.61778  0.92570  0.49462  1.0000
  C   C1007     1.0  0.58985  0.81633  0.49097  1.0000
  C   C1008     1.0  0.50515  0.81496  0.84524  1.0000
  H   H1728     1.0  0.57213  0.00378  0.60886  1.0000
  Fe  Fe144     1.0  0.59038  0.87483  0.49180  1.0000
  S   S288      1.0  0.65121  0.95496  0.49130  1.0000
