data_image0
_chemical_formula_structural       HFeS2FeSFeSFeS3H2CH2C3H4CH2CH2C2SC3HCH3CH2CHC2H2CHCNCSHC4H6CH2CH3CH2CHC2HCNSCH5CH2CNH2CH2CHC2H3C2HCHCH3CH3C2H2CH3CH2NHCH5CHCH4CH2CHFeSCFeS2Fe2S3FeS2FeS2FeSFeS3H2C3H2CH2CHC6H5C6H6CH3SHCNCH2CH2CH9CH2SCH2NC8H21NC4H4C2H5CHCH2CH3C2HCH2CHNH2CH2CH2C3H4FeSFeHSHFeSCFeSFeS2CS3HC6H5FeH10CFeHCH3CHNH5CFeH5CH2CSHC3HC2HCHCH3CHNHCH6C2H2C2SHCH3C2HCHNH2C2H5CSHCSH3FeS2FeSHCFeS3HCHSHCSCH4C5H5SCHC3HC3H2C4H3NH2CNH3CHCH2CHC2H4CFeCH3C2SH6CHC2H2CHC2NH6CHC2H12CH2CH3C3HC2HC2HCHCH5FeS2FeS2FeSFeS3FeS2FeSHFe2S3H4CH8C2H2C6H5C5H5C2HCNH3CH5CH6C2H5C2H2CHC4H2C2H4C2NCH2CH5CHCH5C2HCH4SHC2H3FeS2FeS2FeHFeS3FeS2FeSCFeSFeS2CH2C2NC2H2C6H8C6H9CH6CH3C2H2NCHCH3SH3C3H6CH2C5HC4H3SHCH4C2HC2HCH3NH4CFeS2FeS2Fe2S3C2H2CH2CHCNCH2C6H4CH2C4H5C2H3CH2CH2CH4CH2CH10NH2CSHC2SH3SC2H4CH2C3HCHCHSCNCH4CH2C4HSH5CH4CHCH4C2H3C4HCHCH5C2H3NCH3CHCSHFeSC2SHFeS2CSFeS2CHCHS2H2CHC6H4NC8H16SH7FeH2CHNHFeSFeH2CH3CH6CH8CHCH3FeC2H2CHFeHCSFeS2FeS2FeCFeS3FeS2CSFeHFeS3H4C7H4CH5C6H4CH3NC8H3CH10CNHCH3CHCFeH5NHC2HCH3CH2C2NC5HC2H21C2HCH4C2HCH3CHCHCHFeSFeS2FeSFeS3HCHC2NH2C3H3C6H5C3H5CH4CHSC3HCH2NCSH7C2HCH2C3HSH4CHCH2C2HCH3CH7NH6SH2C2
_chemical_formula_sum              "H768 Fe64 S128 C448 N32"
_cell_length_a       46.8513
_cell_length_b       48.885
_cell_length_c       30.4665
_cell_angle_alpha    87.708
_cell_angle_beta     111.229
_cell_angle_gamma    89.9824

_space_group_name_H-M_alt    "P 1"
_space_group_IT_number       1

loop_
  _space_group_symop_operation_xyz
  'x, y, z'

loop_
  _atom_site_type_symbol
  _atom_site_label
  _atom_site_symmetry_multiplicity
  _atom_site_fract_x
  _atom_site_fract_y
  _atom_site_fract_z
  _atom_site_occupancy
  H   H1        1.0  0.05013  0.17200  0.43185  1.0000
  Fe  Fe1       1.0  0.09108  0.24600  0.28405  1.0000
  S   S1        1.0  0.10397  0.21197  0.24760  1.0000
  S   S2        1.0  0.12352  0.28057  0.31876  1.0000
  Fe  Fe2       1.0  0.02684  0.22045  0.26755  1.0000
  S   S3        1.0  0.03616  0.18492  0.22982  1.0000
  Fe  Fe3       1.0  0.08270  0.18451  0.28787  1.0000
  S   S4        1.0  0.10824  0.14859  0.33428  1.0000
  Fe  Fe4       1.0  0.05602  0.21645  0.19311  1.0000
  S   S5        1.0  0.04897  0.22534  0.11558  1.0000
  S   S6        1.0  0.07219  0.21844  0.32722  1.0000
  S   S7        1.0  0.04410  0.25219  0.22785  1.0000
  H   H2        1.0  0.39815  0.22862  0.00226  1.0000
  H   H3        1.0  0.47111  0.20733  0.18204  1.0000
  C   C1        1.0  0.07064  0.16225  0.43141  1.0000
  H   H4        1.0  0.46206  0.28900  0.43944  1.0000
  H   H5        1.0  0.06107  0.18083  0.03159  1.0000
  C   C2        1.0  0.10177  0.14827  0.38756  1.0000
  C   C3        1.0  0.07461  0.15949  0.38849  1.0000
  C   C4        1.0  0.12439  0.13848  0.42978  1.0000
  H   H6        1.0  0.05665  0.16633  0.35600  1.0000
  H   H7        1.0  0.14550  0.12984  0.42915  1.0000
  H   H8        1.0  0.16576  0.26308  0.18686  1.0000
  H   H9        1.0  0.42150  0.29933  0.17368  1.0000
  C   C5        1.0  0.49991  0.23616  0.05232  1.0000
  H   H10       1.0  0.07786  0.09667  0.41411  1.0000
  H   H11       1.0  0.44197  0.25891  0.44394  1.0000
  C   C6        1.0  0.17846  0.26363  0.31150  1.0000
  H   H12       1.0  0.14676  0.23508  0.20258  1.0000
  H   H13       1.0  0.16688  0.24510  0.29701  1.0000
  C   C7        1.0  0.16271  0.28395  0.32512  1.0000
  C   C8        1.0  0.40094  0.27297  0.11325  1.0000
  S   S8        1.0  0.26368  0.29478  0.33873  1.0000
  C   C9        1.0  0.43967  0.25433  0.31137  1.0000
  C   C10       1.0  0.45965  0.26046  0.28732  1.0000
  C   C11       1.0  0.46031  0.28731  0.27014  1.0000
  H   H14       1.0  0.37651  0.23619  0.03823  1.0000
  C   C12       1.0  0.39939  0.22958  0.03933  1.0000
  H   H15       1.0  0.43890  0.23360  0.32470  1.0000
  H   H16       1.0  0.44265  0.18702  0.14093  1.0000
  H   H17       1.0  0.39735  0.29059  0.08740  1.0000
  C   C13       1.0  0.10105  0.23587  0.46385  1.0000
  H   H18       1.0  0.18057  0.23432  0.40049  1.0000
  H   H19       1.0  0.02046  0.20892  0.46350  1.0000
  C   C14       1.0  0.42455  0.24978  0.06513  1.0000
  H   H20       1.0  0.28389  0.25628  0.45514  1.0000
  C   C15       1.0  0.14388  0.21729  0.42245  1.0000
  C   C16       1.0  0.42057  0.27481  0.31819  1.0000
  H   H21       1.0  0.43136  0.23377  0.18034  1.0000
  H   H22       1.0  0.02551  0.24528  0.01899  1.0000
  C   C17       1.0  0.08250  0.31085  0.15551  1.0000
  H   H23       1.0  0.29688  0.20915  0.48449  1.0000
  C   C18       1.0  0.16691  0.21548  0.39715  1.0000
  N   N1        1.0  0.15721  0.22254  0.47437  1.0000
  C   C19       1.0  0.40251  0.28476  0.16030  1.0000
  S   S9        1.0  0.34885  0.29878  0.38768  1.0000
  H   H24       1.0  0.37935  0.26122  0.10021  1.0000
  C   C20       1.0  0.07447  0.99740  0.47471  1.0000
  C   C21       1.0  0.20934  0.26730  0.31648  1.0000
  C   C22       1.0  0.22497  0.29130  0.33496  1.0000
  C   C23       1.0  0.42790  0.22928  0.14325  1.0000
  H   H25       1.0  0.46226  0.27186  0.17667  1.0000
  H   H26       1.0  0.09872  0.99094  0.48392  1.0000
  H   H27       1.0  0.47558  0.29246  0.25181  1.0000
  H   H28       1.0  0.12558  0.27360  0.22597  1.0000
  H   H29       1.0  0.47308  0.20422  0.01001  1.0000
  H   H30       1.0  0.08282  0.29873  0.22624  1.0000
  C   C24       1.0  0.15821  0.27535  0.45964  1.0000
  H   H31       1.0  0.40528  0.26983  0.33665  1.0000
  H   H32       1.0  0.22119  0.25149  0.30553  1.0000
  C   C25       1.0  0.11910  0.30214  0.11764  1.0000
  H   H33       1.0  0.13484  0.24654  0.14247  1.0000
  H   H34       1.0  0.47735  0.25668  0.13818  1.0000
  H   H35       1.0  0.08877  0.22289  0.43388  1.0000
  C   C26       1.0  0.11928  0.27262  0.18726  1.0000
  H   H36       1.0  0.09746  0.26112  0.17546  1.0000
  H   H37       1.0  0.15392  0.21329  0.35890  1.0000
  C   C27       1.0  0.11784  0.04221  0.48145  1.0000
  H   H38       1.0  0.13082  0.19791  0.41667  1.0000
  C   C28       1.0  0.45285  0.20770  0.14645  1.0000
  C   C29       1.0  0.49529  0.28045  0.01212  1.0000
  H   H39       1.0  0.43918  0.28769  0.47644  1.0000
  C   C30       1.0  0.14312  0.25369  0.17898  1.0000
  N   N2        1.0  0.08473  0.04947  0.47246  1.0000
  S   S10       1.0  0.48232  0.23391  0.27755  1.0000
  C   C31       1.0  0.47936  0.22553  0.01036  1.0000
  H   H40       1.0  0.14220  0.27301  0.42317  1.0000
  H   H41       1.0  0.04144  0.05237  0.41261  1.0000
  H   H42       1.0  0.05250  0.08337  0.36227  1.0000
  H   H43       1.0  0.06552  0.29573  0.13515  1.0000
  H   H44       1.0  0.17517  0.29026  0.45588  1.0000
  C   C32       1.0  0.45777  0.26948  0.13861  1.0000
  H   H45       1.0  0.44629  0.24204  0.06344  1.0000
  H   H46       1.0  0.47952  0.31471  0.38107  1.0000
  C   C33       1.0  0.07322  0.07799  0.39370  1.0000
  N   N3        1.0  0.42784  0.25535  0.11508  1.0000
  H   H47       1.0  0.07044  0.03478  0.40174  1.0000
  H   H48       1.0  0.09243  0.07383  0.38160  1.0000
  C   C34       1.0  0.01813  0.21420  0.06585  1.0000
  H   H49       1.0  0.12687  0.23322  0.40246  1.0000
  H   H50       1.0  0.46395  0.21102  0.12029  1.0000
  C   C35       1.0  0.44056  0.30751  0.27559  1.0000
  H   H51       1.0  0.40515  0.21933  0.13023  1.0000
  C   C36       1.0  0.45511  0.27605  0.46446  1.0000
  C   C37       1.0  0.29446  0.26797  0.48752  1.0000
  H   H52       1.0  0.13128  0.08024  0.45229  1.0000
  H   H53       1.0  0.40480  0.20851  0.05521  1.0000
  H   H54       1.0  0.48356  0.30623  0.13721  1.0000
  C   C38       1.0  0.06656  0.05274  0.42028  1.0000
  C   C39       1.0  0.46092  0.29771  0.11643  1.0000
  H   H55       1.0  0.38104  0.29650  0.15451  1.0000
  C   C40       1.0  0.42070  0.30149  0.29980  1.0000
  H   H56       1.0  0.00539  0.18061  0.10230  1.0000
  C   C41       1.0  0.01212  0.22771  0.02168  1.0000
  H   H57       1.0  0.46044  0.29605  0.07997  1.0000
  H   H58       1.0  0.41975  0.26908  0.04281  1.0000
  H   H59       1.0  0.08989  0.26628  0.09058  1.0000
  C   C42       1.0  0.17838  0.30783  0.34409  1.0000
  H   H60       1.0  0.10335  0.28367  0.04895  1.0000
  H   H61       1.0  0.11954  0.02824  0.45446  1.0000
  H   H62       1.0  0.03633  0.08956  0.45366  1.0000
  C   C43       1.0  0.09327  0.15299  0.47367  1.0000
  C   C44       1.0  0.05391  0.17161  0.99652  1.0000
  H   H63       1.0  0.07317  0.29873  0.06309  1.0000
  H   H64       1.0  0.10305  0.25683  0.45040  1.0000
  C   C45       1.0  0.09491  0.28669  0.07814  1.0000
  H   H65       1.0  0.40434  0.26862  0.18783  1.0000
  H   H66       1.0  0.18210  0.19715  0.40927  1.0000
  H   H67       1.0  0.50123  0.30186  0.01270  1.0000
  C   C46       1.0  0.20930  0.31154  0.34896  1.0000
  H   H68       1.0  0.00725  0.21215  0.40059  1.0000
  H   H69       1.0  0.14187  0.29390  0.12087  1.0000
  N   N4        1.0  0.11484  0.30113  0.16443  1.0000
  H   H70       1.0  0.17682  0.31627  0.17563  1.0000
  C   C47       1.0  0.12011  0.14076  0.47293  1.0000
  H   H71       1.0  0.06827  0.15295  0.00115  1.0000
  H   H72       1.0  0.17972  0.29822  0.23069  1.0000
  H   H73       1.0  0.06192  0.99610  0.43627  1.0000
  H   H74       1.0  0.14584  0.28455  0.48053  1.0000
  H   H75       1.0  0.29661  0.28919  0.47458  1.0000
  C   C48       1.0  0.13978  0.06603  0.48349  1.0000
  H   H76       1.0  0.08630  0.23712  0.48523  1.0000
  C   C49       1.0  0.07485  0.31587  0.19972  1.0000
  H   H77       1.0  0.44329  0.31269  0.11681  1.0000
  H   H78       1.0  0.16213  0.05756  0.48499  1.0000
  H   H79       1.0  0.04648  0.02945  0.48419  1.0000
  H   H80       1.0  0.19658  0.24704  0.47660  1.0000
  C   C50       1.0  0.50303  0.31022  0.38242  1.0000
  H   H81       1.0  0.50205  0.29077  0.36432  1.0000
  H   H82       1.0  0.16784  0.17907  0.48683  1.0000
  C   C51       1.0  0.17511  0.24867  0.48417  1.0000
  H   H83       1.0  0.19942  0.19943  0.48776  1.0000
  Fe  Fe5       1.0  0.39577  0.27947  0.75272  1.0000
  S   S11       1.0  0.40053  0.24754  0.70532  1.0000
  C   C52       1.0  0.05808  0.19292  0.96080  1.0000
  Fe  Fe6       1.0  0.42278  0.24115  0.83994  1.0000
  S   S12       1.0  0.42791  0.20689  0.79549  1.0000
  S   S13       1.0  0.43908  0.22816  0.91845  1.0000
  Fe  Fe7       1.0  0.44701  0.23970  0.76012  1.0000
  Fe  Fe8       1.0  0.38034  0.21870  0.74510  1.0000
  S   S14       1.0  0.34192  0.19230  0.69633  1.0000
  S   S15       1.0  0.44364  0.27327  0.80605  1.0000
  S   S16       1.0  0.37388  0.25107  0.79116  1.0000
  Fe  Fe9       1.0  0.11687  0.13624  0.59391  1.0000
  S   S17       1.0  0.13054  0.15715  0.66268  1.0000
  S   S18       1.0  0.08749  0.15851  0.52642  1.0000
  Fe  Fe10      1.0  0.13967  0.07974  0.64038  1.0000
  S   S19       1.0  0.15478  0.09629  0.71309  1.0000
  S   S20       1.0  0.13790  0.03669  0.61257  1.0000
  Fe  Fe11      1.0  0.11034  0.12086  0.68778  1.0000
  S   S21       1.0  0.07486  0.12003  0.72339  1.0000
  Fe  Fe12      1.0  0.17400  0.13164  0.68221  1.0000
  S   S22       1.0  0.22028  0.14974  0.72633  1.0000
  S   S23       1.0  0.09414  0.10161  0.61759  1.0000
  S   S24       1.0  0.16148  0.11351  0.61091  1.0000
  H   H84       1.0  0.17317  0.19465  0.56735  1.0000
  H   H85       1.0  0.08216  0.02460  0.53156  1.0000
  C   C53       1.0  0.14858  0.00388  0.64181  1.0000
  C   C54       1.0  0.16674  0.00071  0.68966  1.0000
  C   C55       1.0  0.35890  0.22168  0.57440  1.0000
  H   H86       1.0  0.17379  0.01855  0.71053  1.0000
  H   H87       1.0  0.12658  0.20142  0.50290  1.0000
  C   C56       1.0  0.03865  0.23459  0.88092  1.0000
  H   H88       1.0  0.47419  0.24685  0.52162  1.0000
  H   H89       1.0  0.35613  0.20636  0.54725  1.0000
  C   C57       1.0  0.00947  0.14658  0.89999  1.0000
  H   H90       1.0  0.20734  0.17972  0.56565  1.0000
  C   C58       1.0  0.05246  0.14784  0.73015  1.0000
  C   C59       1.0  0.02643  0.14218  0.74149  1.0000
  C   C60       1.0  0.17900  0.19903  0.49823  1.0000
  C   C61       1.0  0.01761  0.19075  0.74779  1.0000
  C   C62       1.0  0.04348  0.19643  0.73602  1.0000
  C   C63       1.0  0.06068  0.17515  0.72687  1.0000
  H   H91       1.0  0.46312  0.31017  0.54424  1.0000
  H   H92       1.0  0.30657  0.29430  0.56949  1.0000
  H   H93       1.0  0.05041  0.21743  0.73432  1.0000
  H   H94       1.0  0.08072  0.17985  0.71843  1.0000
  H   H95       1.0  0.02663  0.13545  0.93024  1.0000
  C   C64       1.0  0.30760  0.18156  0.70441  1.0000
  C   C65       1.0  0.30251  0.18569  0.74617  1.0000
  C   C66       1.0  0.27550  0.17616  0.75172  1.0000
  C   C67       1.0  0.25291  0.16272  0.71551  1.0000
  C   C68       1.0  0.25781  0.15874  0.67347  1.0000
  C   C69       1.0  0.28504  0.16800  0.66811  1.0000
  H   H96       1.0  0.31956  0.19597  0.77448  1.0000
  H   H97       1.0  0.27213  0.17925  0.78450  1.0000
  H   H98       1.0  0.24092  0.14812  0.64550  1.0000
  H   H99       1.0  0.28879  0.16447  0.63579  1.0000
  H   H100      1.0  0.49238  0.28934  0.64364  1.0000
  H   H101      1.0  0.33930  0.24533  0.63542  1.0000
  C   C70       1.0  0.46660  0.24228  0.96907  1.0000
  H   H102      1.0  0.27381  0.19159  0.51201  1.0000
  H   H103      1.0  0.13996  0.23296  0.52905  1.0000
  H   H104      1.0  0.07236  0.14348  0.93442  1.0000
  S   S25       1.0  0.48980  0.23381  0.74197  1.0000
  H   H105      1.0  0.18353  0.25247  0.52248  1.0000
  C   C71       1.0  0.48312  0.26423  0.50591  1.0000
  N   N5        1.0  0.50012  0.28395  0.54322  1.0000
  C   C72       1.0  0.49376  0.30480  0.61683  1.0000
  H   H106      1.0  0.20497  0.21597  0.56780  1.0000
  H   H107      1.0  0.31593  0.01204  0.78629  1.0000
  C   C73       1.0  0.13216  0.22272  0.49475  1.0000
  H   H108      1.0  0.28256  0.23280  0.55074  1.0000
  H   H109      1.0  0.27839  0.26913  0.50637  1.0000
  C   C74       1.0  0.32686  0.25637  0.51693  1.0000
  H   H110      1.0  0.49039  0.29259  0.75808  1.0000
  H   H111      1.0  0.01081  0.17801  0.84954  1.0000
  H   H112      1.0  0.35589  0.27064  0.60891  1.0000
  H   H113      1.0  0.05159  0.20280  0.84574  1.0000
  H   H114      1.0  0.04303  0.21041  0.96098  1.0000
  H   H115      1.0  0.04602  0.14414  0.84353  1.0000
  H   H116      1.0  0.28729  0.26842  0.59327  1.0000
  H   H117      1.0  0.01831  0.14530  0.57915  1.0000
  H   H118      1.0  0.30815  0.20951  0.59125  1.0000
  C   C75       1.0  0.05702  0.20800  0.88305  1.0000
  H   H119      1.0  0.38772  0.24784  0.54639  1.0000
  H   H120      1.0  0.43307  0.29501  0.61467  1.0000
  S   S26       1.0  0.39620  0.30888  0.51974  1.0000
  C   C76       1.0  0.38911  0.23622  0.57913  1.0000
  H   H121      1.0  0.36279  0.20966  0.60811  1.0000
  H   H122      1.0  0.31568  0.28947  0.63122  1.0000
  N   N6        1.0  0.26198  0.06573  0.75820  1.0000
  C   C77       1.0  0.25936  0.06748  0.80604  1.0000
  C   C78       1.0  0.27481  0.03774  0.75593  1.0000
  C   C79       1.0  0.22996  0.06846  0.72186  1.0000
  C   C80       1.0  0.28192  0.08874  0.75192  1.0000
  C   C81       1.0  0.24445  0.09395  0.81447  1.0000
  C   C82       1.0  0.30513  0.02976  0.79642  1.0000
  C   C83       1.0  0.22614  0.06470  0.67012  1.0000
  C   C84       1.0  0.29934  0.08433  0.71831  1.0000
  H   H123      1.0  0.24618  0.04988  0.81294  1.0000
  H   H124      1.0  0.28235  0.06613  0.83462  1.0000
  H   H125      1.0  0.27892  0.03547  0.72262  1.0000
  H   H126      1.0  0.25789  0.02162  0.75573  1.0000
  H   H127      1.0  0.21455  0.05354  0.73047  1.0000
  H   H128      1.0  0.22005  0.08908  0.72209  1.0000
  H   H129      1.0  0.26812  0.10791  0.73932  1.0000
  H   H130      1.0  0.29973  0.09385  0.78627  1.0000
  H   H131      1.0  0.25570  0.11262  0.80711  1.0000
  H   H132      1.0  0.21953  0.09515  0.79361  1.0000
  H   H133      1.0  0.24685  0.09406  0.85210  1.0000
  H   H134      1.0  0.30088  0.02313  0.82879  1.0000
  H   H135      1.0  0.01374  0.23104  0.87004  1.0000
  H   H136      1.0  0.32172  0.04671  0.80468  1.0000
  H   H137      1.0  0.23664  0.04554  0.66443  1.0000
  H   H138      1.0  0.23439  0.08283  0.65544  1.0000
  H   H139      1.0  0.20131  0.06330  0.64900  1.0000
  H   H140      1.0  0.31831  0.06915  0.73346  1.0000
  H   H141      1.0  0.46369  0.27688  0.56990  1.0000
  H   H142      1.0  0.28445  0.07810  0.68305  1.0000
  H   H143      1.0  0.09741  0.16856  0.92803  1.0000
  N   N7        1.0  0.33059  0.23976  0.56163  1.0000
  C   C85       1.0  0.40854  0.30796  0.65759  1.0000
  C   C86       1.0  0.33525  0.25798  0.60237  1.0000
  C   C87       1.0  0.47501  0.26976  0.97000  1.0000
  C   C88       1.0  0.30929  0.27846  0.59783  1.0000
  H   H144      1.0  0.08472  0.13206  0.86840  1.0000
  H   H145      1.0  0.14449  0.07747  0.51610  1.0000
  H   H146      1.0  0.46526  0.28294  0.93867  1.0000
  H   H147      1.0  0.39679  0.24985  0.60912  1.0000
  C   C89       1.0  0.07340  0.16143  0.91184  1.0000
  C   C90       1.0  0.30404  0.22119  0.55718  1.0000
  H   H148      1.0  0.40756  0.22051  0.58633  1.0000
  H   H149      1.0  0.04710  0.24510  0.91474  1.0000
  H   H150      1.0  0.34285  0.27393  0.52495  1.0000
  H   H151      1.0  0.42583  0.30000  0.68998  1.0000
  H   H152      1.0  0.04163  0.24904  0.85384  1.0000
  C   C91       1.0  0.06974  0.15045  0.86331  1.0000
  H   H153      1.0  0.08200  0.20044  0.97588  1.0000
  C   C92       1.0  0.19154  0.19770  0.55276  1.0000
  H   H154      1.0  0.30992  0.10399  0.71320  1.0000
  H   H155      1.0  0.13780  0.13374  0.50556  1.0000
  C   C93       1.0  0.01807  0.17595  0.88866  1.0000
  H   H156      1.0  0.49031  0.19509  0.89035  1.0000
  H   H157      1.0  0.12840  0.03056  0.51584  1.0000
  H   H158      1.0  0.09518  0.07073  0.53710  1.0000
  C   C94       1.0  0.47884  0.29382  0.56669  1.0000
  C   C95       1.0  0.00894  0.16348  0.74984  1.0000
  H   H159      1.0  0.05181  0.10417  0.50990  1.0000
  C   C96       1.0  0.41283  0.30545  0.61484  1.0000
  H   H160      1.0  0.08175  0.21335  0.89661  1.0000
  H   H161      1.0  0.07705  0.16552  0.84140  1.0000
  C   C97       1.0  0.07138  0.02607  0.49230  1.0000
  H   H162      1.0  0.31328  0.18248  0.52981  1.0000
  N   N8        1.0  0.05116  0.18393  0.91125  1.0000
  H   H163      1.0  0.01690  0.14981  0.49833  1.0000
  H   H164      1.0  0.01567  0.18199  0.52166  1.0000
  C   C98       1.0  0.39056  0.31516  0.57247  1.0000
  H   H165      1.0  0.02948  0.16631  0.98742  1.0000
  H   H166      1.0  0.03789  0.07019  0.50684  1.0000
  C   C99       1.0  0.05008  0.08479  0.49131  1.0000
  H   H167      1.0  0.01993  0.12114  0.74433  1.0000
  H   H168      1.0  0.48936  0.22325  0.85067  1.0000
  C   C100      1.0  0.29690  0.20009  0.51841  1.0000
  C   C101      1.0  0.08270  0.07454  0.49860  1.0000
  C   C102      1.0  0.50475  0.20808  0.87619  1.0000
  H   H169      1.0  0.49885  0.25493  0.49034  1.0000
  H   H170      1.0  0.09438  0.09225  0.48940  1.0000
  H   H171      1.0  0.33375  0.24376  0.49259  1.0000
  H   H172      1.0  0.50432  0.24644  0.61815  1.0000
  Fe  Fe13      1.0  0.36579  0.33083  0.34872  1.0000
  S   S27       1.0  0.38461  0.35609  0.41207  1.0000
  Fe  Fe14      1.0  0.29098  0.64689  0.35725  1.0000
  H   H173      1.0  0.32974  0.41179  0.47222  1.0000
  S   S28       1.0  0.31998  0.34915  0.43039  1.0000
  H   H174      1.0  0.44061  0.32799  0.26078  1.0000
  Fe  Fe15      1.0  0.33910  0.37825  0.38818  1.0000
  S   S29       1.0  0.35164  0.42360  0.39806  1.0000
  C   C103      1.0  0.46501  0.64767  0.46603  1.0000
  Fe  Fe16      1.0  0.36447  0.32603  0.44908  1.0000
  S   S30       1.0  0.32088  0.35439  0.32172  1.0000
  Fe  Fe17      1.0  0.31263  0.58669  0.37756  1.0000
  S   S31       1.0  0.29804  0.61431  0.31147  1.0000
  S   S32       1.0  0.29245  0.54383  0.37768  1.0000
  C   C104      1.0  0.48932  0.60370  0.46601  1.0000
  S   S33       1.0  0.30298  0.61890  0.42229  1.0000
  S   S34       1.0  0.36231  0.59723  0.39813  1.0000
  S   S35       1.0  0.37697  0.63063  0.28995  1.0000
  H   H175      1.0  0.16647  0.32372  0.35475  1.0000
  C   C105      1.0  0.33411  0.45674  0.38950  1.0000
  C   C106      1.0  0.35292  0.47987  0.39631  1.0000
  C   C107      1.0  0.34057  0.50662  0.39206  1.0000
  C   C108      1.0  0.30917  0.51062  0.38146  1.0000
  C   C109      1.0  0.29037  0.48746  0.37493  1.0000
  C   C110      1.0  0.30268  0.46069  0.37863  1.0000
  H   H176      1.0  0.37727  0.47709  0.40479  1.0000
  H   H177      1.0  0.35533  0.52415  0.39723  1.0000
  H   H178      1.0  0.26606  0.49031  0.36674  1.0000
  H   H179      1.0  0.28789  0.44319  0.37343  1.0000
  H   H180      1.0  0.42757  0.60707  0.43212  1.0000
  Fe  Fe18      1.0  0.30473  0.32364  0.36543  1.0000
  H   H181      1.0  0.32075  0.46845  0.47833  1.0000
  H   H182      1.0  0.37343  0.38634  0.48869  1.0000
  H   H183      1.0  0.04962  0.31784  0.18960  1.0000
  H   H184      1.0  0.11875  0.32379  0.10439  1.0000
  H   H185      1.0  0.50066  0.38971  0.41118  1.0000
  H   H186      1.0  0.20975  0.63925  0.33795  1.0000
  H   H187      1.0  0.41300  0.58520  0.35790  1.0000
  H   H188      1.0  0.45114  0.57408  0.39016  1.0000
  H   H189      1.0  0.46464  0.39084  0.32875  1.0000
  H   H190      1.0  0.47473  0.64636  0.03258  1.0000
  C   C111      1.0  0.43842  0.61510  0.40726  1.0000
  Fe  Fe19      1.0  0.34751  0.62744  0.33587  1.0000
  H   H191      1.0  0.08484  0.33524  0.21606  1.0000
  C   C112      1.0  0.43699  0.59236  0.37300  1.0000
  H   H192      1.0  0.42277  0.63148  0.38524  1.0000
  H   H193      1.0  0.13042  0.34239  0.18194  1.0000
  H   H194      1.0  0.44637  0.37865  0.36786  1.0000
  C   C113      1.0  0.46426  0.37361  0.35334  1.0000
  H   H195      1.0  0.13399  0.32043  0.23180  1.0000
  N   N9        1.0  0.46953  0.62633  0.43442  1.0000
  H   H196      1.0  0.49742  0.33555  0.32036  1.0000
  H   H197      1.0  0.44257  0.60033  0.34252  1.0000
  H   H198      1.0  0.45683  0.35486  0.33345  1.0000
  H   H199      1.0  0.07715  0.33031  0.13349  1.0000
  H   H200      1.0  0.22091  0.33014  0.36311  1.0000
  C   C114      1.0  0.50012  0.62090  0.37853  1.0000
  Fe  Fe20      1.0  0.35180  0.63132  0.43755  1.0000
  H   H201      1.0  0.49212  0.35539  0.42133  1.0000
  H   H202      1.0  0.28132  0.42369  0.46214  1.0000
  H   H203      1.0  0.42745  0.63179  0.25744  1.0000
  H   H204      1.0  0.49241  0.58636  0.44587  1.0000
  H   H205      1.0  0.15360  0.64254  0.32030  1.0000
  C   C115      1.0  0.48366  0.63979  0.40186  1.0000
  H   H206      1.0  0.49455  0.59900  0.37861  1.0000
  H   H207      1.0  0.18335  0.33411  0.22806  1.0000
  C   C116      1.0  0.49537  0.36965  0.39417  1.0000
  S   S36       1.0  0.39654  0.32811  0.30521  1.0000
  H   H208      1.0  0.49411  0.62783  0.34102  1.0000
  C   C117      1.0  0.13635  0.32100  0.19667  1.0000
  C   C118      1.0  0.17082  0.31670  0.20755  1.0000
  C   C119      1.0  0.36001  0.62825  0.61216  1.0000
  H   H209      1.0  0.44040  0.58948  0.56307  1.0000
  C   C120      1.0  0.37882  0.64483  0.64743  1.0000
  C   C121      1.0  0.38170  0.31990  0.65843  1.0000
  H   H210      1.0  0.34672  0.33561  0.54049  1.0000
  C   C122      1.0  0.36413  0.32824  0.57314  1.0000
  H   H211      1.0  0.40156  0.41153  0.58671  1.0000
  C   C123      1.0  0.34912  0.43012  0.58788  1.0000
  H   H212      1.0  0.33053  0.44551  0.58098  1.0000
  H   H213      1.0  0.36184  0.39288  0.63464  1.0000
  H   H214      1.0  0.32687  0.38827  0.51609  1.0000
  C   C124      1.0  0.34120  0.40559  0.61473  1.0000
  H   H215      1.0  0.50245  0.59090  0.67957  1.0000
  N   N10       1.0  0.49580  0.63021  0.64029  1.0000
  H   H216      1.0  0.48117  0.61702  0.56822  1.0000
  C   C125      1.0  0.38136  0.40326  0.55830  1.0000
  H   H217      1.0  0.34416  0.61454  0.61991  1.0000
  H   H218      1.0  0.48915  0.61560  0.73235  1.0000
  H   H219      1.0  0.37563  0.38394  0.57348  1.0000
  H   H220      1.0  0.45343  0.61062  0.68382  1.0000
  H   H221      1.0  0.32333  0.39251  0.59118  1.0000
  H   H222      1.0  0.33236  0.41333  0.64127  1.0000
  C   C126      1.0  0.29528  0.42223  0.50049  1.0000
  C   C127      1.0  0.36194  0.62899  0.56705  1.0000
  H   H223      1.0  0.36967  0.43997  0.61311  1.0000
  H   H224      1.0  0.42978  0.60741  0.60526  1.0000
  C   C128      1.0  0.35983  0.33081  0.61629  1.0000
  C   C129      1.0  0.47126  0.62237  0.59490  1.0000
  S   S37       1.0  0.37634  0.64313  0.70394  1.0000
  H   H225      1.0  0.34788  0.61568  0.54040  1.0000
  C   C130      1.0  0.39234  0.39436  0.51891  1.0000
  H   H226      1.0  0.38630  0.45652  0.54907  1.0000
  H   H227      1.0  0.33554  0.48076  0.53806  1.0000
  H   H228      1.0  0.45792  0.63909  0.72011  1.0000
  C   C131      1.0  0.36441  0.44887  0.52353  1.0000
  C   C132      1.0  0.44952  0.59924  0.59766  1.0000
  H   H229      1.0  0.48022  0.32274  0.62013  1.0000
  C   C133      1.0  0.47002  0.62592  0.70326  1.0000
  H   H230      1.0  0.46071  0.58240  0.62338  1.0000
  N   N11       1.0  0.35469  0.42338  0.54371  1.0000
  H   H231      1.0  0.45603  0.64025  0.57798  1.0000
  H   H232      1.0  0.33893  0.33994  0.61682  1.0000
  C   C134      1.0  0.34157  0.47322  0.50871  1.0000
  C   C135      1.0  0.48201  0.64422  0.67144  1.0000
  H   H233      1.0  0.40947  0.37742  0.53297  1.0000
  H   H234      1.0  0.45539  0.63823  0.49146  1.0000
  H   H235      1.0  0.28301  0.40784  0.51637  1.0000
  H   H236      1.0  0.29470  0.44284  0.51362  1.0000
  H   H237      1.0  0.35231  0.49062  0.49620  1.0000
  C   C136      1.0  0.32743  0.41058  0.50732  1.0000
  S   S38       1.0  0.38925  0.64520  0.50373  1.0000
  H   H238      1.0  0.40382  0.41114  0.50642  1.0000
  C   C137      1.0  0.38289  0.64621  0.55720  1.0000
  S   S39       1.0  0.37433  0.31845  0.71116  1.0000
  H   H239      1.0  0.47792  0.59458  0.48941  1.0000
  H   H240      1.0  0.36912  0.44438  0.49134  1.0000
  H   H241      1.0  0.49020  0.31795  0.49157  1.0000
  Fe  Fe21      1.0  0.08004  0.78480  0.30962  1.0000
  S   S40       1.0  0.06777  0.74451  0.33517  1.0000
  S   S41       1.0  0.10922  0.81480  0.36101  1.0000
  Fe  Fe22      1.0  0.04764  0.77153  0.20585  1.0000
  S   S42       1.0  0.03298  0.73063  0.22503  1.0000
  H   H242      1.0  0.45995  0.70307  0.19107  1.0000
  C   C138      1.0  0.07087  0.72523  0.05472  1.0000
  Fe  Fe23      1.0  0.08125  0.72665  0.27838  1.0000
  S   S43       1.0  0.10990  0.68734  0.28974  1.0000
  S   S44       1.0  0.03291  0.79454  0.25702  1.0000
  S   S45       1.0  0.09647  0.76650  0.25629  1.0000
  H   H243      1.0  0.22473  0.73493  0.40415  1.0000
  C   C139      1.0  0.11476  0.74899  0.15499  1.0000
  H   H244      1.0  0.18562  0.75732  0.34653  1.0000
  S   S46       1.0  0.25426  0.68125  0.33456  1.0000
  H   H245      1.0  0.17680  0.69170  0.15990  1.0000
  C   C140      1.0  0.15631  0.69009  0.17000  1.0000
  S   S47       1.0  0.47698  0.72144  0.29853  1.0000
  C   C141      1.0  0.48084  0.66770  0.03231  1.0000
  H   H246      1.0  0.11020  0.71725  0.20231  1.0000
  H   H247      1.0  0.21192  0.76007  0.46790  1.0000
  H   H248      1.0  0.41563  0.68887  0.06452  1.0000
  H   H249      1.0  0.04395  0.66596  0.13654  1.0000
  C   C142      1.0  0.40516  0.68081  0.31468  1.0000
  C   C143      1.0  0.42739  0.70055  0.31597  1.0000
  C   C144      1.0  0.45010  0.69548  0.29710  1.0000
  C   C145      1.0  0.45014  0.67044  0.27639  1.0000
  C   C146      1.0  0.49738  0.72241  0.03170  1.0000
  H   H250      1.0  0.38788  0.68505  0.32943  1.0000
  H   H251      1.0  0.42698  0.71991  0.33179  1.0000
  H   H252      1.0  0.01546  0.80656  0.35791  1.0000
  H   H253      1.0  0.45117  0.68306  0.41458  1.0000
  H   H254      1.0  0.38260  0.73295  0.03394  1.0000
  S   S48       1.0  0.33950  0.66183  0.37638  1.0000
  C   C147      1.0  0.44397  0.74644  0.12511  1.0000
  H   H255      1.0  0.13770  0.75076  0.18304  1.0000
  C   C148      1.0  0.17673  0.76824  0.37022  1.0000
  C   C149      1.0  0.14983  0.68563  0.30053  1.0000
  C   C150      1.0  0.40476  0.72844  0.03016  1.0000
  H   H256      1.0  0.44920  0.65962  0.11738  1.0000
  C   C151      1.0  0.21390  0.68176  0.32043  1.0000
  C   C152      1.0  0.19773  0.70670  0.30446  1.0000
  C   C153      1.0  0.16595  0.70864  0.29449  1.0000
  H   H257      1.0  0.21000  0.72470  0.29993  1.0000
  H   H258      1.0  0.15397  0.72797  0.28212  1.0000
  C   C154      1.0  0.22520  0.71829  0.42997  1.0000
  C   C155      1.0  0.12376  0.83235  0.45095  1.0000
  C   C156      1.0  0.10556  0.81495  0.41658  1.0000
  C   C157      1.0  0.08483  0.79781  0.42707  1.0000
  H   H259      1.0  0.13991  0.84563  0.44308  1.0000
  H   H260      1.0  0.07052  0.78453  0.40090  1.0000
  H   H261      1.0  0.44796  0.70799  0.06544  1.0000
  N   N12       1.0  0.43103  0.71797  0.12031  1.0000
  H   H262      1.0  0.42776  0.76121  0.09945  1.0000
  H   H263      1.0  0.18130  0.70037  0.39588  1.0000
  C   C158      1.0  0.40489  0.65595  0.29334  1.0000
  N   N13       1.0  0.17314  0.73353  0.43536  1.0000
  H   H264      1.0  0.14474  0.67928  0.42170  1.0000
  H   H265      1.0  0.02226  0.86357  0.44563  1.0000
  H   H266      1.0  0.03228  0.83375  0.39552  1.0000
  C   C159      1.0  0.13032  0.69752  0.42039  1.0000
  H   H267      1.0  0.06925  0.68184  0.06886  1.0000
  C   C160      1.0  0.45146  0.75930  0.17321  1.0000
  H   H268      1.0  0.06834  0.74503  0.06956  1.0000
  H   H269      1.0  0.46737  0.74657  0.20275  1.0000
  C   C161      1.0  0.40189  0.71387  0.17881  1.0000
  H   H270      1.0  0.05789  0.68925  0.18447  1.0000
  C   C162      1.0  0.15713  0.74928  0.38928  1.0000
  C   C163      1.0  0.19769  0.65861  0.32580  1.0000
  H   H271      1.0  0.46291  0.65598  0.17993  1.0000
  H   H272      1.0  0.13761  0.76175  0.39065  1.0000
  H   H273      1.0  0.44474  0.68740  0.46809  1.0000
  H   H274      1.0  0.42255  0.72177  0.20590  1.0000
  C   C164      1.0  0.40075  0.71731  0.12746  1.0000
  Fe  Fe24      1.0  0.02118  0.75320  0.27959  1.0000
  C   C165      1.0  0.17435  0.77661  0.48233  1.0000
  H   H275      1.0  0.38701  0.73618  0.11140  1.0000
  H   H276      1.0  0.15861  0.70542  0.19678  1.0000
  H   H277      1.0  0.24080  0.72352  0.46570  1.0000
  C   C166      1.0  0.44661  0.66783  0.14921  1.0000
  C   C167      1.0  0.14878  0.72062  0.45084  1.0000
  S   S49       1.0  0.03745  0.78683  0.13017  1.0000
  H   H278      1.0  0.09107  0.72527  0.04402  1.0000
  H   H279      1.0  0.11240  0.69067  0.43411  1.0000
  H   H280      1.0  0.04911  0.70305  0.09443  1.0000
  H   H281      1.0  0.11828  0.70457  0.38330  1.0000
  H   H282      1.0  0.16223  0.78571  0.34951  1.0000
  H   H283      1.0  0.39867  0.69213  0.18786  1.0000
  C   C168      1.0  0.42585  0.70957  0.07081  1.0000
  H   H284      1.0  0.39960  0.71798  0.99644  1.0000
  C   C169      1.0  0.12709  0.69480  0.12565  1.0000
  C   C170      1.0  0.09844  0.72301  0.16422  1.0000
  H   H285      1.0  0.13166  0.71226  0.10507  1.0000
  H   H286      1.0  0.11681  0.75101  0.12008  1.0000
  C   C171      1.0  0.06322  0.67062  0.16936  1.0000
  H   H287      1.0  0.10166  0.76739  0.15766  1.0000
  C   C172      1.0  0.45469  0.69845  0.15370  1.0000
  C   C173      1.0  0.19310  0.71074  0.42941  1.0000
  N   N14       1.0  0.09781  0.69867  0.13484  1.0000
  H   H288      1.0  0.11200  0.67100  0.19688  1.0000
  H   H289      1.0  0.09613  0.65433  0.14274  1.0000
  H   H290      1.0  0.43035  0.76416  0.18002  1.0000
  H   H291      1.0  0.07473  0.72925  0.16030  1.0000
  H   H292      1.0  0.47701  0.70076  0.14865  1.0000
  H   H293      1.0  0.19591  0.77786  0.39771  1.0000
  C   C174      1.0  0.07107  0.70091  0.08854  1.0000
  H   H294      1.0  0.15712  0.66925  0.18634  1.0000
  C   C175      1.0  0.50014  0.67914  0.07441  1.0000
  C   C176      1.0  0.09376  0.67297  0.16119  1.0000
  H   H295      1.0  0.38217  0.72515  0.18191  1.0000
  H   H296      1.0  0.03525  0.83214  0.47770  1.0000
  H   H297      1.0  0.06519  0.78559  0.47858  1.0000
  H   H298      1.0  0.46536  0.74675  0.11690  1.0000
  H   H299      1.0  0.05038  0.72374  0.02190  1.0000
  H   H300      1.0  0.46312  0.77905  0.17285  1.0000
  H   H301      1.0  0.14579  0.73505  0.36078  1.0000
  H   H302      1.0  0.23559  0.70012  0.42029  1.0000
  H   H303      1.0  0.38697  0.69985  0.10874  1.0000
  H   H304      1.0  0.46751  0.66616  0.26193  1.0000
  H   H305      1.0  0.19717  0.69453  0.45792  1.0000
  H   H306      1.0  0.16603  0.79062  0.45062  1.0000
  C   C177      1.0  0.16583  0.66055  0.31576  1.0000
  H   H307      1.0  0.12517  0.67697  0.10309  1.0000
  H   H308      1.0  0.41628  0.74775  0.02639  1.0000
  C   C178      1.0  0.01470  0.76982  0.07923  1.0000
  H   H309      1.0  0.13152  0.73618  0.45129  1.0000
  H   H310      1.0  0.02019  0.80150  0.03172  1.0000
  H   H311      1.0  0.06507  0.65337  0.19522  1.0000
  C   C179      1.0  0.01603  0.84734  0.46712  1.0000
  C   C180      1.0  0.19169  0.75168  0.47411  1.0000
  C   C181      1.0  0.42743  0.65096  0.27401  1.0000
  H   H312      1.0  0.42321  0.66390  0.14871  1.0000
  C   C182      1.0  0.01016  0.82408  0.37600  1.0000
  C   C183      1.0  0.47794  0.71104  0.98976  1.0000
  H   H313      1.0  0.41946  0.66641  0.42546  1.0000
  C   C184      1.0  0.08174  0.79853  0.47110  1.0000
  C   C185      1.0  0.46998  0.68349  0.98967  1.0000
  H   H314      1.0  0.50094  0.65498  0.42116  1.0000
  C   C186      1.0  0.44383  0.67230  0.44133  1.0000
  H   H315      1.0  0.15900  0.71182  0.48764  1.0000
  C   C187      1.0  0.00977  0.78207  0.03448  1.0000
  H   H316      1.0  0.00803  0.79612  0.43121  1.0000
  H   H317      1.0  0.50381  0.74366  0.03121  1.0000
  H   H318      1.0  0.46597  0.65188  0.37314  1.0000
  H   H319      1.0  0.00500  0.73487  0.11644  1.0000
  H   H320      1.0  0.48722  0.65677  0.48735  1.0000
  Fe  Fe25      1.0  0.16496  0.87435  0.69159  1.0000
  S   S50       1.0  0.17983  0.84329  0.75302  1.0000
  S   S51       1.0  0.18114  0.91802  0.71172  1.0000
  Fe  Fe26      1.0  0.12860  0.83186  0.62455  1.0000
  S   S52       1.0  0.14095  0.79833  0.68068  1.0000
  S   S53       1.0  0.09191  0.81883  0.55733  1.0000
  Fe  Fe27      1.0  0.13107  0.82902  0.72579  1.0000
  S   S54       1.0  0.10518  0.82097  0.77574  1.0000
  Fe  Fe28      1.0  0.18912  0.81436  0.70392  1.0000
  S   S55       1.0  0.22509  0.77927  0.72959  1.0000
  S   S56       1.0  0.11558  0.86197  0.66838  1.0000
  S   S57       1.0  0.17735  0.84606  0.64347  1.0000
  Fe  Fe29      1.0  0.43490  0.68623  0.86228  1.0000
  S   S58       1.0  0.44853  0.72791  0.84349  1.0000
  S   S59       1.0  0.44731  0.66782  0.93714  1.0000
  Fe  Fe30      1.0  0.40435  0.67264  0.75788  1.0000
  S   S60       1.0  0.41649  0.71315  0.73344  1.0000
  H   H321      1.0  0.16881  0.80981  0.82554  1.0000
  Fe  Fe31      1.0  0.46258  0.70568  0.79054  1.0000
  Fe  Fe32      1.0  0.40050  0.73054  0.78804  1.0000
  S   S61       1.0  0.36858  0.76831  0.76610  1.0000
  S   S62       1.0  0.45126  0.66399  0.81198  1.0000
  S   S63       1.0  0.38623  0.69012  0.81010  1.0000
  H   H322      1.0  0.21373  0.73106  0.79177  1.0000
  H   H323      1.0  0.14131  0.93594  0.61564  1.0000
  H   H324      1.0  0.23986  0.73635  0.85103  1.0000
  H   H325      1.0  0.50414  0.68621  0.91790  1.0000
  C   C188      1.0  0.19317  0.72544  0.84666  1.0000
  H   H326      1.0  0.28112  0.76633  0.58936  1.0000
  H   H327      1.0  0.00551  0.88164  0.67435  1.0000
  H   H328      1.0  0.26120  0.72387  0.62112  1.0000
  H   H329      1.0  0.04397  0.74036  0.70749  1.0000
  H   H330      1.0  0.16323  0.73152  0.73066  1.0000
  H   H331      1.0  0.28653  0.68704  0.70269  1.0000
  H   H332      1.0  0.46940  0.72350  0.95737  1.0000
  H   H333      1.0  0.22868  0.70260  0.83251  1.0000
  C   C189      1.0  0.19816  0.77404  0.86037  1.0000
  C   C190      1.0  0.09951  0.81622  0.50516  1.0000
  H   H334      1.0  0.26709  0.77220  0.63527  1.0000
  H   H335      1.0  0.12617  0.74394  0.72278  1.0000
  C   C191      1.0  0.26516  0.77706  0.74041  1.0000
  C   C192      1.0  0.28090  0.75207  0.75825  1.0000
  C   C193      1.0  0.31249  0.74906  0.76672  1.0000
  C   C194      1.0  0.32885  0.77106  0.75732  1.0000
  C   C195      1.0  0.31314  0.79608  0.73971  1.0000
  C   C196      1.0  0.28155  0.79909  0.73125  1.0000
  H   H336      1.0  0.26856  0.73487  0.76560  1.0000
  H   H337      1.0  0.32418  0.72974  0.78049  1.0000
  H   H338      1.0  0.32551  0.81329  0.73245  1.0000
  H   H339      1.0  0.26991  0.81846  0.71765  1.0000
  H   H340      1.0  0.13550  0.70847  0.84524  1.0000
  C   C197      1.0  0.04291  0.77234  0.80385  1.0000
  C   C198      1.0  0.06493  0.79245  0.80625  1.0000
  C   C199      1.0  0.07894  0.79432  0.77250  1.0000
  C   C200      1.0  0.07125  0.77546  0.73684  1.0000
  C   C201      1.0  0.04971  0.75496  0.73506  1.0000
  H   H341      1.0  0.19025  0.78852  0.51121  1.0000
  H   H342      1.0  0.07073  0.80694  0.83398  1.0000
  H   H343      1.0  0.08170  0.77675  0.71048  1.0000
  H   H344      1.0  0.20143  0.73956  0.50814  1.0000
  H   H345      1.0  0.32793  0.68598  0.71985  1.0000
  C   C202      1.0  0.16704  0.95067  0.68408  1.0000
  C   C203      1.0  0.14831  0.95384  0.63646  1.0000
  H   H346      1.0  0.03952  0.87169  0.52740  1.0000
  C   C204      1.0  0.32039  0.69464  0.55944  1.0000
  N   N15       1.0  0.17561  0.75228  0.83616  1.0000
  H   H347      1.0  0.27928  0.67667  0.62081  1.0000
  H   H348      1.0  0.30245  0.73451  0.56229  1.0000
  H   H349      1.0  0.03209  0.77129  0.82979  1.0000
  C   C205      1.0  0.28504  0.73094  0.63935  1.0000
  H   H350      1.0  0.41722  0.67671  0.58454  1.0000
  H   H351      1.0  0.49911  0.65766  0.69579  1.0000
  H   H352      1.0  0.20250  0.72059  0.88539  1.0000
  H   H353      1.0  0.02652  0.85020  0.63597  1.0000
  H   H354      1.0  0.31681  0.70007  0.52202  1.0000
  C   C206      1.0  0.30600  0.67833  0.69501  1.0000
  H   H355      1.0  0.28897  0.72976  0.67752  1.0000
  H   H356      1.0  0.14262  0.71761  0.76619  1.0000
  H   H357      1.0  0.35562  0.70225  0.66156  1.0000
  H   H358      1.0  0.21142  0.76762  0.89781  1.0000
  H   H359      1.0  0.48209  0.67745  0.57483  1.0000
  H   H360      1.0  0.49618  0.69039  0.63382  1.0000
  C   C207      1.0  0.30049  0.71367  0.57630  1.0000
  C   C208      1.0  0.17616  0.97428  0.71045  1.0000
  H   H361      1.0  0.12551  0.98243  0.57837  1.0000
  H   H362      1.0  0.19061  0.97206  0.74730  1.0000
  H   H363      1.0  0.17840  0.70791  0.83189  1.0000
  H   H364      1.0  0.33786  0.75804  0.61024  1.0000
  H   H365      1.0  0.03273  0.84743  0.76797  1.0000
  C   C209      1.0  0.15113  0.75136  0.85752  1.0000
  C   C210      1.0  0.50231  0.67879  0.60781  1.0000
  H   H366      1.0  0.13456  0.84670  0.52137  1.0000
  H   H367      1.0  0.30727  0.77103  0.64967  1.0000
  C   C211      1.0  0.35427  0.74400  0.63658  1.0000
  H   H368      1.0  0.31895  0.66931  0.63691  1.0000
  C   C212      1.0  0.12619  0.72968  0.83960  1.0000
  C   C213      1.0  0.16195  0.75989  0.78415  1.0000
  C   C214      1.0  0.12092  0.83285  0.49536  1.0000
  C   C215      1.0  0.03211  0.86416  0.74205  1.0000
  H   H369      1.0  0.27615  0.70821  0.55724  1.0000
  H   H370      1.0  0.41387  0.67524  0.66384  1.0000
  C   C216      1.0  0.02113  0.83204  0.65464  1.0000
  C   C217      1.0  0.14806  0.73655  0.75015  1.0000
  H   H371      1.0  0.13824  0.77119  0.85076  1.0000
  H   H372      1.0  0.04278  0.82734  0.68497  1.0000
  H   H373      1.0  0.11054  0.73089  0.85954  1.0000
  H   H374      1.0  0.06420  0.98214  0.49243  1.0000
  C   C218      1.0  0.30248  0.68370  0.64296  1.0000
  C   C219      1.0  0.34014  0.72032  0.65694  1.0000
  N   N16       1.0  0.30757  0.71276  0.62878  1.0000
  C   C220      1.0  0.22027  0.72411  0.82925  1.0000
  H   H375      1.0  0.34239  0.72560  0.69328  1.0000
  H   H376      1.0  0.11163  0.73395  0.80216  1.0000
  C   C221      1.0  0.28557  0.76175  0.62715  1.0000
  H   H377      1.0  0.16173  0.74825  0.89657  1.0000
  H   H378      1.0  0.30615  0.65586  0.70235  1.0000
  H   H379      1.0  0.37083  0.73580  0.62174  1.0000
  H   H380      1.0  0.36799  0.75687  0.66592  1.0000
  H   H381      1.0  0.17251  0.80326  0.88624  1.0000
  C   C222      1.0  0.18454  0.80270  0.86089  1.0000
  H   H382      1.0  0.17962  0.76945  0.77222  1.0000
  C   C223      1.0  0.40119  0.66315  0.59214  1.0000
  H   H383      1.0  0.21542  0.77718  0.84335  1.0000
  H   H384      1.0  0.14389  0.77594  0.77720  1.0000
  H   H385      1.0  0.20335  0.81771  0.87238  1.0000
  H   H386      1.0  0.01914  0.84393  0.54071  1.0000
  H   H387      1.0  0.05292  0.86274  0.73290  1.0000
  C   C224      1.0  0.03513  0.75349  0.76815  1.0000
  C   C225      1.0  0.39920  0.66247  0.63706  1.0000
  H   H388      1.0  0.03357  0.88369  0.76009  1.0000
  C   C226      1.0  0.13942  0.98029  0.61541  1.0000
  H   H389      1.0  0.03709  0.80434  0.61407  1.0000
  H   H390      1.0  0.01587  0.80860  0.72827  1.0000
  H   H391      1.0  0.34514  0.69651  0.58002  1.0000
  H   H392      1.0  0.31374  0.67291  0.56065  1.0000
  S   S64       1.0  0.00814  0.72740  0.76447  1.0000
  H   H393      1.0  0.46295  0.65825  0.65016  1.0000
  C   C227      1.0  0.01616  0.80750  0.62251  1.0000
  C   C228      1.0  0.01787  0.86012  0.51346  1.0000
  H   H394      1.0  0.01262  0.78823  0.64024  1.0000
  H   H395      1.0  0.15501  0.77074  0.49334  1.0000
  H   H396      1.0  0.67051  0.27060  0.41228  1.0000
  Fe  Fe33      1.0  0.86695  0.12706  0.35068  1.0000
  S   S65       1.0  0.88280  0.10527  0.42141  1.0000
  S   S66       1.0  0.90449  0.12724  0.31900  1.0000
  Fe  Fe34      1.0  0.80350  0.13858  0.35669  1.0000
  S   S67       1.0  0.81626  0.11745  0.42901  1.0000
  S   S68       1.0  0.76195  0.16717  0.31871  1.0000
  Fe  Fe35      1.0  0.86091  0.13911  0.44517  1.0000
  H   H397      1.0  0.63243  0.23374  0.45546  1.0000
  Fe  Fe36      1.0  0.83743  0.08436  0.39963  1.0000
  S   S69       1.0  0.84773  0.04022  0.43049  1.0000
  S   S70       1.0  0.84756  0.16239  0.37581  1.0000
  S   S71       1.0  0.82232  0.10414  0.32606  1.0000
  Fe  Fe37      1.0  0.54847  0.26093  0.18191  1.0000
  S   S72       1.0  0.53759  0.21915  0.20483  1.0000
  S   S73       1.0  0.53257  0.27857  0.10586  1.0000
  Fe  Fe38      1.0  0.58073  0.27715  0.28482  1.0000
  S   S74       1.0  0.57172  0.23652  0.31311  1.0000
  C   C229      1.0  0.58059  0.28495  0.44662  1.0000
  Fe  Fe39      1.0  0.58647  0.21859  0.25766  1.0000
  S   S75       1.0  0.61849  0.18083  0.28169  1.0000
  Fe  Fe40      1.0  0.52447  0.24175  0.25829  1.0000
  S   S76       1.0  0.59802  0.25929  0.23180  1.0000
  S   S77       1.0  0.53282  0.28339  0.23277  1.0000
  C   C230      1.0  0.58260  0.28739  0.40187  1.0000
  H   H398      1.0  0.86662  0.20658  0.16403  1.0000
  H   H399      1.0  0.56711  0.27612  0.37345  1.0000
  C   C231      1.0  0.83316  0.00760  0.40945  1.0000
  C   C232      1.0  0.80569  0.00466  0.37129  1.0000
  N   N17       1.0  0.92108  0.19538  0.14094  1.0000
  C   C233      1.0  0.90818  0.22118  0.15271  1.0000
  C   C234      1.0  0.84929  0.98382  0.43332  1.0000
  H   H400      1.0  0.79291  0.02269  0.35270  1.0000
  H   H401      1.0  0.91315  0.23964  0.13462  1.0000
  C   C235      1.0  0.72208  0.17023  0.30910  1.0000
  C   C236      1.0  0.70631  0.15035  0.32534  1.0000
  C   C237      1.0  0.67465  0.15381  0.31616  1.0000
  C   C238      1.0  0.65831  0.17723  0.29104  1.0000
  C   C239      1.0  0.67415  0.19721  0.27525  1.0000
  C   C240      1.0  0.70572  0.19367  0.28411  1.0000
  H   H402      1.0  0.71841  0.13216  0.34442  1.0000
  H   H403      1.0  0.66271  0.13816  0.32853  1.0000
  H   H404      1.0  0.66203  0.21526  0.25563  1.0000
  H   H405      1.0  0.71757  0.20916  0.27122  1.0000
  H   H406      1.0  0.88221  0.18180  0.08128  1.0000
  H   H407      1.0  0.91456  0.05435  0.48103  1.0000
  H   H408      1.0  0.50949  0.22301  0.08376  1.0000
  H   H409      1.0  0.63362  0.25652  0.38480  1.0000
  C   C241      1.0  0.96120  0.19864  0.29219  1.0000
  C   C242      1.0  0.97141  0.17149  0.29512  1.0000
  C   C243      1.0  0.95373  0.14997  0.30339  1.0000
  C   C244      1.0  0.92592  0.15528  0.30956  1.0000
  C   C245      1.0  0.91587  0.18245  0.30716  1.0000
  C   C246      1.0  0.93340  0.20400  0.29834  1.0000
  H   H410      1.0  0.99267  0.22262  0.15054  1.0000
  H   H411      1.0  0.96161  0.12901  0.30492  1.0000
  H   H412      1.0  0.89443  0.18683  0.31153  1.0000
  H   H413      1.0  0.92525  0.22492  0.29599  1.0000
  H   H414      1.0  0.67647  0.17186  0.45569  1.0000
  H   H415      1.0  0.68919  0.25256  0.35408  1.0000
  H   H416      1.0  0.92701  0.20939  0.04350  1.0000
  H   H417      1.0  0.96454  0.16447  0.03035  1.0000
  H   H418      1.0  0.99270  0.16703  0.29037  1.0000
  C   C247      1.0  0.87331  0.22160  0.14135  1.0000
  H   H419      1.0  0.91959  0.22496  0.19101  1.0000
  H   H420      1.0  0.65430  0.27097  0.32675  1.0000
  H   H421      1.0  0.58039  0.27192  0.01565  1.0000
  H   H422      1.0  0.92923  0.20643  0.40385  1.0000
  H   H423      1.0  0.65766  0.19780  0.37138  1.0000
  H   H424      1.0  0.65318  0.23476  0.32604  1.0000
  C   C248      1.0  0.65283  0.17622  0.43072  1.0000
  H   H425      1.0  0.86637  0.24212  0.14881  1.0000
  H   H426      1.0  0.86022  0.21816  0.10365  1.0000
  H   H427      1.0  0.96405  0.18169  0.39185  1.0000
  C   C249      1.0  0.96793  0.22518  0.14408  1.0000
  C   C250      1.0  0.65034  0.20291  0.40069  1.0000
  H   H428      1.0  0.70769  0.21155  0.37755  1.0000
  H   H429      1.0  0.51850  0.30621  0.41926  1.0000
  N   N18       1.0  0.66782  0.22687  0.42656  1.0000
  C   C251      1.0  0.71522  0.20459  0.41498  1.0000
  H   H430      1.0  0.90703  0.19415  0.43759  1.0000
  C   C252      1.0  0.90608  0.21095  0.05236  1.0000
  H   H431      1.0  0.93199  0.15392  0.41797  1.0000
  H   H432      1.0  0.97340  0.12581  0.40805  1.0000
  H   H433      1.0  0.95640  0.14601  0.18886  1.0000
  S   S78       1.0  0.98178  0.22623  0.27900  1.0000
  H   H434      1.0  0.70936  0.18269  0.41666  1.0000
  H   H435      1.0  0.92391  0.22768  0.44580  1.0000
  H   H436      1.0  0.74062  0.20552  0.42936  1.0000
  C   C253      1.0  0.91470  0.17213  0.17021  1.0000
  C   C254      1.0  0.95538  0.19755  0.15487  1.0000
  C   C255      1.0  0.93118  0.14458  0.17139  1.0000
  H   H437      1.0  0.92091  0.17785  0.20746  1.0000
  H   H438      1.0  0.88981  0.16761  0.15779  1.0000
  H   H439      1.0  0.96690  0.19370  0.19364  1.0000
  H   H440      1.0  0.96440  0.18148  0.13822  1.0000
  H   H441      1.0  0.91773  0.17056  0.08209  1.0000
  H   H442      1.0  0.92537  0.13646  0.13582  1.0000
  C   C256      1.0  0.50765  0.26381  0.05362  1.0000
  H   H443      1.0  0.92364  0.12924  0.19272  1.0000
  H   H444      1.0  0.63709  0.17697  0.45052  1.0000
  C   C257      1.0  0.65854  0.25224  0.39443  1.0000
  C   C258      1.0  0.66442  0.25198  0.34798  1.0000
  C   C259      1.0  0.90621  0.18867  0.08976  1.0000
  C   C260      1.0  0.97762  0.18232  0.02786  1.0000
  C   C261      1.0  0.59933  0.30045  0.48349  1.0000
  H   H445      1.0  0.96610  0.24101  0.16816  1.0000
  C   C262      1.0  0.60363  0.30514  0.39356  1.0000
  C   C263      1.0  0.99973  0.20854  0.43101  1.0000
  C   C264      1.0  0.98352  0.18076  0.42597  1.0000
  C   C265      1.0  0.70214  0.22225  0.44460  1.0000
  H   H446      1.0  0.95696  0.23279  0.10715  1.0000
  H   H447      1.0  0.90339  0.23204  0.06210  1.0000
  H   H448      1.0  0.64562  0.15879  0.40693  1.0000
  S   S79       1.0  0.60564  0.30893  0.33693  1.0000
  H   H449      1.0  0.62550  0.20814  0.38355  1.0000
  C   C266      1.0  0.95650  0.19429  0.47897  1.0000
  H   H450      1.0  0.56400  0.27130  0.45243  1.0000
  H   H451      1.0  0.71412  0.24221  0.44897  1.0000
  H   H452      1.0  0.98404  0.22577  0.42987  1.0000
  H   H453      1.0  0.88594  0.20806  0.01959  1.0000
  C   C267      1.0  0.92756  0.20603  0.43913  1.0000
  C   C268      1.0  0.65787  0.23131  0.46775  1.0000
  H   H454      1.0  0.87048  0.98579  0.46298  1.0000
  C   C269      1.0  0.00063  0.19152  0.06878  1.0000
  C   C270      1.0  0.95204  0.14796  0.45028  1.0000
  H   H455      1.0  0.66295  0.27574  0.47844  1.0000
  C   C271      1.0  0.96621  0.12200  0.43864  1.0000
  H   H456      1.0  0.94851  0.10596  0.42822  1.0000
  H   H457      1.0  0.71039  0.21206  0.48046  1.0000
  H   H458      1.0  0.99937  0.16535  0.42093  1.0000
  N   N19       1.0  0.97337  0.17168  0.46584  1.0000
  H   H459      1.0  0.98565  0.11350  0.46924  1.0000
  H   H460      1.0  0.55324  0.24519  0.00493  1.0000
  H   H461      1.0  0.94185  0.14213  0.47704  1.0000
  H   H462      1.0  0.95363  0.05800  0.48881  1.0000
  C   C272      1.0  0.77950  0.26420  0.63030  1.0000
  Fe  Fe41      1.0  0.92969  0.19796  0.85609  1.0000
  S   S80       1.0  0.94326  0.23826  0.83186  1.0000
  S   S81       1.0  0.94313  0.18264  0.93308  1.0000
  Fe  Fe42      1.0  0.89591  0.18139  0.75402  1.0000
  S   S82       1.0  0.90752  0.22053  0.72424  1.0000
  S   S83       1.0  0.86805  0.15107  0.70184  1.0000
  Fe  Fe43      1.0  0.95447  0.21334  0.77895  1.0000
  Fe  Fe44      1.0  0.89434  0.24080  0.77934  1.0000
  S   S84       1.0  0.86363  0.27931  0.75527  1.0000
  S   S85       1.0  0.94340  0.17302  0.80591  1.0000
  S   S86       1.0  0.88018  0.20177  0.80647  1.0000
  C   C273      1.0  0.77595  0.30904  0.71858  1.0000
  C   C274      1.0  0.56036  0.23391  0.87033  1.0000
  H   H463      1.0  0.87011  0.25478  0.61910  1.0000
  H   H464      1.0  0.81379  0.17465  0.62713  1.0000
  C   C275      1.0  0.82455  0.28291  0.74986  1.0000
  H   H465      1.0  0.80972  0.18524  0.54591  1.0000
  H   H466      1.0  0.75802  0.22878  0.59526  1.0000
  C   C276      1.0  0.93291  0.04849  0.60390  1.0000
  H   H467      1.0  0.91492  0.06355  0.65818  1.0000
  C   C277      1.0  0.81027  0.26327  0.76918  1.0000
  N   N20       1.0  0.92452  0.07539  0.57601  1.0000
  C   C278      1.0  0.52393  0.26807  0.87999  1.0000
  H   H468      1.0  0.77059  0.21286  0.68061  1.0000
  H   H469      1.0  0.82336  0.24575  0.78924  1.0000
  C   C279      1.0  0.87509  0.15253  0.64879  1.0000
  C   C280      1.0  0.90060  0.16617  0.64592  1.0000
  C   C281      1.0  0.90507  0.16865  0.60288  1.0000
  C   C282      1.0  0.88429  0.15722  0.56249  1.0000
  C   C283      1.0  0.85899  0.14316  0.56533  1.0000
  C   C284      1.0  0.85451  0.14069  0.60853  1.0000
  H   H470      1.0  0.91720  0.17454  0.67700  1.0000
  H   H471      1.0  0.92499  0.17916  0.60113  1.0000
  H   H472      1.0  0.84301  0.13406  0.53439  1.0000
  H   H473      1.0  0.83491  0.12981  0.61066  1.0000
  C   C285      1.0  0.55530  0.30251  0.73257  1.0000
  H   H474      1.0  0.56661  0.27078  0.83108  1.0000
  H   H475      1.0  0.94658  0.04012  0.68017  1.0000
  C   C286      1.0  0.53930  0.25496  0.72433  1.0000
  C   C287      1.0  0.55954  0.27572  0.72128  1.0000
  C   C288      1.0  0.96590  0.10062  0.64244  1.0000
  C   C289      1.0  0.78055  0.23876  0.60244  1.0000
  H   H476      1.0  0.58584  0.26964  0.94179  1.0000
  H   H477      1.0  0.54320  0.23419  0.71658  1.0000
  H   H478      1.0  0.57883  0.27085  0.71127  1.0000
  H   H479      1.0  0.54224  0.22737  0.83737  1.0000
  H   H480      1.0  0.96799  0.11849  0.66483  1.0000
  C   C290      1.0  0.53699  0.29723  0.88091  1.0000
  C   C291      1.0  0.51425  0.26080  0.73771  1.0000
  H   H481      1.0  0.88474  0.06123  0.51918  1.0000
  H   H482      1.0  0.60026  0.26110  0.88277  1.0000
  H   H483      1.0  0.54272  0.28187  0.60497  1.0000
  C   C292      1.0  0.52167  0.24283  0.60206  1.0000
  H   H484      1.0  0.51717  0.22923  0.94002  1.0000
  H   H485      1.0  0.00378  0.13399  0.86845  1.0000
  C   C293      1.0  0.97170  0.19572  0.98362  1.0000
  H   H486      1.0  0.54319  0.23597  0.63089  1.0000
  H   H487      1.0  0.54552  0.20548  0.93864  1.0000
  C   C294      1.0  0.57158  0.25311  0.94832  1.0000
  H   H488      1.0  0.95792  0.04413  0.61437  1.0000
  H   H489      1.0  0.77526  0.18469  0.61432  1.0000
  H   H490      1.0  0.54234  0.27828  0.97456  1.0000
  H   H491      1.0  0.88506  0.09708  0.52607  1.0000
  C   C295      1.0  0.93789  0.05453  0.50829  1.0000
  H   H492      1.0  0.98296  0.10360  0.62532  1.0000
  H   H493      1.0  0.77343  0.20330  0.53209  1.0000
  C   C296      1.0  0.94205  0.07777  0.54299  1.0000
  H   H494      1.0  0.96709  0.07842  0.56314  1.0000
  H   H495      1.0  0.51107  0.26369  0.84240  1.0000
  H   H496      1.0  0.94838  0.18694  0.50739  1.0000
  H   H497      1.0  0.94375  0.03406  0.52643  1.0000
  H   H498      1.0  0.54344  0.26264  0.55819  1.0000
  H   H499      1.0  0.58794  0.23562  0.96355  1.0000
  H   H500      1.0  0.98819  0.14758  0.90806  1.0000
  H   H501      1.0  0.51446  0.22570  0.57780  1.0000
  H   H502      1.0  0.85425  0.25732  0.66361  1.0000
  H   H503      1.0  0.86812  0.05078  0.58345  1.0000
  N   N21       1.0  0.54641  0.24501  0.90369  1.0000
  H   H504      1.0  0.97184  0.21145  0.49515  1.0000
  H   H505      1.0  0.80109  0.27569  0.64181  1.0000
  C   C297      1.0  0.51017  0.30743  0.51889  1.0000
  S   S87       1.0  0.99800  0.21815  0.76224  1.0000
  H   H506      1.0  0.92955  0.11903  0.58364  1.0000
  C   C298      1.0  0.92540  0.04535  0.64942  1.0000
  C   C299      1.0  0.98893  0.21864  0.98080  1.0000
  S   S88       1.0  0.59362  0.29818  0.53747  1.0000
  H   H507      1.0  0.58978  0.24228  0.83064  1.0000
  H   H508      1.0  0.56133  0.29827  0.88498  1.0000
  H   H509      1.0  0.00292  0.19041  0.89788  1.0000
  S   S89       1.0  0.89222  0.15911  0.51032  1.0000
  C   C300      1.0  0.58035  0.25354  0.85350  1.0000
  C   C301      1.0  0.84832  0.25375  0.62576  1.0000
  H   H510      1.0  0.85238  0.20979  0.62653  1.0000
  H   H511      1.0  0.83338  0.27057  0.60386  1.0000
  H   H512      1.0  0.97213  0.08218  0.66643  1.0000
  H   H513      1.0  0.91726  0.10315  0.62580  1.0000
  C   C302      1.0  0.79629  0.19046  0.60745  1.0000
  H   H514      1.0  0.51761  0.31170  0.62672  1.0000
  H   H515      1.0  0.82351  0.23694  0.69363  1.0000
  C   C303      1.0  0.78861  0.18672  0.55430  1.0000
  C   C304      1.0  0.77912  0.26648  0.76322  1.0000
  C   C305      1.0  0.93278  0.10003  0.60629  1.0000
  H   H516      1.0  0.83856  0.20414  0.69346  1.0000
  C   C306      1.0  0.83390  0.22565  0.61149  1.0000
  H   H517      1.0  0.76847  0.25118  0.77863  1.0000
  C   C307      1.0  0.00153  0.16371  0.50809  1.0000
  H   H518      1.0  0.79348  0.18154  0.69587  1.0000
  S   S90       1.0  0.63650  0.29545  0.67044  1.0000
  C   C308      1.0  0.81714  0.21670  0.67814  1.0000
  N   N22       1.0  0.80674  0.21856  0.62506  1.0000
  C   C309      1.0  0.80724  0.30593  0.72490  1.0000
  H   H519      1.0  0.77358  0.25870  0.66158  1.0000
  H   H520      1.0  0.84461  0.07718  0.54600  1.0000
  H   H521      1.0  0.76121  0.27853  0.60768  1.0000
  H   H522      1.0  0.57454  0.21524  0.88650  1.0000
  C   C310      1.0  0.76166  0.28930  0.73781  1.0000
  H   H523      1.0  0.93596  0.09737  0.52141  1.0000
  H   H524      1.0  0.80145  0.20819  0.73641  1.0000
  C   C311      1.0  0.79400  0.20415  0.69832  1.0000
  C   C312      1.0  0.67195  0.25605  0.49775  1.0000
  C   C313      1.0  0.50967  0.28770  0.74810  1.0000
  C   C314      1.0  0.52935  0.22192  0.91728  1.0000
  H   H525      1.0  0.82779  0.22577  0.57269  1.0000
  S   S91       1.0  0.72236  0.29184  0.73169  1.0000
  H   H526      1.0  0.78025  0.24631  0.56729  1.0000
  H   H527      1.0  0.98909  0.15872  0.75870  1.0000
  H   H528      1.0  0.98449  0.22927  0.94709  1.0000
  H   H529      1.0  0.69731  0.25574  0.51047  1.0000
  H   H530      1.0  0.53298  0.30916  0.90848  1.0000
  C   C315      1.0  0.89086  0.07698  0.54608  1.0000
  H   H531      1.0  0.66524  0.25553  0.52925  1.0000
  H   H532      1.0  0.98383  0.13027  0.54196  1.0000
  H   H533      1.0  0.92142  0.03138  0.58122  1.0000
  H   H534      1.0  0.87192  0.08601  0.60133  1.0000
  C   C316      1.0  0.53025  0.30833  0.74599  1.0000
  H   H535      1.0  0.66390  0.21322  0.49290  1.0000
  C   C317      1.0  0.86812  0.07251  0.57157  1.0000
  H   H536      1.0  0.90950  0.02808  0.64661  1.0000
  H   H537      1.0  0.98308  0.16357  0.56563  1.0000
  H   H538      1.0  0.52392  0.30841  0.84703  1.0000
  H   H539      1.0  0.51512  0.19440  0.85762  1.0000
  C   C318      1.0  0.99582  0.14996  0.55065  1.0000
  C   C319      1.0  0.52810  0.26884  0.57695  1.0000
  H   H540      1.0  0.77660  0.16703  0.54441  1.0000
  H   H541      1.0  0.50634  0.26946  0.89661  1.0000
  H   H542      1.0  0.52492  0.29963  0.50035  1.0000
  C   C320      1.0  0.56089  0.26263  0.98766  1.0000
  C   C321      1.0  0.62282  0.32041  0.43065  1.0000
  C   C322      1.0  0.60056  0.64274  0.40226  1.0000
  C   C323      1.0  0.62183  0.62663  0.48497  1.0000
  H   H543      1.0  0.54572  0.34120  0.44960  1.0000
  C   C324      1.0  0.56102  0.38232  0.45294  1.0000
  H   H544      1.0  0.55860  0.35693  0.32400  1.0000
  C   C325      1.0  0.54956  0.35649  0.42442  1.0000
  H   H545      1.0  0.52546  0.40220  0.35732  1.0000
  H   H546      1.0  0.55635  0.39264  0.30831  1.0000
  H   H547      1.0  0.64024  0.61618  0.43200  1.0000
  H   H548      1.0  0.53414  0.62241  0.47730  1.0000
  H   H549      1.0  0.63911  0.33426  0.42446  1.0000
  C   C326      1.0  0.52635  0.38095  0.34607  1.0000
  C   C327      1.0  0.62250  0.62733  0.43900  1.0000
  H   H550      1.0  0.53533  0.32461  0.35215  1.0000
  H   H551      1.0  0.56883  0.34739  0.41677  1.0000
  H   H552      1.0  0.57682  0.38159  0.36803  1.0000
  N   N23       1.0  0.52141  0.36009  0.38040  1.0000
  C   C328      1.0  0.51460  0.33302  0.35681  1.0000
  H   H553      1.0  0.55675  0.40149  0.43092  1.0000
  H   H554      1.0  0.58630  0.38074  0.47112  1.0000
  H   H555      1.0  0.55038  0.38434  0.47988  1.0000
  C   C329      1.0  0.55632  0.37752  0.33651  1.0000
  H   H556      1.0  0.52533  0.62296  0.39491  1.0000
  C   C330      1.0  0.62066  0.31811  0.47564  1.0000
  S   S92       1.0  0.60282  0.64528  0.34556  1.0000
  H   H557      1.0  0.50735  0.38043  0.31114  1.0000
  Fe  Fe45      1.0  0.61656  0.32992  0.69666  1.0000
  S   S93       1.0  0.60116  0.35313  0.62724  1.0000
  C   C331      1.0  0.79235  0.60446  0.80589  1.0000
  C   C332      1.0  0.53148  0.59013  0.63920  1.0000
  S   S94       1.0  0.66827  0.34174  0.62042  1.0000
  H   H558      1.0  0.80972  0.60203  0.71271  1.0000
  Fe  Fe46      1.0  0.64674  0.37377  0.65139  1.0000
  S   S95       1.0  0.63650  0.41911  0.62833  1.0000
  S   S96       1.0  0.58108  0.32917  0.73226  1.0000
  C   C333      1.0  0.76664  0.61392  0.82245  1.0000
  S   S97       1.0  0.66120  0.35261  0.72363  1.0000
  Fe  Fe47      1.0  0.66752  0.57815  0.68651  1.0000
  S   S98       1.0  0.67872  0.60533  0.74837  1.0000
  S   S99       1.0  0.68976  0.53542  0.70611  1.0000
  C   C334      1.0  0.52932  0.64982  0.91551  1.0000
  H   H559      1.0  0.81357  0.55266  0.75113  1.0000
  C   C335      1.0  0.82780  0.59378  0.74528  1.0000
  H   H560      1.0  0.73746  0.58166  0.73838  1.0000
  S   S100      1.0  0.68050  0.60987  0.64088  1.0000
  S   S101      1.0  0.61771  0.59037  0.65929  1.0000
  H   H561      1.0  0.75946  0.60558  0.71975  1.0000
  H   H562      1.0  0.52509  0.64057  0.94644  1.0000
  C   C336      1.0  0.75775  0.56637  0.69054  1.0000
  H   H563      1.0  0.54368  0.43383  0.70460  1.0000
  C   C337      1.0  0.65249  0.45116  0.64981  1.0000
  C   C338      1.0  0.68149  0.45339  0.68491  1.0000
  C   C339      1.0  0.69248  0.47932  0.70173  1.0000
  C   C340      1.0  0.67473  0.50330  0.68363  1.0000
  C   C341      1.0  0.64577  0.50105  0.64853  1.0000
  C   C342      1.0  0.63483  0.47516  0.63165  1.0000
  H   H564      1.0  0.69542  0.43517  0.69910  1.0000
  H   H565      1.0  0.71495  0.48081  0.72880  1.0000
  H   H566      1.0  0.63191  0.51927  0.63413  1.0000
  H   H567      1.0  0.61244  0.47372  0.60434  1.0000
  N   N24       1.0  0.60931  0.42681  0.75110  1.0000
  C   C343      1.0  0.60360  0.40002  0.77265  1.0000
  C   C344      1.0  0.64217  0.42614  0.75388  1.0000
  C   C345      1.0  0.58969  0.42918  0.69915  1.0000
  C   C346      1.0  0.60423  0.45027  0.77814  1.0000
  C   C347      1.0  0.57019  0.39398  0.76649  1.0000
  C   C348      1.0  0.66702  0.42103  0.80323  1.0000
  C   C349      1.0  0.55764  0.44270  0.68534  1.0000
  C   C350      1.0  0.61333  0.47865  0.76345  1.0000
  H   H568      1.0  0.61201  0.38249  0.75802  1.0000
  H   H569      1.0  0.61664  0.39878  0.81132  1.0000
  H   H570      1.0  0.64804  0.44556  0.73930  1.0000
  H   H571      1.0  0.64544  0.41009  0.73107  1.0000
  H   H572      1.0  0.60115  0.44159  0.67906  1.0000
  H   H573      1.0  0.58704  0.40871  0.68328  1.0000
  H   H574      1.0  0.58001  0.45161  0.77550  1.0000
  H   H575      1.0  0.61750  0.44662  0.81642  1.0000
  H   H576      1.0  0.76536  0.60064  0.85205  1.0000
  H   H577      1.0  0.76298  0.32679  0.69920  1.0000
  H   H578      1.0  0.55194  0.64295  0.91585  1.0000
  H   H579      1.0  0.68985  0.42272  0.80000  1.0000
  H   H580      1.0  0.66612  0.43643  0.82840  1.0000
  H   H581      1.0  0.66601  0.40002  0.81771  1.0000
  H   H582      1.0  0.54486  0.43998  0.64720  1.0000
  H   H583      1.0  0.74411  0.61495  0.79331  1.0000
  S   S102      1.0  0.59539  0.63996  0.54981  1.0000
  H   H584      1.0  0.59741  0.49458  0.76679  1.0000
  H   H585      1.0  0.61250  0.48019  0.72658  1.0000
  H   H586      1.0  0.63650  0.48416  0.78788  1.0000
  H   H587      1.0  0.84623  0.58491  0.73510  1.0000
  H   H588      1.0  0.55939  0.41055  0.77911  1.0000
  H   H589      1.0  0.79634  0.62212  0.78475  1.0000
  H   H590      1.0  0.79575  0.51941  0.78379  1.0000
  Fe  Fe48      1.0  0.63121  0.62423  0.61873  1.0000
  H   H591      1.0  0.55162  0.62001  0.80095  1.0000
  H   H592      1.0  0.55935  0.46508  0.69029  1.0000
  C   C351      1.0  0.75950  0.58397  0.73256  1.0000
  H   H593      1.0  0.63876  0.61473  0.51312  1.0000
  N   N25       1.0  0.78637  0.57871  0.77820  1.0000
  H   H594      1.0  0.54884  0.60267  0.63115  1.0000
  Fe  Fe49      1.0  0.62956  0.61997  0.71776  1.0000
  S   S103      1.0  0.59785  0.62018  0.76010  1.0000
  Fe  Fe50      1.0  0.68913  0.63760  0.70151  1.0000
  H   H595      1.0  0.81367  0.60217  0.83783  1.0000
  H   H596      1.0  0.76691  0.57764  0.66626  1.0000
  C   C352      1.0  0.77509  0.52736  0.78889  1.0000
  H   H597      1.0  0.77071  0.51310  0.81500  1.0000
  H   H598      1.0  0.53359  0.61288  0.69931  1.0000
  H   H599      1.0  0.73328  0.56300  0.66912  1.0000
  C   C353      1.0  0.81565  0.57148  0.77099  1.0000
  H   H600      1.0  0.83819  0.61088  0.76852  1.0000
  H   H601      1.0  0.54826  0.32257  0.57945  1.0000
  H   H602      1.0  0.83427  0.56660  0.80561  1.0000
  H   H603      1.0  0.76852  0.54583  0.69996  1.0000
  H   H604      1.0  0.75471  0.52631  0.75612  1.0000
  H   H605      1.0  0.54415  0.57235  0.66169  1.0000
  C   C354      1.0  0.77917  0.55635  0.80804  1.0000
  H   H606      1.0  0.75740  0.56106  0.81332  1.0000
  H   H607      1.0  0.79738  0.55492  0.84387  1.0000
  H   H608      1.0  0.51269  0.34221  0.56375  1.0000
  H   H609      1.0  0.77155  0.63495  0.83557  1.0000
  H   H610      1.0  0.51492  0.58199  0.60643  1.0000
  H   H611      1.0  0.55647  0.38946  0.72941  1.0000
  H   H612      1.0  0.56977  0.37513  0.78788  1.0000
  H   H613      1.0  0.52538  0.64218  0.60195  1.0000
  C   C355      1.0  0.55220  0.64058  0.78681  1.0000
  H   H614      1.0  0.53542  0.59327  0.51490  1.0000
  C   C356      1.0  0.57341  0.64679  0.76504  1.0000
  H   H615      1.0  0.52667  0.32897  0.75470  1.0000
  H   H616      1.0  0.53597  0.34498  0.52873  1.0000
  H   H617      1.0  0.63513  0.33025  0.50391  1.0000
  Fe  Fe51      1.0  0.68046  0.31936  0.69159  1.0000
  C   C357      1.0  0.52770  0.33038  0.55017  1.0000
  C   C358      1.0  0.51545  0.60607  0.66668  1.0000
  H   H618      1.0  0.51155  0.64162  0.88389  1.0000
  H   H619      1.0  0.52158  0.62503  0.52642  1.0000
  C   C359      1.0  0.59880  0.64095  0.49399  1.0000
  H   H620      1.0  0.81805  0.32137  0.71005  1.0000
  Fe  Fe52      1.0  0.62342  0.31995  0.60207  1.0000
  H   H621      1.0  0.76073  0.64549  0.67229  1.0000
  C   C360      1.0  0.52178  0.61195  0.49771  1.0000
  S   S104      1.0  0.97755  0.74549  0.29462  1.0000
  Fe  Fe53      1.0  0.79634  0.81927  0.37247  1.0000
  S   S105      1.0  0.80549  0.84770  0.43238  1.0000
  S   S106      1.0  0.75763  0.78815  0.34540  1.0000
  Fe  Fe54      1.0  0.85434  0.83773  0.35253  1.0000
  S   S107      1.0  0.86669  0.86793  0.41005  1.0000
  S   S108      1.0  0.88473  0.83759  0.30821  1.0000
  Fe  Fe55      1.0  0.85494  0.83427  0.45287  1.0000
  C   C361      1.0  0.92818  0.78386  0.04895  1.0000
  Fe  Fe56      1.0  0.81671  0.87924  0.38456  1.0000
  S   S109      1.0  0.79415  0.92181  0.36489  1.0000
  S   S110      1.0  0.84522  0.80351  0.39654  1.0000
  S   S111      1.0  0.80483  0.85134  0.32345  1.0000
  Fe  Fe57      1.0  0.58392  0.74282  0.29277  1.0000
  S   S112      1.0  0.59565  0.70832  0.25580  1.0000
  S   S113      1.0  0.61750  0.77689  0.32755  1.0000
  C   C362      1.0  0.57668  0.65590  0.45706  1.0000
  S   S114      1.0  0.52870  0.68087  0.24348  1.0000
  Fe  Fe58      1.0  0.57618  0.68115  0.29936  1.0000
  H   H622      1.0  0.63478  0.75684  0.46498  1.0000
  Fe  Fe59      1.0  0.54681  0.71216  0.20386  1.0000
  S   S115      1.0  0.53437  0.72177  0.12494  1.0000
  S   S116      1.0  0.56652  0.71553  0.33841  1.0000
  S   S117      1.0  0.53595  0.74832  0.23908  1.0000
  H   H623      1.0  0.56705  0.71885  0.04460  1.0000
  H   H624      1.0  0.94473  0.86812  0.45871  1.0000
  H   H625      1.0  0.58009  0.68638  0.07293  1.0000
  H   H626      1.0  0.55870  0.66690  0.46367  1.0000
  C   C363      1.0  0.97692  0.74480  0.99627  1.0000
  C   C364      1.0  0.71908  0.78504  0.34259  1.0000
  C   C365      1.0  0.70044  0.76531  0.31366  1.0000
  C   C366      1.0  0.66952  0.76237  0.30907  1.0000
  C   C367      1.0  0.65670  0.77925  0.33330  1.0000
  C   C368      1.0  0.67547  0.79870  0.36295  1.0000
  C   C369      1.0  0.70653  0.80144  0.36792  1.0000
  H   H627      1.0  0.70990  0.75234  0.29417  1.0000
  H   H628      1.0  0.65550  0.74731  0.28616  1.0000
  H   H629      1.0  0.66590  0.81173  0.38219  1.0000
  H   H630      1.0  0.72072  0.81624  0.39118  1.0000
  C   C370      1.0  0.65319  0.70741  0.39277  1.0000
  H   H631      1.0  0.72465  0.92390  0.25135  1.0000
  H   H632      1.0  0.71270  0.73973  0.41132  1.0000
  H   H633      1.0  0.92806  0.88364  0.40224  1.0000
  H   H634      1.0  0.55947  0.66734  0.38316  1.0000
  H   H635      1.0  0.96562  0.89420  0.43924  1.0000
  C   C371      1.0  0.95254  0.77146  0.29966  1.0000
  C   C372      1.0  0.95371  0.79844  0.28338  1.0000
  C   C373      1.0  0.93263  0.81829  0.28599  1.0000
  C   C374      1.0  0.91050  0.81158  0.30573  1.0000
  C   C375      1.0  0.90955  0.78469  0.32257  1.0000
  C   C376      1.0  0.93027  0.76469  0.31906  1.0000
  H   H636      1.0  0.97075  0.80398  0.26858  1.0000
  H   H637      1.0  0.93356  0.83904  0.27288  1.0000
  H   H638      1.0  0.89257  0.77920  0.33767  1.0000
  H   H639      1.0  0.92905  0.74384  0.33155  1.0000
  C   C377      1.0  0.81041  0.95451  0.38184  1.0000
  H   H640      1.0  0.88538  0.80481  0.19103  1.0000
  H   H641      1.0  0.85077  0.93943  0.43834  1.0000
  H   H642      1.0  0.94499  0.84491  0.37848  1.0000
  N   N26       1.0  0.92756  0.77241  0.13212  1.0000
  C   C378      1.0  0.92956  0.74209  0.12531  1.0000
  C   C379      1.0  0.91135  0.78581  0.08392  1.0000
  C   C380      1.0  0.90879  0.77600  0.16274  1.0000
  C   C381      1.0  0.95973  0.78254  0.15592  1.0000
  C   C382      1.0  0.94171  0.72358  0.17074  1.0000
  C   C383      1.0  0.71203  0.92462  0.27583  1.0000
  C   C384      1.0  0.67133  0.69195  0.36784  1.0000
  C   C385      1.0  0.96464  0.81382  0.15688  1.0000
  H   H643      1.0  0.90668  0.73414  0.10362  1.0000
  H   H644      1.0  0.94479  0.73795  0.10545  1.0000
  H   H645      1.0  0.90647  0.80782  0.08554  1.0000
  C   C386      1.0  0.96418  0.85487  0.40595  1.0000
  H   H646      1.0  0.88855  0.76235  0.15168  1.0000
  H   H647      1.0  0.92229  0.76959  0.20000  1.0000
  H   H648      1.0  0.96924  0.77482  0.19334  1.0000
  H   H649      1.0  0.97569  0.77364  0.14052  1.0000
  H   H650      1.0  0.96495  0.72932  0.19402  1.0000
  H   H651      1.0  0.92611  0.72353  0.19081  1.0000
  H   H652      1.0  0.94338  0.70213  0.16107  1.0000
  H   H653      1.0  0.87743  0.81092  0.12977  1.0000
  H   H654      1.0  0.92421  0.81902  0.42296  1.0000
  H   H655      1.0  0.63052  0.69734  0.38182  1.0000
  C   C387      1.0  0.57699  0.69896  0.04026  1.0000
  N   N27       1.0  0.98632  0.83403  0.43853  1.0000
  H   H656      1.0  0.65992  0.69555  0.32914  1.0000
  C   C388      1.0  0.89593  0.80491  0.16366  1.0000
  H   H657      1.0  0.94754  0.82599  0.12810  1.0000
  H   H658      1.0  0.69516  0.69886  0.37728  1.0000
  H   H659      1.0  0.96574  0.82174  0.19107  1.0000
  C   C389      1.0  0.97300  0.81870  0.47047  1.0000
  H   H660      1.0  0.72863  0.92512  0.31248  1.0000
  C   C390      1.0  0.94222  0.80452  0.44568  1.0000
  Fe  Fe60      1.0  0.52012  0.71673  0.28095  1.0000
  H   H661      1.0  0.99552  0.83857  0.34797  1.0000
  H   H662      1.0  0.92850  0.76268  0.03742  1.0000
  H   H663      1.0  0.94466  0.78713  0.42497  1.0000
  H   H664      1.0  0.98688  0.81826  0.15289  1.0000
  H   H665      1.0  0.59993  0.70202  0.03828  1.0000
  N   N28       1.0  0.66727  0.70846  0.44588  1.0000
  H   H666      1.0  0.97152  0.71308  0.04373  1.0000
  C   C391      1.0  0.95040  0.87633  0.42860  1.0000
  C   C392      1.0  0.00122  0.74466  0.08233  1.0000
  H   H667      1.0  0.88826  0.77679  0.06714  1.0000
  C   C393      1.0  0.99105  0.76960  0.99314  1.0000
  H   H668      1.0  0.70015  0.86500  0.37008  1.0000
  H   H669      1.0  0.67107  0.66949  0.37480  1.0000
  H   H670      1.0  0.64849  0.72832  0.37609  1.0000
  C   C394      1.0  0.98234  0.73231  0.04105  1.0000
  H   H671      1.0  0.97242  0.80348  0.38525  1.0000
  H   H672      1.0  0.91376  0.82065  0.17326  1.0000
  C   C395      1.0  0.62218  0.73881  0.44692  1.0000
  C   C396      1.0  0.83818  0.95745  0.41941  1.0000
  N   N29       1.0  0.70281  0.87249  0.27675  1.0000
  C   C397      1.0  0.71642  0.86785  0.23966  1.0000
  C   C398      1.0  0.68913  0.90100  0.26906  1.0000
  C   C399      1.0  0.67801  0.85220  0.27378  1.0000
  C   C400      1.0  0.72788  0.86888  0.32460  1.0000
  C   C401      1.0  0.72620  0.83809  0.23614  1.0000
  H   H673      1.0  0.53246  0.68345  0.00125  1.0000
  C   C402      1.0  0.65117  0.85175  0.22594  1.0000
  C   C403      1.0  0.71951  0.87687  0.36705  1.0000
  H   H674      1.0  0.70041  0.87491  0.20406  1.0000
  H   H675      1.0  0.73733  0.88034  0.24610  1.0000
  H   H676      1.0  0.67594  0.90424  0.29241  1.0000
  H   H677      1.0  0.67220  0.90408  0.23253  1.0000
  H   H678      1.0  0.68767  0.83105  0.28267  1.0000
  H   H679      1.0  0.66744  0.85615  0.30026  1.0000
  H   H680      1.0  0.73604  0.84722  0.33168  1.0000
  H   H681      1.0  0.74835  0.88084  0.32600  1.0000
  H   H682      1.0  0.73762  0.83768  0.20995  1.0000
  H   H683      1.0  0.74296  0.82977  0.26991  1.0000
  H   H684      1.0  0.70647  0.82416  0.22398  1.0000
  H   H685      1.0  0.95184  0.79168  0.06346  1.0000
  H   H686      1.0  0.97531  0.86686  0.38497  1.0000
  H   H687      1.0  0.69923  0.94445  0.26828  1.0000
  H   H688      1.0  0.63583  0.83466  0.22741  1.0000
  H   H689      1.0  0.65879  0.84809  0.19621  1.0000
  H   H690      1.0  0.63712  0.87083  0.21855  1.0000
  H   H691      1.0  0.71441  0.89905  0.36625  1.0000
  H   H692      1.0  0.73956  0.87241  0.39992  1.0000
  H   H693      1.0  0.67591  0.75173  0.44202  1.0000
  H   H694      1.0  0.61471  0.74281  0.40844  1.0000
  C   C404      1.0  0.99359  0.81318  0.40862  1.0000
  C   C405      1.0  0.57738  0.65658  0.41144  1.0000
  H   H695      1.0  0.50883  0.66663  0.10675  1.0000
  C   C406      1.0  0.55517  0.68409  0.99749  1.0000
  H   H696      1.0  0.91572  0.79662  0.01661  1.0000
  H   H697      1.0  0.93373  0.79579  0.47284  1.0000
  H   H698      1.0  0.77276  0.97632  0.32888  1.0000
  H   H699      1.0  0.60117  0.73709  0.45568  1.0000
  C   C407      1.0  0.79429  0.97829  0.35790  1.0000
  C   C408      1.0  0.71757  0.73215  0.44823  1.0000
  H   H700      1.0  0.72914  0.71192  0.45428  1.0000
  C   C409      1.0  0.50868  0.70655  0.07417  1.0000
  H   H701      1.0  0.73467  0.74582  0.47205  1.0000
  H   H702      1.0  0.70210  0.67695  0.45455  1.0000
  H   H703      1.0  0.56339  0.66241  0.00244  1.0000
  C   C410      1.0  0.68825  0.73256  0.46004  1.0000
  H   H704      1.0  0.66688  0.66449  0.45380  1.0000
  C   C411      1.0  0.68309  0.68154  0.46670  1.0000
  H   H705      1.0  0.62565  0.69464  0.45479  1.0000
  C   C412      1.0  0.64155  0.71225  0.46408  1.0000
  H   H706      1.0  0.81360  0.75055  0.56206  1.0000
  Fe  Fe61      1.0  0.96822  0.73176  0.79012  1.0000
  S   S118      1.0  0.96146  0.76802  0.82854  1.0000
  Fe  Fe62      1.0  0.90327  0.70826  0.77820  1.0000
  S   S119      1.0  0.89337  0.74335  0.81575  1.0000
  S   S120      1.0  0.86704  0.67719  0.73905  1.0000
  Fe  Fe63      1.0  0.91392  0.76972  0.77275  1.0000
  S   S121      1.0  0.88895  0.80670  0.72746  1.0000
  Fe  Fe64      1.0  0.94201  0.73737  0.86749  1.0000
  S   S122      1.0  0.95098  0.72929  0.94600  1.0000
  S   S123      1.0  0.92169  0.73485  0.73330  1.0000
  S   S124      1.0  0.95114  0.70066  0.83139  1.0000
  H   H707      1.0  0.53732  0.65408  0.65989  1.0000
  C   C413      1.0  0.78821  0.73280  0.62937  1.0000
  H   H708      1.0  0.56272  0.70327  0.86542  1.0000
  C   C414      1.0  0.53774  0.74189  0.90014  1.0000
  C   C415      1.0  0.69628  0.67837  0.52100  1.0000
  N   N30       1.0  0.99545  0.83837  0.67171  1.0000
  H   H709      1.0  0.99876  0.87451  0.50897  1.0000
  H   H710      1.0  0.80874  0.78529  0.73174  1.0000
  C   C416      1.0  0.82823  0.67627  0.73536  1.0000
  C   C417      1.0  0.81813  0.69012  0.76644  1.0000
  C   C418      1.0  0.78770  0.68727  0.76441  1.0000
  H   H711      1.0  0.69461  0.73660  0.49806  1.0000
  H   H712      1.0  0.83398  0.70244  0.79294  1.0000
  H   H713      1.0  0.78041  0.69761  0.78943  1.0000
  C   C419      1.0  0.88821  0.80955  0.66893  1.0000
  C   C420      1.0  0.90746  0.79325  0.65463  1.0000
  C   C421      1.0  0.90692  0.79571  0.60843  1.0000
  C   C422      1.0  0.88753  0.81487  0.57591  1.0000
  C   C423      1.0  0.86775  0.83103  0.58953  1.0000
  C   C424      1.0  0.86819  0.82842  0.63609  1.0000
  H   H714      1.0  0.92361  0.77927  0.67940  1.0000
  H   H715      1.0  0.92236  0.78318  0.59823  1.0000
  H   H716      1.0  0.85299  0.84618  0.56483  1.0000
  H   H717      1.0  0.85333  0.84130  0.64685  1.0000
  H   H718      1.0  0.78366  0.80337  0.57600  1.0000
  C   C425      1.0  0.80714  0.66045  0.70106  1.0000
  C   C426      1.0  0.55336  0.69363  0.75061  1.0000
  C   C427      1.0  0.57392  0.67349  0.74700  1.0000
  H   H719      1.0  0.55882  0.74430  0.89193  1.0000
  H   H720      1.0  0.98779  0.82701  0.76924  1.0000
  H   H721      1.0  0.95381  0.83484  0.71714  1.0000
  H   H722      1.0  0.78773  0.78588  0.64883  1.0000
  H   H723      1.0  0.59017  0.67863  0.73033  1.0000
  C   C428      1.0  0.58251  0.69178  0.94309  1.0000
  H   H724      1.0  0.98702  0.77946  0.95893  1.0000
  H   H725      1.0  0.51494  0.65534  0.80597  1.0000
  H   H726      1.0  0.79574  0.71074  0.57072  1.0000
  H   H727      1.0  0.52981  0.76292  0.90311  1.0000
  C   C429      1.0  0.84449  0.73955  0.65731  1.0000
  H   H728      1.0  0.84702  0.73066  0.69269  1.0000
  S   S125      1.0  0.64063  0.65438  0.67603  1.0000
  C   C430      1.0  0.52619  0.68130  0.91355  1.0000
  C   C431      1.0  0.78260  0.78320  0.56000  1.0000
  C   C432      1.0  0.53137  0.66059  0.78980  1.0000
  H   H729      1.0  0.98139  0.86068  0.57729  1.0000
  C   C433      1.0  0.96527  0.84170  0.63111  1.0000
  H   H730      1.0  0.83172  0.77939  0.59163  1.0000
  H   H731      1.0  0.99686  0.81110  0.58853  1.0000
  N   N31       1.0  0.81341  0.75295  0.63344  1.0000
  C   C434      1.0  0.96381  0.86391  0.59296  1.0000
  S   S126      1.0  0.89222  0.82016  0.52141  1.0000
  H   H732      1.0  0.80209  0.74991  0.71894  1.0000
  H   H733      1.0  0.77166  0.69428  0.59674  1.0000
  H   H734      1.0  0.87668  0.70915  0.65200  1.0000
  H   H735      1.0  0.56288  0.73712  0.97350  1.0000
  H   H736      1.0  0.95851  0.82213  0.61309  1.0000
  H   H737      1.0  0.94643  0.84664  0.64369  1.0000
  H   H738      1.0  0.51922  0.73298  0.87048  1.0000
  C   C435      1.0  0.99280  0.81483  0.70348  1.0000
  C   C436      1.0  0.97327  0.82038  0.73377  1.0000
  H   H739      1.0  0.52248  0.68833  0.87689  1.0000
  C   C437      1.0  0.81078  0.77589  0.66368  1.0000
  H   H740      1.0  0.55403  0.71424  0.73670  1.0000
  H   H741      1.0  0.96553  0.88478  0.60657  1.0000
  C   C438      1.0  0.81170  0.76585  0.58667  1.0000
  C   C439      1.0  0.58193  0.69181  0.89197  1.0000
  C   C440      1.0  0.53180  0.68726  0.77164  1.0000
  H   H742      1.0  0.78116  0.78748  0.52313  1.0000
  S   S127      1.0  0.50617  0.71322  0.77498  1.0000
  H   H743      1.0  0.76708  0.74391  0.62793  1.0000
  H   H744      1.0  0.51961  0.69114  0.59906  1.0000
  H   H745      1.0  0.86271  0.75512  0.66350  1.0000
  H   H746      1.0  0.76143  0.77264  0.55873  1.0000
  C   C441      1.0  0.77662  0.65773  0.69884  1.0000
  H   H747      1.0  0.82732  0.79236  0.66426  1.0000
  C   C442      1.0  0.76689  0.67065  0.73130  1.0000
  H   H748      1.0  0.60317  0.70133  0.89075  1.0000
  H   H749      1.0  0.84031  0.76385  0.73628  1.0000
  C   C443      1.0  0.85273  0.71596  0.63180  1.0000
  C   C444      1.0  0.54416  0.72587  0.94734  1.0000
  H   H750      1.0  0.98325  0.79646  0.68289  1.0000
  C   C445      1.0  0.81573  0.76782  0.71545  1.0000
  H   H751      1.0  0.59909  0.70754  0.96201  1.0000
  H   H752      1.0  0.98963  0.80274  0.49247  1.0000
  H   H753      1.0  0.94114  0.86297  0.56389  1.0000
  C   C446      1.0  0.77817  0.71465  0.58605  1.0000
  H   H754      1.0  0.96342  0.80075  0.74072  1.0000
  H   H755      1.0  0.79468  0.71894  0.66154  1.0000
  H   H756      1.0  0.85189  0.72208  0.59598  1.0000
  H   H757      1.0  0.83850  0.69779  0.63142  1.0000
  H   H758      1.0  0.71024  0.69602  0.53754  1.0000
  H   H759      1.0  0.71134  0.65983  0.53172  1.0000
  H   H760      1.0  0.75718  0.72328  0.55826  1.0000
  N   N32       1.0  0.55224  0.69583  0.94930  1.0000
  H   H761      1.0  0.67786  0.67497  0.53543  1.0000
  H   H762      1.0  0.58251  0.67054  0.88072  1.0000
  H   H763      1.0  0.65033  0.71258  0.50318  1.0000
  H   H764      1.0  0.59301  0.67168  0.95963  1.0000
  H   H765      1.0  0.81460  0.64998  0.67638  1.0000
  H   H766      1.0  0.96906  0.83211  0.49625  1.0000
  S   S128      1.0  0.72948  0.66654  0.73299  1.0000
  H   H767      1.0  0.52359  0.72857  0.95694  1.0000
  H   H768      1.0  0.98321  0.87122  0.70788  1.0000
  C   C447      1.0  0.00259  0.86463  0.69763  1.0000
  C   C448      1.0  0.51659  0.65039  0.62820  1.0000
