data_image0
_chemical_formula_structural       FeSHCHFeSHFeCFeSHSHC2H2CHCH2FeS2FeNH3C2H2CNSH2SCFeH7FeHSCSHCH2SCSH6C2H5C7H3NC6H4C2H3FeNC5H15S2C3SCH5CH2C2HCHCHSFeHC2H3C2FeHSHSH3CSCH5CH2SH2CH2C4H4C2FeCHCSCH6CH3SH2CH3CH2NFeSFeS2Fe2S2H6CSFeHFeS2FeS2FeSFeS3FeSFeS2H2FeS3H2C2SC2H2CHC2H3C6H4C8H6CH7C6H4CNC7H17NHC4HC2H7CHCHCHC3H2CHSC2H3C2H4C2SH2CH4CH2CHCHNHCHCH10CHC2HC3H5C3H2CHC2H4CH6C3HNH2NHCH2SH4C2H9CH3SH7CNCHC2H2C2H2C3H2CH3SH2CH3FeCSCH3FeS2FeSCFeSFeS3FeS2FeS2FeSFeS3FeHSFeHSFeS2CH2C6H4C6H6CHCHC6H4CHC2H6C5NH2CHCS3H6CHCH2C2HCH6CH3FeH2C3H6C2H3C4H3CSNC2H5CH3SCSCH3C2H2CH2NC8H14CHCH6C2NH4C2H6CHC2H4CH3C2H2CH2C2HSH2C2HCHC2NH2SHCHFeHC2H3CH2CH2C2H2CHCH3CHNC2H3CHFeSH2FeSCSHFeSFeHSHCHS2H2C2FeCH4C2HCHCH2C6H6CNHFeNHC2H4CHCSH3NHC2SH5CH2SCSHCHCHCHC3HC2HCH4FeH4FeH5CHCHCHCHCHCH2SFeCHCH2CHC3H3SHCSH5C2H5SH2SCH4CH2C2HC2NH2C3H2FeHCHFeHSFeSH2S3FeS2FeS2FeSFeS3HCH2CHCHCHC6H4C6H4C5H4SCHCH2CH3CSH2CFeH3CH2CNC8H19C2H2C2H2SCHCH2C2H7C2SH2SC3H2CHSHFeHSC2H2CH2NFeHSH2CHCH3CHC2H2SCH3FeH2FeHNCN2HCHCH4CH2SH2CH7SH3CH5CH2FeC2H2CH3CH2CH3C3HCHCH6FeS2FeS2FeSFeS3CNCFeS2FeCFeHS2FeHC2H2CFeSHSHC2H3CH3CH2C6H4C6H4C2HSHC2H5CH2CH10CH2CHC2SH2CNH3CH2SHNC8H21SC3H2NH4C2HC3H4NH4CHCH3CFeHCHC3H5C3HCHCH2C2H4C4H2C2HCH2FeH2FeS2FeS2FeHFeHS2FeS2FeHFeS2H3CHSC2H5C6H6C2H2C6H2CH2CHC2H3CH3SH5C2FeH2CHCSH2FeHNH3SH2SHCHNCHCH2CH2FeC2HCNC8H19CSHCH3CH4CH8CH2CSHFeS2FeS2FeCFeSCSFeS2FeS2FeSFeS3C2HSH5C4H9SH2SC6H4C3H2C3H4CH2C3HC3H5FeSHCHFeC3HFeH3C5H2C2HSCHCHNHCH2CH4NHCSCH10CH3NH2CH2NC8H20CH6SCNHCHCHCH4SHCH4CH2C2HCHCSH2NC2H2SFeHFeS2FeS2H3FeSFeS2FeHFeS3CHC2HC6HCH4C2H3C6H5CH2CSC6H6C5H10CHCH3FeHCSH4SH3CH2CH3CSH6C2H2CNCHCH2CH2CH3C2H2NC3HNC8H20C3H8CSC2NH2SHC3HSCH2FeS2H2SH4C3HCHC2S2Fe2S2FeS2FeSFeS3HC2H2CH3C5H5C5H5C3HCH7CH3NH9C3H2C2H3CHC2HCHSHCSH5CH3CNCHSC2H2CSH2CH2C2H8CHFeH2FeHC2H6C3H2NC5NC2H13C2H3SHCHNH2CH3C2H2C2H5NHCHC3SC2FeSFeS2FeS2FeCFeS3HSFeS2FeSFeS3CNHC4HCH6CH2C2HCH2C6H4C2H2C7H4C2NHC2H4SH3C2H4CHC2H3C2H2CH3CH2NCH4CHSH5CH4C2H3CH4CH2CHNH2C2H2FeHCH2CH2FeHCNC8H20NC4HC2H2CH5CH10CH2NHC2HSH3C2H2CSH2S2CH2CHCH3CFeS2FeS2FeCFeS3FeS2H3FeSHS2NCH2SH2CH2NHCHFeCH6C2HCSCSH4C7SCH2CH3SH2C6HFeH2C6H4C2H2CH2C2H4CH5CH6CSCH2CH8C2SHNH2CH3CH3CHCH3CNCH2C2FeCNC8H16CH3CH5CH2FeCHCHCSH2CH4C2H2CHSCH3CHC2H3CH4CH5C2H4SH2CHFeS2FeS2FeSFeS3H8SHFeS2FeS2FeSFeHS2FeS2FeSCFeSFeS2C3HC6H4C4H2NH3C6H4C6SCH2C4H3C8H2NH2CH6CNC8H12CH7CH3C2H4SH3NC8H22C2HC3H2C3H2SH3C3H3CHC2H2CH3C3H2SCHC2H4S2H2CH4CH2FeS2H2FeSHS2HFeSFeHS2HFeSHSC3H5FeH2C6H4CFeCHSC3NHC6H4C2FeH2CH12SC3H2C2H4FeH2C2SHNH2CHFeCH4FeHSHC3SC3HCHNH3CH6CH5NC7HCH9SH7SCH7CNCH2CHCH2CHC2HSH4CH4CH3CH2CFeC3HCH2C2HFeHFeHCSHFeSHFeHCHSFeS4HFeS2FeCH2CFeSHFeCHCHC3H2CSCH4SCHC6H4CH3CHCSH4CHSH3C2SH2SHSCHC2SHCH2CH7CFeCNHC4HCH7C2H5NCH2CH2CNHC3HCHSHFeCSH4SHC2NHCFeC3HCH9CH12CH3CH2SC2HCH5CHNCSCHCH4CHC2H3CHCH2CHSCH3CFeS2FeCHNH2S2FeS2FeSFeCFeSHSCHCH4FeSFeS2FeSFeS3HCH4CH3C6H4CH2CHNHSC8H11CH2C2H6C4H5CH9C2H2C3HCH8NHC3HCHC2H3SH4CH4NH6S2H2CH7C3H3C2H3CH2C2HNHC4HC2H2FeCFeH3C3H2CH5CHCH4CH4CSHCHCHC3N2CH4C2H3C6S2HC2H2CH2CH4C3H2C3H5CFeS2FeS2FeHFeHS2HSNFeNSHFeSHSH3C6H4FeH2C2H2NH2C6H8C2H2CH3CH3CH4CFeCH2CHFeHCHCFeCH5CH3CHSCH3CSH2C3H6C2HCFeNHCHSH2C3SH5CHCHC2HSCS2H2C2HSCH3CHC2SHC3HC2NHSH4CH2CH3CH5C3HNCH13FeS2FeS2FeSFeS3FeSCFeS2FeSFeCS2HCH3C2SH8FeH3C6H5CH2CHC3H9C3H8C3H4NC3H2CH2FeCH3NH3C3HCH4FeCSH2NH2C2HCH5CH3CH4CSHNHSCH2CHCH3C2HSCHC4HCHCH2NC3HCH6CHSHC2H4CNC3HCH5CH4CH4NH3CH2C3SH2SC3H3CHC2H3SC3H3C5H2C3HSNCH4CHCHC2HCH7CH2CFeS2FeS2Fe2S5FeSH5CFeHSFeH4CS2H2CH4C3H3C6H4C6H4C2H2CHC4H8CH2CNH2CHCHCHCSCH3CHCFeCH2FeC2H5C2H6SHCHCHNHCH3CH2SCH5C2NC4H3CH2C2H7C2H5CHCH2SC2HC2HSH2CH3C3HCHCH5NCH2C3H2CH6SCHFeSHSFeCH4NHC2H2CH3CHSH5CSHCHCFeS4FeSFeS2FeSFeS3HFeS2C2HFe2C2HSH3CHCHFeC4HSH3NHCH2C6H5C2H2CNH2C6H4N2HFeH2CH2C2H2CHCH2CHFeSCH3SH5CHCH3CH3C2HCH2CHCHC2H14NCSHCH2C4HCHCH4CH5C3SC2HCH3SH2FeH4CH2CHC2H4C2H5CH5CH7C2HSHCH4FeS2FeS2FeCFeS3H4SFeS2FeSFeSHSHC3H3C4HC4H4C6H4C6H2CHCHCHCHCH4SC3H2C3H5CHNC4H13CHFeH5CHSCHCH4C4H2CH3FeH5CHSNC2H2SH12CNC9H7SH7CH4CHCH4NHCH4CH3NH4C3H5SFeS2FeHFeS3H5C2H4FeS2FeS2FeSFeS3C6H6C2HSCHNFeC7H4C2HC3NH7C2H2CHC2H2CH2CNCH4SC2H4CH2CH2CH6SHC2HNC6HCH15C2H5C2HCH2CSNHCHCH2CHCSCHC2H2CHC3H2SCH4C2HC2H3CH5CH3CH3CH2FeHC2HSH2CH4CH2CH2FeHS3HCSHFeCH6S2H2CHSHCFeS2FeSFeSFeHS2H2C3H5CHSHC2H7CH3CNH3C6H4C6H4CHCHCSNH4C2FeC3HS2CHFeH2CSNCH4CH2C3HNC8H19NFeC2HC3SC4H2CH3C3HC2H3CH3CH4CH9CH4CHCH3C2H2C2HC4H5CH3FeC4H3CH2SH4FeS2FeS2FeSFeS3FeSC2H2C2H3C2HC4H2C3HC3H4C4H7SH5CH2SHC3HNH4CHSHC2H2NH3CHC2H2CHSH2SH3CH2CNH5CFeH2CHC2HNC3HCHSC2H4C2H6C2H10CH5CHFeHNC8NC2HCHCHCH4C2H2CH2SH5CH2SCHC2H9SH3CHC2HCH2CHCH3CHCH2
_chemical_formula_sum              "Fe256 S512 H3072 C1792 N128"
_cell_length_a       66.5892
_cell_length_b       66.7482
_cell_length_c       67.1208
_cell_angle_alpha    74.5636
_cell_angle_beta     74.8875
_cell_angle_gamma    75.1501

_space_group_name_H-M_alt    "P 1"
_space_group_IT_number       1

loop_
  _space_group_symop_operation_xyz
  'x, y, z'

loop_
  _atom_site_type_symbol
  _atom_site_label
  _atom_site_symmetry_multiplicity
  _atom_site_fract_x
  _atom_site_fract_y
  _atom_site_fract_z
  _atom_site_occupancy
  Fe  Fe1       1.0  0.32663  0.12138  0.19634  1.0000
  S   S1        1.0  0.29479  0.13070  0.18730  1.0000
  H   H1        1.0  0.12093  0.28515  0.14969  1.0000
  C   C1        1.0  0.35337  0.19547  0.23054  1.0000
  H   H2        1.0  0.12541  0.24476  0.18517  1.0000
  Fe  Fe2       1.0  0.20289  0.27924  0.15055  1.0000
  S   S2        1.0  0.21299  0.24460  0.14991  1.0000
  H   H3        1.0  0.25079  0.26537  0.19778  1.0000
  Fe  Fe3       1.0  0.19388  0.23956  0.18306  1.0000
  C   C2        1.0  0.45656  0.07919  0.15921  1.0000
  Fe  Fe4       1.0  0.23937  0.24502  0.16466  1.0000
  S   S3        1.0  0.27368  0.23011  0.15523  1.0000
  H   H4        1.0  0.38002  0.02423  0.02231  1.0000
  S   S4        1.0  0.23112  0.28018  0.16230  1.0000
  H   H5        1.0  0.03553  0.31359  0.01133  1.0000
  C   C3        1.0  0.30519  0.20663  0.20336  1.0000
  C   C4        1.0  0.15299  0.31511  0.14327  1.0000
  H   H6        1.0  0.36535  0.22830  0.13930  1.0000
  H   H7        1.0  0.31022  0.21704  0.21062  1.0000
  C   C5        1.0  0.45988  0.05994  0.14935  1.0000
  H   H8        1.0  0.48357  0.09879  0.12595  1.0000
  C   C6        1.0  0.46108  0.08391  0.08978  1.0000
  H   H9        1.0  0.41513  0.99667  0.01195  1.0000
  H   H10       1.0  0.37777  0.22963  0.20925  1.0000
  Fe  Fe5       1.0  0.42880  0.04444  0.06659  1.0000
  S   S5        1.0  0.45987  0.04934  0.04469  1.0000
  S   S6        1.0  0.40647  0.07238  0.07870  1.0000
  Fe  Fe6       1.0  0.45212  0.03034  0.02563  1.0000
  N   N1        1.0  0.46933  0.06267  0.12600  1.0000
  H   H11       1.0  0.45518  0.09633  0.11750  1.0000
  H   H12       1.0  0.38618  0.10639  0.13934  1.0000
  H   H13       1.0  0.47188  0.08286  0.15915  1.0000
  C   C7        1.0  0.16614  0.31273  0.12373  1.0000
  C   C8        1.0  0.36870  0.22977  0.17097  1.0000
  H   H14       1.0  0.37197  0.20343  0.15647  1.0000
  H   H15       1.0  0.44848  0.07514  0.17607  1.0000
  C   C9        1.0  0.12815  0.26687  0.11807  1.0000
  N   N2        1.0  0.13533  0.25609  0.13859  1.0000
  S   S7        1.0  0.19336  0.30211  0.12155  1.0000
  H   H16       1.0  0.34358  0.20670  0.22036  1.0000
  H   H17       1.0  0.38631  0.22804  0.16663  1.0000
  S   S8        1.0  0.41983  0.02803  0.04592  1.0000
  C   C10       1.0  0.36756  0.25914  0.18674  1.0000
  Fe  Fe7       1.0  0.34707  0.10163  0.23430  1.0000
  H   H18       1.0  0.36526  0.21915  0.18673  1.0000
  H   H19       1.0  0.11572  0.23236  0.14960  1.0000
  H   H20       1.0  0.44595  0.09335  0.15185  1.0000
  H   H21       1.0  0.13804  0.27117  0.21663  1.0000
  H   H22       1.0  0.34548  0.03832  0.19048  1.0000
  H   H23       1.0  0.18948  0.25705  0.11587  1.0000
  H   H24       1.0  0.29216  0.21580  0.19517  1.0000
  Fe  Fe8       1.0  0.47334  0.01782  0.06338  1.0000
  H   H25       1.0  0.33123  0.24134  0.19373  1.0000
  S   S9        1.0  0.22124  0.23673  0.19786  1.0000
  C   C11       1.0  0.13110  0.32283  0.14477  1.0000
  S   S10       1.0  0.32931  0.13411  0.22287  1.0000
  H   H26       1.0  0.14401  0.26245  0.17618  1.0000
  C   C12       1.0  0.36575  0.17693  0.22442  1.0000
  H   H27       1.0  0.16868  0.27348  0.10355  1.0000
  H   H28       1.0  0.32918  0.25240  0.14893  1.0000
  S   S11       1.0  0.16943  0.21898  0.19278  1.0000
  C   C13       1.0  0.36226  0.21974  0.15600  1.0000
  S   S12       1.0  0.45725  0.04050  0.99014  1.0000
  H   H29       1.0  0.31018  0.27206  0.16164  1.0000
  H   H30       1.0  0.38789  0.14796  0.23314  1.0000
  H   H31       1.0  0.29491  0.10335  0.14296  1.0000
  H   H32       1.0  0.32872  0.10128  0.16814  1.0000
  H   H33       1.0  0.43861  0.07914  0.11923  1.0000
  H   H34       1.0  0.35942  0.27540  0.18903  1.0000
  C   C14       1.0  0.15816  0.25753  0.13660  1.0000
  C   C15       1.0  0.19049  0.19046  0.22256  1.0000
  H   H35       1.0  0.29690  0.17659  0.20983  1.0000
  H   H36       1.0  0.39099  0.99453  0.04630  1.0000
  H   H37       1.0  0.36359  0.99688  0.04419  1.0000
  H   H38       1.0  0.14532  0.18646  0.21060  1.0000
  H   H39       1.0  0.15893  0.27220  0.14098  1.0000
  C   C16       1.0  0.17337  0.19571  0.21242  1.0000
  C   C17       1.0  0.39828  0.07285  0.14836  1.0000
  C   C18       1.0  0.40645  0.05384  0.14131  1.0000
  C   C19       1.0  0.40882  0.05356  0.12000  1.0000
  C   C20       1.0  0.40323  0.07233  0.10556  1.0000
  C   C21       1.0  0.39472  0.09134  0.11266  1.0000
  C   C22       1.0  0.39230  0.09162  0.13404  1.0000
  H   H40       1.0  0.41096  0.03926  0.15238  1.0000
  H   H41       1.0  0.41480  0.03878  0.11483  1.0000
  H   H42       1.0  0.39027  0.10591  0.10155  1.0000
  N   N3        1.0  0.35818  0.25251  0.17183  1.0000
  C   C23       1.0  0.28867  0.15819  0.17747  1.0000
  C   C24       1.0  0.30497  0.16949  0.16815  1.0000
  C   C25       1.0  0.30017  0.19150  0.16079  1.0000
  C   C26       1.0  0.27903  0.20239  0.16313  1.0000
  C   C27       1.0  0.26263  0.19115  0.17234  1.0000
  C   C28       1.0  0.26747  0.16900  0.17938  1.0000
  H   H43       1.0  0.32133  0.16134  0.16651  1.0000
  H   H44       1.0  0.31287  0.20015  0.15361  1.0000
  H   H45       1.0  0.24626  0.19950  0.17409  1.0000
  H   H46       1.0  0.25479  0.16032  0.18663  1.0000
  C   C29       1.0  0.37822  0.16232  0.23783  1.0000
  C   C30       1.0  0.12138  0.26783  0.15527  1.0000
  H   H47       1.0  0.10008  0.25262  0.12329  1.0000
  H   H48       1.0  0.45968  0.99492  0.00023  1.0000
  H   H49       1.0  0.16595  0.24432  0.14797  1.0000
  Fe  Fe9       1.0  0.21113  0.27190  0.19462  1.0000
  N   N4        1.0  0.32101  0.07946  0.15397  1.0000
  C   C31       1.0  0.32343  0.06205  0.17337  1.0000
  C   C32       1.0  0.32726  0.07061  0.13423  1.0000
  C   C33       1.0  0.28187  0.07598  0.15959  1.0000
  C   C34       1.0  0.34606  0.04945  0.17482  1.0000
  C   C35       1.0  0.35112  0.06676  0.12364  1.0000
  H   H50       1.0  0.35057  0.08927  0.15146  1.0000
  H   H51       1.0  0.31415  0.04990  0.17477  1.0000
  H   H52       1.0  0.32192  0.05535  0.13743  1.0000
  H   H53       1.0  0.31899  0.08166  0.12184  1.0000
  H   H54       1.0  0.28589  0.06699  0.14690  1.0000
  H   H55       1.0  0.28028  0.06502  0.17532  1.0000
  H   H56       1.0  0.31556  0.12686  0.13919  1.0000
  H   H57       1.0  0.35245  0.03952  0.16283  1.0000
  H   H58       1.0  0.33245  0.11210  0.11970  1.0000
  H   H59       1.0  0.35717  0.05960  0.17398  1.0000
  H   H60       1.0  0.35522  0.05240  0.11686  1.0000
  H   H61       1.0  0.36211  0.06411  0.13425  1.0000
  H   H62       1.0  0.35460  0.07995  0.10996  1.0000
  H   H63       1.0  0.31901  0.20153  0.19111  1.0000
  H   H64       1.0  0.35740  0.29893  0.13209  1.0000
  S   S13       1.0  0.39678  0.07259  0.17492  1.0000
  S   S14       1.0  0.34160  0.08794  0.20962  1.0000
  C   C36       1.0  0.32063  0.25610  0.16436  1.0000
  C   C37       1.0  0.17296  0.25813  0.11453  1.0000
  C   C38       1.0  0.29783  0.09021  0.15675  1.0000
  S   S15       1.0  0.18188  0.27424  0.18279  1.0000
  C   C39       1.0  0.36648  0.24509  0.20919  1.0000
  H   H65       1.0  0.16478  0.24050  0.22772  1.0000
  H   H66       1.0  0.38137  0.26450  0.14501  1.0000
  H   H67       1.0  0.31689  0.06868  0.18791  1.0000
  H   H68       1.0  0.45217  0.04108  0.12159  1.0000
  H   H69       1.0  0.31354  0.17813  0.22604  1.0000
  C   C40       1.0  0.15743  0.31847  0.10566  1.0000
  H   H70       1.0  0.14083  0.20273  0.13702  1.0000
  H   H71       1.0  0.13760  0.25903  0.10498  1.0000
  C   C41       1.0  0.36378  0.26657  0.15036  1.0000
  C   C42       1.0  0.45543  0.08096  0.11403  1.0000
  H   H72       1.0  0.47827  0.08329  0.08339  1.0000
  C   C43       1.0  0.13279  0.23331  0.14565  1.0000
  H   H73       1.0  0.26140  0.19661  0.21319  1.0000
  C   C44       1.0  0.33339  0.09585  0.15300  1.0000
  H   H74       1.0  0.28750  0.25542  0.20293  1.0000
  S   S16       1.0  0.44297  0.01423  0.08676  1.0000
  Fe  Fe10      1.0  0.36049  0.14006  0.20260  1.0000
  H   H75       1.0  0.35871  0.26218  0.13795  1.0000
  C   C45       1.0  0.33454  0.25468  0.18019  1.0000
  C   C46       1.0  0.10463  0.26833  0.11814  1.0000
  H   H76       1.0  0.26590  0.08623  0.15894  1.0000
  H   H77       1.0  0.48125  0.00889  0.12324  1.0000
  H   H78       1.0  0.38076  0.03321  0.99438  1.0000
  C   C47       1.0  0.48084  0.02176  0.13107  1.0000
  C   C48       1.0  0.33093  0.11587  0.13519  1.0000
  Fe  Fe11      1.0  0.37226  0.09719  0.19049  1.0000
  H   H79       1.0  0.32799  0.26910  0.18705  1.0000
  S   S17       1.0  0.37892  0.10853  0.21639  1.0000
  H   H80       1.0  0.26236  0.21951  0.22112  1.0000
  S   S18       1.0  0.35676  0.12953  0.17487  1.0000
  H   H81       1.0  0.29292  0.09769  0.17070  1.0000
  H   H82       1.0  0.10464  0.26597  0.15837  1.0000
  H   H83       1.0  0.34359  0.12466  0.13352  1.0000
  C   C49       1.0  0.16063  0.16441  0.23468  1.0000
  S   S19       1.0  0.36580  0.17264  0.19973  1.0000
  C   C50       1.0  0.35471  0.29052  0.14895  1.0000
  H   H84       1.0  0.10201  0.27497  0.10176  1.0000
  H   H85       1.0  0.13871  0.22562  0.16050  1.0000
  H   H86       1.0  0.22992  0.19403  0.23546  1.0000
  H   H87       1.0  0.45240  0.09964  0.08259  1.0000
  H   H88       1.0  0.20213  0.20036  0.21771  1.0000
  C   C51       1.0  0.46883  0.04280  0.11951  1.0000
  H   H89       1.0  0.44414  0.05538  0.15295  1.0000
  H   H90       1.0  0.13088  0.28344  0.11313  1.0000
  S   S20       1.0  0.46856  0.99925  0.04234  1.0000
  H   H91       1.0  0.35024  0.24251  0.21685  1.0000
  H   H92       1.0  0.13919  0.22435  0.11481  1.0000
  C   C52       1.0  0.14445  0.21880  0.13008  1.0000
  H   H93       1.0  0.36294  0.29743  0.15708  1.0000
  H   H94       1.0  0.16189  0.21688  0.12753  1.0000
  C   C53       1.0  0.25412  0.26752  0.21186  1.0000
  C   C54       1.0  0.29920  0.18672  0.21942  1.0000
  C   C55       1.0  0.27979  0.26461  0.23282  1.0000
  C   C56       1.0  0.12756  0.26110  0.17708  1.0000
  H   H95       1.0  0.25583  0.16230  0.23296  1.0000
  H   H96       1.0  0.38462  0.25984  0.18004  1.0000
  H   H97       1.0  0.11695  0.27183  0.18731  1.0000
  H   H98       1.0  0.30974  0.24477  0.17129  1.0000
  C   C57       1.0  0.15853  0.18257  0.21846  1.0000
  C   C58       1.0  0.40256  0.00260  0.00239  1.0000
  Fe  Fe12      1.0  0.43686  0.99817  0.06420  1.0000
  C   C59       1.0  0.23785  0.27655  0.22670  1.0000
  H   H99       1.0  0.34552  0.21781  0.16140  1.0000
  C   C60       1.0  0.14339  0.27018  0.23128  1.0000
  S   S21       1.0  0.21195  0.28494  0.22192  1.0000
  C   C61       1.0  0.27501  0.26184  0.21479  1.0000
  H   H100      1.0  0.09384  0.27947  0.12783  1.0000
  H   H101      1.0  0.47000  0.04680  0.15864  1.0000
  H   H102      1.0  0.17313  0.24502  0.10730  1.0000
  H   H103      1.0  0.15968  0.31112  0.15718  1.0000
  H   H104      1.0  0.45585  0.07190  0.08465  1.0000
  H   H105      1.0  0.40209  0.03445  0.00504  1.0000
  C   C62       1.0  0.26119  0.20252  0.22730  1.0000
  H   H106      1.0  0.47264  0.01719  0.14775  1.0000
  H   H107      1.0  0.33738  0.29394  0.15538  1.0000
  H   H108      1.0  0.28309  0.14890  0.22672  1.0000
  S   S22       1.0  0.30646  0.25829  0.23499  1.0000
  H   H109      1.0  0.09536  0.32179  0.99023  1.0000
  H   H110      1.0  0.15571  0.27997  0.22670  1.0000
  C   C63       1.0  0.39035  0.02466  0.00647  1.0000
  H   H111      1.0  0.35858  0.00653  0.01003  1.0000
  H   H112      1.0  0.37119  0.25316  0.21925  1.0000
  H   H113      1.0  0.03995  0.32167  0.04250  1.0000
  C   C64       1.0  0.36828  0.99501  0.00023  1.0000
  H   H114      1.0  0.47591  0.04364  0.10244  1.0000
  H   H115      1.0  0.16759  0.31659  0.09052  1.0000
  N   N5        1.0  0.28003  0.19036  0.23694  1.0000
  Fe  Fe13      1.0  0.31296  0.25381  0.26722  1.0000
  S   S23       1.0  0.34673  0.25165  0.26848  1.0000
  Fe  Fe14      1.0  0.30001  0.23972  0.31496  1.0000
  S   S24       1.0  0.33290  0.23591  0.32009  1.0000
  S   S25       1.0  0.27423  0.22930  0.34200  1.0000
  Fe  Fe15      1.0  0.33295  0.26696  0.29643  1.0000
  Fe  Fe16      1.0  0.34335  0.22105  0.29170  1.0000
  S   S26       1.0  0.36563  0.19008  0.28792  1.0000
  S   S27       1.0  0.31048  0.22236  0.28874  1.0000
  H   H116      1.0  0.26530  0.16973  0.26516  1.0000
  H   H117      1.0  0.27038  0.31136  0.31383  1.0000
  H   H118      1.0  0.99988  0.11293  0.38551  1.0000
  H   H119      1.0  0.26242  0.19546  0.28031  1.0000
  H   H120      1.0  0.42132  0.26526  0.34701  1.0000
  H   H121      1.0  0.20482  0.23409  0.26735  1.0000
  C   C65       1.0  0.09724  0.08035  0.34328  1.0000
  S   S28       1.0  0.34300  0.08512  0.26844  1.0000
  Fe  Fe17      1.0  0.06327  0.00795  0.41884  1.0000
  H   H122      1.0  0.06695  0.99266  0.48471  1.0000
  Fe  Fe18      1.0  0.22537  0.12096  0.32025  1.0000
  S   S29       1.0  0.19511  0.11191  0.32038  1.0000
  S   S30       1.0  0.25273  0.09525  0.32912  1.0000
  Fe  Fe19      1.0  0.20689  0.16776  0.31254  1.0000
  S   S31       1.0  0.17493  0.16280  0.31247  1.0000
  S   S32       1.0  0.21120  0.20159  0.30349  1.0000
  Fe  Fe20      1.0  0.17955  0.13599  0.34024  1.0000
  S   S33       1.0  0.15073  0.13227  0.36652  1.0000
  Fe  Fe21      1.0  0.19286  0.13931  0.29259  1.0000
  S   S34       1.0  0.17861  0.13724  0.26641  1.0000
  S   S35       1.0  0.20997  0.14324  0.34237  1.0000
  S   S36       1.0  0.22476  0.14611  0.29039  1.0000
  Fe  Fe22      1.0  0.05091  0.05296  0.39507  1.0000
  S   S37       1.0  0.03400  0.03315  0.42367  1.0000
  Fe  Fe23      1.0  0.09288  0.03914  0.40872  1.0000
  S   S38       1.0  0.07999  0.01757  0.43867  1.0000
  S   S39       1.0  0.12760  0.04107  0.40023  1.0000
  H   H123      1.0  0.14785  0.06286  0.42715  1.0000
  H   H124      1.0  0.42487  0.27563  0.36794  1.0000
  Fe  Fe24      1.0  0.05173  0.04409  0.44145  1.0000
  S   S40       1.0  0.03556  0.05083  0.47335  1.0000
  S   S41       1.0  0.07890  0.02681  0.38837  1.0000
  S   S42       1.0  0.06585  0.06667  0.41336  1.0000
  H   H125      1.0  0.04400  0.01316  0.36263  1.0000
  H   H126      1.0  0.01821  0.09129  0.33255  1.0000
  C   C66       1.0  0.01581  0.06811  0.36187  1.0000
  C   C67       1.0  0.41138  0.28826  0.30469  1.0000
  S   S43       1.0  0.03615  0.07523  0.36897  1.0000
  C   C68       1.0  0.29104  0.17491  0.31757  1.0000
  C   C69       1.0  0.43125  0.29378  0.30818  1.0000
  H   H127      1.0  0.13033  0.02777  0.44613  1.0000
  H   H128      1.0  0.09195  0.09278  0.35274  1.0000
  C   C70       1.0  0.05085  0.06301  0.48226  1.0000
  H   H129      1.0  0.43885  0.30277  0.29274  1.0000
  C   C71       1.0  0.05258  0.08409  0.47308  1.0000
  C   C72       1.0  0.28525  0.20284  0.24998  1.0000
  H   H130      1.0  0.28918  0.32350  0.37680  1.0000
  H   H131      1.0  0.04522  0.09259  0.45982  1.0000
  H   H132      1.0  0.35341  0.26402  0.33579  1.0000
  C   C73       1.0  0.14478  0.10678  0.37593  1.0000
  C   C74       1.0  0.16053  0.08847  0.37438  1.0000
  C   C75       1.0  0.15516  0.06833  0.38205  1.0000
  C   C76       1.0  0.13397  0.06646  0.39084  1.0000
  C   C77       1.0  0.11831  0.08481  0.39234  1.0000
  C   C78       1.0  0.12373  0.10486  0.38514  1.0000
  H   H133      1.0  0.17687  0.08982  0.36748  1.0000
  H   H134      1.0  0.16742  0.05422  0.38094  1.0000
  H   H135      1.0  0.10205  0.08366  0.39927  1.0000
  H   H136      1.0  0.11153  0.11898  0.38651  1.0000
  C   C79       1.0  0.27875  0.31662  0.34177  1.0000
  C   C80       1.0  0.29940  0.28115  0.35235  1.0000
  C   C81       1.0  0.31710  0.08706  0.28378  1.0000
  C   C82       1.0  0.31428  0.07515  0.30450  1.0000
  C   C83       1.0  0.29428  0.07747  0.31796  1.0000
  C   C84       1.0  0.27694  0.09181  0.31088  1.0000
  C   C85       1.0  0.27950  0.10342  0.28997  1.0000
  C   C86       1.0  0.29962  0.10095  0.27633  1.0000
  H   H137      1.0  0.32770  0.06434  0.31028  1.0000
  H   H138      1.0  0.29234  0.06839  0.33407  1.0000
  H   H139      1.0  0.26604  0.11426  0.28442  1.0000
  H   H140      1.0  0.30167  0.10999  0.26024  1.0000
  H   H141      1.0  0.01622  0.99636  0.45032  1.0000
  H   H142      1.0  0.48207  0.29941  0.32515  1.0000
  C   C87       1.0  0.11133  0.02273  0.47779  1.0000
  H   H143      1.0  0.99500  0.01391  0.46433  1.0000
  H   H144      1.0  0.27403  0.21765  0.27686  1.0000
  H   H145      1.0  0.00527  0.01158  0.33295  1.0000
  H   H146      1.0  0.38843  0.15537  0.26740  1.0000
  H   H147      1.0  0.15419  0.05242  0.34340  1.0000
  H   H148      1.0  0.25409  0.22074  0.26287  1.0000
  H   H149      1.0  0.30333  0.27808  0.33614  1.0000
  C   C88       1.0  0.25546  0.22219  0.33246  1.0000
  C   C89       1.0  0.24765  0.20363  0.34268  1.0000
  C   C90       1.0  0.23404  0.19702  0.33394  1.0000
  C   C91       1.0  0.22753  0.20949  0.31551  1.0000
  C   C92       1.0  0.23449  0.22859  0.30600  1.0000
  C   C93       1.0  0.24888  0.23463  0.31410  1.0000
  H   H150      1.0  0.25272  0.19398  0.35690  1.0000
  H   H151      1.0  0.22856  0.18237  0.34147  1.0000
  H   H152      1.0  0.22944  0.23838  0.29183  1.0000
  H   H153      1.0  0.25485  0.24897  0.30613  1.0000
  C   C94       1.0  0.25076  0.26985  0.36959  1.0000
  N   N6        1.0  0.32181  0.14296  0.31074  1.0000
  C   C95       1.0  0.34075  0.13703  0.29369  1.0000
  C   C96       1.0  0.33048  0.14327  0.32927  1.0000
  C   C97       1.0  0.31024  0.16494  0.30231  1.0000
  C   C98       1.0  0.30783  0.12695  0.31581  1.0000
  C   C99       1.0  0.33626  0.13984  0.27159  1.0000
  C   C100      1.0  0.34318  0.12183  0.33929  1.0000
  C   C101      1.0  0.29113  0.12552  0.33684  1.0000
  H   H154      1.0  0.35306  0.14638  0.29168  1.0000
  H   H155      1.0  0.34867  0.12010  0.29813  1.0000
  H   H156      1.0  0.31797  0.14889  0.34217  1.0000
  H   H157      1.0  0.34105  0.15505  0.32447  1.0000
  H   H158      1.0  0.32152  0.17604  0.29648  1.0000
  H   H159      1.0  0.30382  0.16512  0.28854  1.0000
  H   H160      1.0  0.29910  0.12980  0.30295  1.0000
  H   H161      1.0  0.31771  0.11071  0.31605  1.0000
  H   H162      1.0  0.32293  0.13254  0.27215  1.0000
  H   H163      1.0  0.33325  0.15682  0.26350  1.0000
  H   H164      1.0  0.35054  0.13182  0.26163  1.0000
  H   H165      1.0  0.33403  0.10901  0.34388  1.0000
  H   H166      1.0  0.35854  0.11711  0.32862  1.0000
  H   H167      1.0  0.34703  0.12344  0.35386  1.0000
  H   H168      1.0  0.27502  0.12834  0.33350  1.0000
  H   H169      1.0  0.29042  0.13671  0.34660  1.0000
  H   H170      1.0  0.29392  0.10921  0.34671  1.0000
  N   N7        1.0  0.12653  0.09916  0.31767  1.0000
  H   H171      1.0  0.11169  0.11805  0.34135  1.0000
  C   C102      1.0  0.10806  0.08880  0.32027  1.0000
  C   C103      1.0  0.13854  0.10169  0.29509  1.0000
  C   C104      1.0  0.14161  0.08587  0.33162  1.0000
  C   C105      1.0  0.35529  0.30191  0.36054  1.0000
  H   H172      1.0  0.22992  0.28581  0.25667  1.0000
  C   C106      1.0  0.12587  0.11602  0.27848  1.0000
  C   C107      1.0  0.15172  0.06318  0.32807  1.0000
  H   H173      1.0  0.10403  0.12932  0.31678  1.0000
  H   H174      1.0  0.00930  0.04397  0.38993  1.0000
  H   H175      1.0  0.11272  0.07548  0.31189  1.0000
  H   H176      1.0  0.09539  0.10015  0.31262  1.0000
  H   H177      1.0  0.15317  0.10779  0.29308  1.0000
  H   H178      1.0  0.29174  0.32329  0.34353  1.0000
  H   H179      1.0  0.06438  0.11078  0.47459  1.0000
  C   C108      1.0  0.23888  0.20201  0.24170  1.0000
  H   H180      1.0  0.14443  0.08602  0.29054  1.0000
  C   C109      1.0  0.13039  0.03070  0.46172  1.0000
  H   H181      1.0  0.26806  0.27865  0.33784  1.0000
  C   C110      1.0  0.17733  0.15948  0.24532  1.0000
  H   H182      1.0  0.16983  0.27226  0.25606  1.0000
  C   C111      1.0  0.37857  0.16656  0.25717  1.0000
  C   C112      1.0  0.35563  0.28184  0.35744  1.0000
  C   C113      1.0  0.26127  0.28624  0.35173  1.0000
  H   H183      1.0  0.15516  0.09357  0.32961  1.0000
  H   H184      1.0  0.14167  0.05624  0.32210  1.0000
  C   C114      1.0  0.03460  0.00868  0.35361  1.0000
  H   H185      1.0  0.39530  0.30237  0.33848  1.0000
  S   S44       1.0  0.34445  0.29547  0.29818  1.0000
  C   C115      1.0  0.34936  0.29746  0.32202  1.0000
  C   C116      1.0  0.30305  0.25911  0.36715  1.0000
  H   H186      1.0  0.00775  0.00559  0.37966  1.0000
  H   H187      1.0  0.31196  0.28938  0.35216  1.0000
  H   H188      1.0  0.15108  0.25526  0.30430  1.0000
  C   C117      1.0  0.15474  0.20375  0.27014  1.0000
  C   C118      1.0  0.27146  0.29880  0.37875  1.0000
  H   H189      1.0  0.24783  0.29916  0.34720  1.0000
  H   H190      1.0  0.99699  0.07431  0.41035  1.0000
  H   H191      1.0  0.14793  0.12782  0.32531  1.0000
  H   H192      1.0  0.02618  0.02381  0.34509  1.0000
  C   C119      1.0  0.27707  0.16876  0.25022  1.0000
  C   C120      1.0  0.35300  0.27956  0.33811  1.0000
  S   S45       1.0  0.40618  0.31787  0.39658  1.0000
  H   H193      1.0  0.09613  0.03027  0.47263  1.0000
  H   H194      1.0  0.28902  0.21817  0.24023  1.0000
  C   C121      1.0  0.15211  0.24665  0.24047  1.0000
  H   H195      1.0  0.17558  0.03651  0.45902  1.0000
  H   H196      1.0  0.00097  0.06498  0.44646  1.0000
  H   H197      1.0  0.29973  0.19410  0.25630  1.0000
  H   H198      1.0  0.23991  0.27738  0.38238  1.0000
  C   C122      1.0  0.35353  0.19957  0.24988  1.0000
  H   H199      1.0  0.13669  0.11742  0.26268  1.0000
  H   H200      1.0  0.17062  0.02910  0.43689  1.0000
  C   C123      1.0  0.00977  0.07927  0.34287  1.0000
  H   H201      1.0  0.12414  0.09581  0.43251  1.0000
  C   C124      1.0  0.34923  0.31750  0.32505  1.0000
  H   H202      1.0  0.47042  0.30291  0.30289  1.0000
  N   N8        1.0  0.27779  0.29519  0.35648  1.0000
  H   H203      1.0  0.29838  0.24723  0.36134  1.0000
  C   C125      1.0  0.11056  0.09118  0.44504  1.0000
  H   H204      1.0  0.18462  0.04983  0.43254  1.0000
  C   C126      1.0  0.13369  0.13528  0.31850  1.0000
  H   H205      1.0  0.26242  0.25637  0.37624  1.0000
  H   H206      1.0  0.10913  0.09783  0.45895  1.0000
  H   H207      1.0  0.15400  0.07417  0.44532  1.0000
  H   H208      1.0  0.30323  0.29652  0.38488  1.0000
  H   H209      1.0  0.29203  0.15973  0.25547  1.0000
  H   H210      1.0  0.26708  0.27479  0.26230  1.0000
  H   H211      1.0  0.35815  0.26797  0.36996  1.0000
  H   H212      1.0  0.32020  0.25395  0.36760  1.0000
  H   H213      1.0  0.13868  0.14107  0.30124  1.0000
  H   H214      1.0  0.12788  0.24265  0.27792  1.0000
  C   C127      1.0  0.28264  0.31716  0.31794  1.0000
  H   H215      1.0  0.13895  0.23827  0.24287  1.0000
  C   C128      1.0  0.17140  0.04254  0.44332  1.0000
  C   C129      1.0  0.13011  0.05887  0.48027  1.0000
  H   H216      1.0  0.15753  0.22738  0.30401  1.0000
  C   C130      1.0  0.44808  0.30012  0.33394  1.0000
  C   C131      1.0  0.14597  0.24235  0.30053  1.0000
  C   C132      1.0  0.17023  0.21894  0.26519  1.0000
  H   H217      1.0  0.11963  0.13234  0.28120  1.0000
  H   H218      1.0  0.20238  0.26117  0.26737  1.0000
  H   H219      1.0  0.28140  0.30840  0.40264  1.0000
  H   H220      1.0  0.14477  0.01974  0.46639  1.0000
  H   H221      1.0  0.12941  0.27718  0.24222  1.0000
  C   C133      1.0  0.26773  0.20917  0.26849  1.0000
  C   C134      1.0  0.36610  0.18516  0.26329  1.0000
  C   C135      1.0  0.11183  0.06693  0.45107  1.0000
  H   H222      1.0  0.00069  0.11820  0.48451  1.0000
  H   H223      1.0  0.40530  0.27581  0.31785  1.0000
  C   C136      1.0  0.00080  0.99749  0.46174  1.0000
  H   H224      1.0  0.14822  0.20454  0.25630  1.0000
  C   C137      1.0  0.19314  0.24854  0.27068  1.0000
  C   C138      1.0  0.99474  0.00219  0.34555  1.0000
  H   H225      1.0  0.14905  0.15437  0.23925  1.0000
  H   H226      1.0  0.23852  0.19427  0.25847  1.0000
  H   H227      1.0  0.39820  0.30206  0.30248  1.0000
  H   H228      1.0  0.12592  0.14946  0.32538  1.0000
  C   C139      1.0  0.15060  0.05933  0.44350  1.0000
  H   H229      1.0  0.40657  0.31089  0.35485  1.0000
  H   H230      1.0  0.16357  0.18725  0.27418  1.0000
  H   H231      1.0  0.13095  0.23955  0.31180  1.0000
  H   H232      1.0  0.26658  0.14008  0.25125  1.0000
  H   H233      1.0  0.09701  0.06438  0.46275  1.0000
  H   H234      1.0  0.13663  0.26614  0.27453  1.0000
  C   C140      1.0  0.00474  0.05263  0.37520  1.0000
  C   C141      1.0  0.17718  0.25529  0.25600  1.0000
  C   C142      1.0  0.41025  0.30002  0.34378  1.0000
  H   H235      1.0  0.18572  0.24602  0.28763  1.0000
  N   N9        1.0  0.13111  0.05364  0.45947  1.0000
  H   H236      1.0  0.29529  0.17714  0.33162  1.0000
  H   H237      1.0  0.28439  0.19099  0.30923  1.0000
  N   N10       1.0  0.16042  0.24225  0.26046  1.0000
  H   H238      1.0  0.10773  0.06650  0.35130  1.0000
  C   C143      1.0  0.14211  0.24860  0.27776  1.0000
  H   H239      1.0  0.16732  0.06298  0.31685  1.0000
  H   H240      1.0  0.27794  0.16615  0.32215  1.0000
  S   S46       1.0  0.29905  0.27181  0.29318  1.0000
  H   H241      1.0  0.26878  0.28412  0.39063  1.0000
  H   H242      1.0  0.17833  0.21447  0.27865  1.0000
  H   H243      1.0  0.14174  0.20636  0.28393  1.0000
  H   H244      1.0  0.11069  0.06208  0.43682  1.0000
  C   C144      1.0  0.11788  0.12033  0.32398  1.0000
  C   C145      1.0  0.27027  0.15452  0.23943  1.0000
  H   H245      1.0  0.24088  0.26308  0.36307  1.0000
  H   H246      1.0  0.45288  0.28265  0.33940  1.0000
  H   H247      1.0  0.09601  0.09891  0.43860  1.0000
  H   H248      1.0  0.99280  0.09750  0.42034  1.0000
  H   H249      1.0  0.20541  0.16857  0.24727  1.0000
  H   H250      1.0  0.37035  0.29443  0.47498  1.0000
  H   H251      1.0  0.13400  0.08487  0.34852  1.0000
  H   H252      1.0  0.18321  0.21492  0.25173  1.0000
  H   H253      1.0  0.34406  0.21408  0.25421  1.0000
  C   C146      1.0  0.41433  0.27715  0.35700  1.0000
  H   H254      1.0  0.44260  0.27834  0.31106  1.0000
  H   H255      1.0  0.39908  0.27332  0.36700  1.0000
  H   H256      1.0  0.41576  0.28173  0.29019  1.0000
  S   S47       1.0  0.35901  0.30404  0.38483  1.0000
  H   H257      1.0  0.29493  0.25882  0.38377  1.0000
  H   H258      1.0  0.03374  0.00463  0.47135  1.0000
  H   H259      1.0  0.11268  0.10910  0.27775  1.0000
  H   H260      1.0  0.22977  0.21850  0.24132  1.0000
  H   H261      1.0  0.18709  0.25495  0.23987  1.0000
  H   H262      1.0  0.08287  0.07482  0.34324  1.0000
  H   H263      1.0  0.44546  0.30687  0.34814  1.0000
  C   C147      1.0  0.99282  0.07504  0.33710  1.0000
  N   N11       1.0  0.42798  0.30566  0.32546  1.0000
  C   C148      1.0  0.28741  0.30730  0.38581  1.0000
  H   H264      1.0  0.25587  0.31007  0.38090  1.0000
  C   C149      1.0  0.24247  0.27895  0.24507  1.0000
  C   C150      1.0  0.26346  0.27272  0.24827  1.0000
  H   H265      1.0  0.29862  0.30818  0.31212  1.0000
  H   H266      1.0  0.04607  0.99976  0.34221  1.0000
  C   C151      1.0  0.46777  0.30727  0.31833  1.0000
  C   C152      1.0  0.06336  0.09436  0.48144  1.0000
  H   H267      1.0  0.11334  0.00541  0.47909  1.0000
  H   H268      1.0  0.13165  0.07560  0.47790  1.0000
  C   C153      1.0  0.19235  0.17249  0.23922  1.0000
  C   C154      1.0  0.35217  0.31975  0.34428  1.0000
  C   C155      1.0  0.01905  0.99529  0.36930  1.0000
  H   H269      1.0  0.34734  0.32272  0.46365  1.0000
  H   H270      1.0  0.16155  0.05216  0.48811  1.0000
  C   C156      1.0  0.27230  0.11070  0.69738  1.0000
  H   H271      1.0  0.29286  0.11254  0.61570  1.0000
  H   H272      1.0  0.30641  0.30524  0.53481  1.0000
  H   H273      1.0  0.26229  0.16069  0.66897  1.0000
  S   S48       1.0  0.10392  0.01220  0.58875  1.0000
  H   H274      1.0  0.02630  0.13608  0.53164  1.0000
  H   H275      1.0  0.24312  0.11743  0.68615  1.0000
  C   C157      1.0  0.31767  0.29575  0.52371  1.0000
  H   H276      1.0  0.40262  0.14928  0.69974  1.0000
  H   H277      1.0  0.24336  0.18941  0.69790  1.0000
  H   H278      1.0  0.03398  0.04265  0.59636  1.0000
  Fe  Fe25      1.0  0.09051  0.04744  0.58081  1.0000
  C   C158      1.0  0.20004  0.14209  0.56164  1.0000
  S   S49       1.0  0.19001  0.27645  0.69739  1.0000
  C   C159      1.0  0.01748  0.04476  0.59588  1.0000
  H   H279      1.0  0.39068  0.17672  0.69463  1.0000
  H   H280      1.0  0.02693  0.04366  0.54796  1.0000
  H   H281      1.0  0.14035  0.04548  0.51009  1.0000
  Fe  Fe26      1.0  0.28388  0.25723  0.60445  1.0000
  S   S50       1.0  0.28982  0.24118  0.63677  1.0000
  S   S51       1.0  0.25588  0.25641  0.59202  1.0000
  Fe  Fe27      1.0  0.32283  0.27743  0.59182  1.0000
  S   S52       1.0  0.33231  0.26328  0.62304  1.0000
  C   C160      1.0  0.26370  0.23527  0.72860  1.0000
  Fe  Fe28      1.0  0.32389  0.23382  0.62029  1.0000
  S   S53       1.0  0.34273  0.20145  0.63112  1.0000
  Fe  Fe29      1.0  0.29761  0.27189  0.63687  1.0000
  S   S54       1.0  0.28587  0.28562  0.66579  1.0000
  S   S55       1.0  0.31744  0.24709  0.58758  1.0000
  S   S56       1.0  0.28867  0.28880  0.60593  1.0000
  Fe  Fe30      1.0  0.15962  0.17262  0.67621  1.0000
  S   S57       1.0  0.16611  0.16285  0.64531  1.0000
  S   S58       1.0  0.13183  0.19749  0.68639  1.0000
  Fe  Fe31      1.0  0.19642  0.14073  0.69103  1.0000
  S   S59       1.0  0.20662  0.12763  0.66169  1.0000
  S   S60       1.0  0.20968  0.13098  0.72043  1.0000
  Fe  Fe32      1.0  0.20021  0.16173  0.64480  1.0000
  S   S61       1.0  0.22141  0.17166  0.61344  1.0000
  Fe  Fe33      1.0  0.17184  0.12950  0.66422  1.0000
  S   S62       1.0  0.16231  0.10152  0.65862  1.0000
  S   S63       1.0  0.19316  0.17483  0.67391  1.0000
  S   S64       1.0  0.16225  0.13940  0.69535  1.0000
  Fe  Fe34      1.0  0.04951  0.08003  0.58616  1.0000
  H   H282      1.0  0.00776  0.11678  0.62486  1.0000
  S   S65       1.0  0.01391  0.08600  0.59775  1.0000
  Fe  Fe35      1.0  0.09159  0.09148  0.58472  1.0000
  H   H283      1.0  0.28081  0.21772  0.69021  1.0000
  S   S66       1.0  0.10303  0.11647  0.59365  1.0000
  Fe  Fe36      1.0  0.08249  0.08476  0.54486  1.0000
  S   S67       1.0  0.08520  0.09675  0.50972  1.0000
  S   S68       1.0  0.06545  0.10665  0.56673  1.0000
  C   C161      1.0  0.18390  0.25800  0.65021  1.0000
  H   H284      1.0  0.11748  0.26953  0.66750  1.0000
  H   H285      1.0  0.16631  0.21433  0.63078  1.0000
  C   C162      1.0  0.14445  0.10555  0.64190  1.0000
  C   C163      1.0  0.13372  0.12590  0.63402  1.0000
  C   C164      1.0  0.12074  0.12885  0.61958  1.0000
  C   C165      1.0  0.11815  0.11150  0.61309  1.0000
  C   C166      1.0  0.12847  0.09106  0.62133  1.0000
  C   C167      1.0  0.14161  0.08812  0.63570  1.0000
  H   H286      1.0  0.13548  0.13937  0.63898  1.0000
  H   H287      1.0  0.11264  0.14467  0.61338  1.0000
  H   H288      1.0  0.12659  0.07760  0.61639  1.0000
  H   H289      1.0  0.14980  0.07231  0.64183  1.0000
  C   C168      1.0  0.24686  0.23248  0.59883  1.0000
  C   C169      1.0  0.24003  0.22271  0.61995  1.0000
  C   C170      1.0  0.23129  0.20443  0.62476  1.0000
  C   C171      1.0  0.23018  0.19556  0.60842  1.0000
  C   C172      1.0  0.23740  0.20518  0.58743  1.0000
  C   C173      1.0  0.24530  0.22379  0.58265  1.0000
  H   H290      1.0  0.24121  0.22947  0.63245  1.0000
  H   H291      1.0  0.22599  0.19691  0.64102  1.0000
  H   H292      1.0  0.23667  0.19837  0.57476  1.0000
  H   H293      1.0  0.25039  0.23140  0.56632  1.0000
  H   H294      1.0  0.33220  0.28822  0.53003  1.0000
  H   H295      1.0  0.21168  0.20555  0.72602  1.0000
  C   C174      1.0  0.23721  0.12215  0.71783  1.0000
  H   H296      1.0  0.02092  0.01360  0.59061  1.0000
  C   C175      1.0  0.12542  0.26219  0.68099  1.0000
  H   H297      1.0  0.00982  0.08245  0.50209  1.0000
  C   C176      1.0  0.33731  0.19099  0.70209  1.0000
  C   C177      1.0  0.33114  0.21135  0.69031  1.0000
  C   C178      1.0  0.33286  0.21458  0.66849  1.0000
  C   C179      1.0  0.34144  0.19761  0.65825  1.0000
  C   C180      1.0  0.34822  0.17735  0.66995  1.0000
  C   C181      1.0  0.34581  0.17397  0.69191  1.0000
  H   H298      1.0  0.32448  0.22454  0.69812  1.0000
  H   H299      1.0  0.32745  0.23025  0.65968  1.0000
  H   H300      1.0  0.35488  0.16419  0.66210  1.0000
  H   H301      1.0  0.35068  0.15823  0.70084  1.0000
  C   C182      1.0  0.21418  0.15785  0.55983  1.0000
  H   H302      1.0  0.27677  0.18668  0.67870  1.0000
  C   C183      1.0  0.11489  0.20338  0.72660  1.0000
  C   C184      1.0  0.13293  0.20279  0.71029  1.0000
  H   H303      1.0  0.02369  0.11458  0.50835  1.0000
  H   H304      1.0  0.00411  0.02026  0.49313  1.0000
  H   H305      1.0  0.19881  0.11129  0.62659  1.0000
  H   H306      1.0  0.10056  0.20003  0.72460  1.0000
  H   H307      1.0  0.20762  0.20614  0.70063  1.0000
  H   H308      1.0  0.16307  0.17809  0.59692  1.0000
  C   C185      1.0  0.21629  0.28029  0.68867  1.0000
  C   C186      1.0  0.22663  0.27944  0.66782  1.0000
  C   C187      1.0  0.24794  0.28123  0.66083  1.0000
  C   C188      1.0  0.25891  0.28444  0.67448  1.0000
  C   C189      1.0  0.00379  0.06422  0.59759  1.0000
  N   N12       1.0  0.25446  0.20725  0.71419  1.0000
  H   H309      1.0  0.21832  0.27731  0.65698  1.0000
  H   H310      1.0  0.25577  0.28032  0.64475  1.0000
  C   C190      1.0  0.01463  0.05533  0.54013  1.0000
  H   H311      1.0  0.22964  0.14971  0.56422  1.0000
  C   C191      1.0  0.00998  0.02811  0.59311  1.0000
  S   S69       1.0  0.06432  0.05939  0.56276  1.0000
  S   S70       1.0  0.07417  0.06625  0.60605  1.0000
  S   S71       1.0  0.42521  0.31992  0.56969  1.0000
  H   H312      1.0  0.16857  0.12803  0.55232  1.0000
  H   H313      1.0  0.11805  0.27226  0.69282  1.0000
  H   H314      1.0  0.23260  0.23329  0.72706  1.0000
  H   H315      1.0  0.18662  0.22869  0.62714  1.0000
  H   H316      1.0  0.08599  0.00493  0.52497  1.0000
  H   H317      1.0  0.28830  0.20113  0.71367  1.0000
  C   C192      1.0  0.24632  0.12070  0.73485  1.0000
  H   H318      1.0  0.33126  0.28986  0.65244  1.0000
  C   C193      1.0  0.21094  0.11671  0.59217  1.0000
  H   H319      1.0  0.18740  0.10165  0.57806  1.0000
  H   H320      1.0  0.35450  0.28236  0.66312  1.0000
  C   C194      1.0  0.37521  0.29145  0.58049  1.0000
  C   C195      1.0  0.39459  0.29577  0.58121  1.0000
  H   H321      1.0  0.16271  0.22387  0.66419  1.0000
  C   C196      1.0  0.10261  0.99792  0.57068  1.0000
  H   H322      1.0  0.36967  0.27773  0.59103  1.0000
  H   H323      1.0  0.40384  0.28546  0.59245  1.0000
  H   H324      1.0  0.16210  0.27460  0.62067  1.0000
  H   H325      1.0  0.11027  0.02499  0.49384  1.0000
  H   H326      1.0  0.20926  0.13044  0.55172  1.0000
  H   H327      1.0  0.26748  0.13807  0.65708  1.0000
  C   C197      1.0  0.35904  0.31076  0.50178  1.0000
  H   H328      1.0  0.25691  0.28844  0.70577  1.0000
  H   H329      1.0  0.12178  0.24612  0.68783  1.0000
  H   H330      1.0  0.32147  0.12982  0.66042  1.0000
  Fe  Fe37      1.0  0.31521  0.11653  0.73757  1.0000
  H   H331      1.0  0.24891  0.24124  0.70204  1.0000
  H   H332      1.0  0.14702  0.15983  0.59791  1.0000
  C   C198      1.0  0.15170  0.27527  0.63655  1.0000
  C   C199      1.0  0.24846  0.28596  0.69517  1.0000
  C   C200      1.0  0.19674  0.23915  0.66362  1.0000
  H   H333      1.0  0.19219  0.25877  0.63338  1.0000
  H   H334      1.0  0.18574  0.27255  0.65406  1.0000
  H   H335      1.0  0.19010  0.23810  0.68066  1.0000
  H   H336      1.0  0.19784  0.22387  0.65947  1.0000
  H   H337      1.0  0.21321  0.24159  0.66075  1.0000
  H   H338      1.0  0.20615  0.16999  0.56941  1.0000
  C   C201      1.0  0.40185  0.31361  0.56763  1.0000
  C   C202      1.0  0.28139  0.11027  0.71416  1.0000
  H   H339      1.0  0.18704  0.15124  0.55342  1.0000
  H   H340      1.0  0.37293  0.15443  0.72857  1.0000
  H   H341      1.0  0.13614  0.27321  0.63504  1.0000
  C   C203      1.0  0.16918  0.23021  0.63010  1.0000
  C   C204      1.0  0.07147  0.06220  0.50749  1.0000
  C   C205      1.0  0.25016  0.11685  0.69914  1.0000
  C   C206      1.0  0.14884  0.29805  0.63951  1.0000
  H   H342      1.0  0.33648  0.30893  0.60762  1.0000
  H   H343      1.0  0.41496  0.16861  0.70407  1.0000
  H   H344      1.0  0.13633  0.30121  0.65353  1.0000
  C   C207      1.0  0.01072  0.11593  0.52261  1.0000
  S   S72       1.0  0.33376  0.18696  0.72956  1.0000
  N   N13       1.0  0.16069  0.25780  0.65328  1.0000
  C   C208      1.0  0.18056  0.14550  0.59841  1.0000
  C   C209      1.0  0.20620  0.10203  0.61416  1.0000
  H   H345      1.0  0.22070  0.10640  0.58106  1.0000
  H   H346      1.0  0.15021  0.14009  0.57320  1.0000
  H   H347      1.0  0.00866  0.12349  0.55346  1.0000
  H   H348      1.0  0.31936  0.15070  0.67295  1.0000
  H   H349      1.0  0.15095  0.11365  0.57216  1.0000
  C   C210      1.0  0.09517  0.00836  0.55220  1.0000
  H   H350      1.0  0.16295  0.24128  0.61653  1.0000
  H   H351      1.0  0.24530  0.15817  0.65325  1.0000
  H   H352      1.0  0.03386  0.07888  0.52697  1.0000
  S   S73       1.0  0.11008  0.07152  0.56104  1.0000
  C   C211      1.0  0.15767  0.23692  0.65115  1.0000
  S   S74       1.0  0.30901  0.10532  0.71138  1.0000
  C   C212      1.0  0.07256  0.08351  0.49885  1.0000
  H   H353      1.0  0.29573  0.14321  0.67261  1.0000
  H   H354      1.0  0.25753  0.16190  0.72530  1.0000
  H   H355      1.0  0.15607  0.24786  0.68736  1.0000
  C   C213      1.0  0.16286  0.16402  0.59115  1.0000
  C   C214      1.0  0.21643  0.21219  0.70896  1.0000
  H   H356      1.0  0.07910  0.05357  0.52048  1.0000
  H   H357      1.0  0.21781  0.16648  0.54312  1.0000
  C   C215      1.0  0.14966  0.26107  0.67520  1.0000
  H   H358      1.0  0.27248  0.13556  0.61817  1.0000
  H   H359      1.0  0.29521  0.13628  0.59625  1.0000
  N   N14       1.0  0.29794  0.15883  0.62785  1.0000
  C   C216      1.0  0.30561  0.17101  0.60583  1.0000
  C   C217      1.0  0.30240  0.13574  0.62682  1.0000
  C   C218      1.0  0.31058  0.16190  0.64217  1.0000
  C   C219      1.0  0.27462  0.16775  0.63456  1.0000
  C   C220      1.0  0.30227  0.19525  0.60311  1.0000
  C   C221      1.0  0.28988  0.13008  0.61338  1.0000
  C   C222      1.0  0.31156  0.14538  0.66311  1.0000
  C   C223      1.0  0.26209  0.15540  0.65470  1.0000
  H   H360      1.0  0.32286  0.16497  0.60012  1.0000
  H   H361      1.0  0.29735  0.16890  0.59434  1.0000
  H   H362      1.0  0.29912  0.12531  0.64268  1.0000
  H   H363      1.0  0.31966  0.13025  0.62064  1.0000
  H   H364      1.0  0.32746  0.16182  0.63391  1.0000
  H   H365      1.0  0.30455  0.17774  0.64634  1.0000
  H   H366      1.0  0.27225  0.18403  0.63726  1.0000
  H   H367      1.0  0.26616  0.17016  0.62158  1.0000
  H   H368      1.0  0.31038  0.20207  0.58694  1.0000
  H   H369      1.0  0.28524  0.20292  0.60465  1.0000
  H   H370      1.0  0.30901  0.19974  0.61429  1.0000
  H   H371      1.0  0.16874  0.11069  0.59961  1.0000
  H   H372      1.0  0.15309  0.27519  0.67855  1.0000
  H   H373      1.0  0.31557  0.31458  0.62919  1.0000
  C   C224      1.0  0.36822  0.29075  0.49241  1.0000
  H   H374      1.0  0.32656  0.29891  0.48956  1.0000
  C   C225      1.0  0.17770  0.11629  0.58342  1.0000
  H   H375      1.0  0.14051  0.23714  0.65290  1.0000
  H   H376      1.0  0.28241  0.10665  0.68297  1.0000
  H   H377      1.0  0.99636  0.99603  0.53970  1.0000
  H   H378      1.0  0.19613  0.09086  0.61483  1.0000
  H   H379      1.0  0.05910  0.03576  0.50656  1.0000
  H   H380      1.0  0.09176  0.02541  0.54805  1.0000
  C   C226      1.0  0.16108  0.12544  0.56938  1.0000
  C   C227      1.0  0.05011  0.99752  0.62041  1.0000
  N   N15       1.0  0.19184  0.13062  0.58376  1.0000
  H   H381      1.0  0.28486  0.16926  0.70245  1.0000
  H   H382      1.0  0.22138  0.09224  0.61822  1.0000
  H   H383      1.0  0.22156  0.12645  0.59364  1.0000
  H   H384      1.0  0.19202  0.15237  0.60270  1.0000
  C   C228      1.0  0.24046  0.20577  0.70046  1.0000
  C   C229      1.0  0.99567  0.09143  0.51138  1.0000
  H   H385      1.0  0.31089  0.28226  0.52349  1.0000
  H   H386      1.0  0.99418  0.02368  0.52913  1.0000
  H   H387      1.0  0.16458  0.16951  0.57390  1.0000
  H   H388      1.0  0.02022  0.07885  0.55333  1.0000
  H   H389      1.0  0.17309  0.13654  0.61386  1.0000
  H   H390      1.0  0.21138  0.22972  0.70609  1.0000
  C   C230      1.0  0.01821  0.07793  0.53767  1.0000
  H   H391      1.0  0.27919  0.23721  0.71781  1.0000
  C   C231      1.0  0.22721  0.28362  0.70234  1.0000
  C   C232      1.0  0.00083  0.11412  0.64203  1.0000
  H   H392      1.0  0.36418  0.29847  0.62538  1.0000
  H   H393      1.0  0.16589  0.21629  0.73342  1.0000
  H   H394      1.0  0.16548  0.20657  0.70047  1.0000
  H   H395      1.0  0.01645  0.05132  0.52466  1.0000
  C   C233      1.0  0.14694  0.04544  0.49307  1.0000
  H   H396      1.0  0.24426  0.21601  0.68441  1.0000
  H   H397      1.0  0.01147  0.11872  0.64958  1.0000
  H   H398      1.0  0.21940  0.28436  0.71842  1.0000
  C   C234      1.0  0.15145  0.20711  0.71294  1.0000
  C   C235      1.0  0.24891  0.22970  0.71747  1.0000
  H   H399      1.0  0.00115  0.09695  0.64853  1.0000
  H   H400      1.0  0.36852  0.31289  0.64176  1.0000
  C   C236      1.0  0.36314  0.30494  0.56612  1.0000
  H   H401      1.0  0.03431  0.10872  0.54256  1.0000
  H   H402      1.0  0.33554  0.30558  0.66857  1.0000
  C   C237      1.0  0.26831  0.11489  0.73299  1.0000
  C   C238      1.0  0.27744  0.20346  0.70274  1.0000
  H   H403      1.0  0.35843  0.30578  0.51908  1.0000
  S   S75       1.0  0.33823  0.30106  0.56541  1.0000
  H   H404      1.0  0.30215  0.18450  0.68368  1.0000
  H   H405      1.0  0.04650  0.00750  0.50088  1.0000
  C   C239      1.0  0.28525  0.18477  0.69146  1.0000
  C   C240      1.0  0.32219  0.30937  0.50112  1.0000
  H   H406      1.0  0.25623  0.25065  0.73337  1.0000
  C   C241      1.0  0.24609  0.17073  0.73661  1.0000
  H   H407      1.0  0.99898  0.05289  0.54998  1.0000
  C   C242      1.0  0.09218  0.99672  0.53901  1.0000
  C   C243      1.0  0.02037  0.12109  0.53875  1.0000
  N   N16       1.0  0.00141  0.09618  0.52980  1.0000
  H   H408      1.0  0.01983  0.00689  0.52727  1.0000
  H   H409      1.0  0.16385  0.30147  0.64077  1.0000
  S   S76       1.0  0.34622  0.12428  0.73636  1.0000
  H   H410      1.0  0.05413  0.00333  0.60308  1.0000
  C   C244      1.0  0.06037  0.05206  0.49941  1.0000
  H   H411      1.0  0.14368  0.30951  0.62553  1.0000
  Fe  Fe38      1.0  0.17943  0.27009  0.73275  1.0000
  H   H412      1.0  0.30644  0.31909  0.49852  1.0000
  C   C245      1.0  0.38615  0.16198  0.72812  1.0000
  C   C246      1.0  0.39968  0.16413  0.70546  1.0000
  H   H413      1.0  0.11425  0.05856  0.49083  1.0000
  H   H414      1.0  0.37825  0.17826  0.73008  1.0000
  H   H415      1.0  0.15104  0.02851  0.49235  1.0000
  C   C247      1.0  0.00328  0.00786  0.52640  1.0000
  H   H416      1.0  0.35843  0.27847  0.49950  1.0000
  H   H417      1.0  0.03861  0.01068  0.62693  1.0000
  C   C248      1.0  0.00093  0.00550  0.50486  1.0000
  H   H418      1.0  0.41861  0.19088  0.72558  1.0000
  H   H419      1.0  0.42981  0.15506  0.73483  1.0000
  C   C249      1.0  0.35570  0.30928  0.63642  1.0000
  C   C250      1.0  0.34326  0.29628  0.65619  1.0000
  H   H420      1.0  0.99879  0.13021  0.51769  1.0000
  H   H421      1.0  0.41846  0.12841  0.72599  1.0000
  C   C251      1.0  0.15165  0.21273  0.73159  1.0000
  H   H422      1.0  0.38424  0.28368  0.49602  1.0000
  C   C252      1.0  0.25126  0.19230  0.73560  1.0000
  H   H423      1.0  0.22990  0.17227  0.73416  1.0000
  H   H424      1.0  0.37130  0.32068  0.49588  1.0000
  H   H425      1.0  0.06442  0.99481  0.62706  1.0000
  C   C253      1.0  0.05133  0.99224  0.49575  1.0000
  H   H426      1.0  0.15189  0.15771  0.73587  1.0000
  N   N17       1.0  0.33792  0.32343  0.49698  1.0000
  C   C254      1.0  0.32771  0.32168  0.61631  1.0000
  C   C255      1.0  0.37067  0.32245  0.55231  1.0000
  H   H427      1.0  0.06349  0.29179  0.85251  1.0000
  H   H428      1.0  0.21665  0.24810  0.83469  1.0000
  H   H429      1.0  0.16289  0.14875  0.80666  1.0000
  C   C256      1.0  0.35516  0.99950  0.85803  1.0000
  H   H430      1.0  0.22116  0.30474  0.83292  1.0000
  Fe  Fe39      1.0  0.45972  0.01804  0.86637  1.0000
  S   S77       1.0  0.43171  0.02693  0.89161  1.0000
  H   H431      1.0  0.05906  0.30418  0.98020  1.0000
  H   H432      1.0  0.13019  0.15721  0.75861  1.0000
  Fe  Fe40      1.0  0.41311  0.01741  0.87339  1.0000
  S   S78       1.0  0.37987  0.03450  0.86990  1.0000
  C   C257      1.0  0.11547  0.20786  0.74568  1.0000
  S   S79       1.0  0.44064  0.01192  0.84639  1.0000
  H   H433      1.0  0.21792  0.16519  0.80103  1.0000
  Fe  Fe41      1.0  0.29385  0.13302  0.77743  1.0000
  S   S80       1.0  0.26062  0.14092  0.79641  1.0000
  Fe  Fe42      1.0  0.34029  0.11083  0.77132  1.0000
  H   H434      1.0  0.35625  0.99682  0.87482  1.0000
  S   S81       1.0  0.37147  0.09238  0.77992  1.0000
  H   H435      1.0  0.36025  0.17896  0.76221  1.0000
  C   C258      1.0  0.37672  0.01726  0.81230  1.0000
  H   H436      1.0  0.44202  0.02428  0.92950  1.0000
  S   S82       1.0  0.32319  0.14206  0.78011  1.0000
  S   S83       1.0  0.31051  0.10034  0.77186  1.0000
  H   H437      1.0  0.38857  0.99844  0.84853  1.0000
  H   H438      1.0  0.24665  0.16064  0.75264  1.0000
  C   C259      1.0  0.45591  0.00132  0.98478  1.0000
  C   C260      1.0  0.07084  0.30377  0.83960  1.0000
  Fe  Fe43      1.0  0.43850  0.99234  0.90682  1.0000
  C   C261      1.0  0.26423  0.18268  0.78804  1.0000
  H   H439      1.0  0.28121  0.17683  0.78575  1.0000
  H   H440      1.0  0.26660  0.21541  0.78251  1.0000
  H   H441      1.0  0.03003  0.31261  0.85905  1.0000
  H   H442      1.0  0.08795  0.30379  0.80672  1.0000
  C   C262      1.0  0.17412  0.16293  0.76211  1.0000
  C   C263      1.0  0.13374  0.21282  0.74813  1.0000
  H   H443      1.0  0.38746  0.02410  0.81759  1.0000
  C   C264      1.0  0.12898  0.30188  0.84486  1.0000
  H   H444      1.0  0.41005  0.10821  0.77349  1.0000
  C   C265      1.0  0.18508  0.31372  0.79440  1.0000
  H   H445      1.0  0.19130  0.24901  0.85351  1.0000
  H   H446      1.0  0.47915  0.09314  0.90431  1.0000
  C   C266      1.0  0.37740  0.05216  0.84560  1.0000
  C   C267      1.0  0.35718  0.06116  0.84102  1.0000
  C   C268      1.0  0.35502  0.07396  0.82102  1.0000
  C   C269      1.0  0.37312  0.07770  0.80558  1.0000
  C   C270      1.0  0.39328  0.06898  0.81030  1.0000
  C   C271      1.0  0.39541  0.05643  0.83031  1.0000
  H   H447      1.0  0.34317  0.05803  0.85286  1.0000
  H   H448      1.0  0.33941  0.08069  0.81747  1.0000
  H   H449      1.0  0.40733  0.07185  0.79843  1.0000
  H   H450      1.0  0.41101  0.04992  0.83380  1.0000
  H   H451      1.0  0.17840  0.10197  0.80550  1.0000
  H   H452      1.0  0.19787  0.27382  0.80725  1.0000
  C   C272      1.0  0.25054  0.16843  0.79345  1.0000
  N   N18       1.0  0.16889  0.14208  0.77532  1.0000
  H   H453      1.0  0.38304  0.01225  0.96881  1.0000
  Fe  Fe44      1.0  0.32715  0.15458  0.74520  1.0000
  N   N19       1.0  0.19502  0.29235  0.83047  1.0000
  H   H454      1.0  0.16760  0.28948  0.85617  1.0000
  C   C273      1.0  0.38186  0.14741  0.76635  1.0000
  C   C274      1.0  0.15911  0.13224  0.76323  1.0000
  H   H455      1.0  0.08639  0.30325  0.84324  1.0000
  H   H456      1.0  0.35756  0.16362  0.78840  1.0000
  H   H457      1.0  0.20073  0.30792  0.78496  1.0000
  H   H458      1.0  0.34574  0.99625  0.82185  1.0000
  C   C275      1.0  0.42009  0.11242  0.75762  1.0000
  H   H459      1.0  0.17488  0.30839  0.87904  1.0000
  C   C276      1.0  0.18319  0.31108  0.86218  1.0000
  S   S84       1.0  0.13237  0.31559  0.78173  1.0000
  H   H460      1.0  0.03798  0.32375  0.97049  1.0000
  H   H461      1.0  0.13651  0.13770  0.74311  1.0000
  H   H462      1.0  0.41139  0.00608  0.98574  1.0000
  N   N20       1.0  0.37885  0.99385  0.82191  1.0000
  H   H463      1.0  0.17350  0.27554  0.82570  1.0000
  C   C277      1.0  0.41099  0.18441  0.74208  1.0000
  C   C278      1.0  0.21839  0.29080  0.82870  1.0000
  S   S85       1.0  0.14491  0.27363  0.74785  1.0000
  H   H464      1.0  0.47207  0.08538  0.96546  1.0000
  H   H465      1.0  0.18434  0.16067  0.74651  1.0000
  H   H466      1.0  0.47407  0.06756  0.94934  1.0000
  H   H467      1.0  0.34268  0.99138  0.85780  1.0000
  H   H468      1.0  0.06865  0.30481  0.87979  1.0000
  C   C279      1.0  0.14353  0.14732  0.74966  1.0000
  H   H469      1.0  0.36045  0.02607  0.81786  1.0000
  H   H470      1.0  0.18357  0.09628  0.77941  1.0000
  S   S86       1.0  0.13446  0.21760  0.77242  1.0000
  C   C280      1.0  0.23398  0.21236  0.78873  1.0000
  S   S87       1.0  0.48808  0.03331  0.85494  1.0000
  H   H471      1.0  0.13537  0.28415  0.82054  1.0000
  C   C281      1.0  0.22854  0.17621  0.79649  1.0000
  H   H472      1.0  0.23808  0.19978  0.74710  1.0000
  C   C282      1.0  0.13289  0.15943  0.79646  1.0000
  H   H473      1.0  0.26644  0.22327  0.74308  1.0000
  C   C283      1.0  0.36856  0.00567  0.97672  1.0000
  H   H474      1.0  0.39414  0.19242  0.74519  1.0000
  C   C284      1.0  0.45399  0.02307  0.97616  1.0000
  C   C285      1.0  0.18536  0.17436  0.77178  1.0000
  C   C286      1.0  0.18864  0.10399  0.78949  1.0000
  H   H475      1.0  0.35496  0.01933  0.97539  1.0000
  C   C287      1.0  0.38111  0.02357  0.78796  1.0000
  C   C288      1.0  0.44613  0.01770  0.94471  1.0000
  H   H476      1.0  0.42020  0.00524  0.80656  1.0000
  C   C289      1.0  0.23287  0.28936  0.80693  1.0000
  H   H477      1.0  0.43354  0.11863  0.75885  1.0000
  H   H478      1.0  0.19653  0.13304  0.78976  1.0000
  H   H479      1.0  0.19535  0.23967  0.83003  1.0000
  H   H480      1.0  0.12782  0.16580  0.81109  1.0000
  Fe  Fe45      1.0  0.15312  0.28559  0.77235  1.0000
  H   H481      1.0  0.13304  0.17363  0.78357  1.0000
  H   H482      1.0  0.19221  0.27763  0.86391  1.0000
  H   H483      1.0  0.36995  0.13863  0.76576  1.0000
  H   H484      1.0  0.15068  0.11982  0.77413  1.0000
  Fe  Fe46      1.0  0.19340  0.25172  0.77452  1.0000
  H   H485      1.0  0.47495  0.01883  0.89984  1.0000
  H   H486      1.0  0.20150  0.12756  0.76429  1.0000
  H   H487      1.0  0.42692  0.09726  0.75222  1.0000
  H   H488      1.0  0.22977  0.30431  0.79514  1.0000
  H   H489      1.0  0.26541  0.18890  0.74274  1.0000
  C   C290      1.0  0.18423  0.29156  0.85339  1.0000
  H   H490      1.0  0.18674  0.19009  0.76126  1.0000
  C   C291      1.0  0.07657  0.29524  0.81917  1.0000
  H   H491      1.0  0.20330  0.20406  0.79587  1.0000
  C   C292      1.0  0.19087  0.27395  0.82414  1.0000
  H   H492      1.0  0.08478  0.27834  0.82249  1.0000
  C   C293      1.0  0.25593  0.20453  0.78619  1.0000
  H   H493      1.0  0.23170  0.27574  0.80109  1.0000
  C   C294      1.0  0.19914  0.25160  0.83657  1.0000
  H   H494      1.0  0.15101  0.12871  0.80562  1.0000
  C   C295      1.0  0.44943  0.03115  0.95596  1.0000
  H   H495      1.0  0.27512  0.11407  0.74621  1.0000
  H   H496      1.0  0.20178  0.16564  0.77272  1.0000
  S   S88       1.0  0.16003  0.25347  0.79369  1.0000
  Fe  Fe47      1.0  0.15440  0.24152  0.76767  1.0000
  C   C296      1.0  0.22027  0.19816  0.79366  1.0000
  H   H497      1.0  0.13098  0.28787  0.85733  1.0000
  C   C297      1.0  0.44771  0.99602  0.95342  1.0000
  H   H498      1.0  0.17381  0.30430  0.79387  1.0000
  H   H499      1.0  0.37824  0.04118  0.78310  1.0000
  C   C298      1.0  0.18956  0.12749  0.77931  1.0000
  H   H500      1.0  0.44782  0.04795  0.94918  1.0000
  C   C299      1.0  0.13153  0.29974  0.82406  1.0000
  C   C300      1.0  0.05782  0.32056  0.87871  1.0000
  C   C301      1.0  0.15469  0.14432  0.79647  1.0000
  H   H501      1.0  0.17171  0.12394  0.75190  1.0000
  H   H502      1.0  0.06253  0.29594  0.81296  1.0000
  H   H503      1.0  0.12073  0.15104  0.79584  1.0000
  S   S89       1.0  0.22404  0.23986  0.78608  1.0000
  H   H504      1.0  0.46297  0.09517  0.94135  1.0000
  C   C302      1.0  0.41525  0.15985  0.74661  1.0000
  S   S90       1.0  0.18709  0.28498  0.75534  1.0000
  H   H505      1.0  0.35013  0.01685  0.85259  1.0000
  H   H506      1.0  0.41970  0.15376  0.76235  1.0000
  H   H507      1.0  0.23654  0.12457  0.74942  1.0000
  H   H508      1.0  0.20490  0.09520  0.79127  1.0000
  H   H509      1.0  0.22471  0.27673  0.84025  1.0000
  C   C303      1.0  0.36941  0.16790  0.77373  1.0000
  C   C304      1.0  0.05115  0.32118  0.97864  1.0000
  H   H510      1.0  0.36753  0.99420  0.96787  1.0000
  H   H511      1.0  0.39462  0.11995  0.74072  1.0000
  H   H512      1.0  0.37991  0.17588  0.77795  1.0000
  H   H513      1.0  0.17623  0.17737  0.78741  1.0000
  H   H514      1.0  0.41880  0.18932  0.75225  1.0000
  S   S91       1.0  0.29670  0.14819  0.74321  1.0000
  H   H515      1.0  0.19915  0.31357  0.86165  1.0000
  H   H516      1.0  0.39786  0.01764  0.78078  1.0000
  S   S92       1.0  0.18829  0.23685  0.75066  1.0000
  C   C305      1.0  0.12384  0.32205  0.84957  1.0000
  H   H517      1.0  0.10163  0.20782  0.75844  1.0000
  H   H518      1.0  0.02700  0.30157  0.83011  1.0000
  H   H519      1.0  0.16832  0.31827  0.82473  1.0000
  H   H520      1.0  0.04110  0.31876  0.88506  1.0000
  C   C306      1.0  0.02515  0.31901  0.82769  1.0000
  H   H521      1.0  0.38965  0.13776  0.77954  1.0000
  H   H522      1.0  0.37035  0.01828  0.78122  1.0000
  C   C307      1.0  0.40724  0.12778  0.74154  1.0000
  C   C308      1.0  0.12885  0.31779  0.80794  1.0000
  H   H523      1.0  0.15980  0.17439  0.75820  1.0000
  C   C309      1.0  0.47568  0.08372  0.94877  1.0000
  C   C310      1.0  0.18536  0.31318  0.81747  1.0000
  N   N21       1.0  0.39772  0.14982  0.74562  1.0000
  H   H524      1.0  0.48253  0.07248  0.89067  1.0000
  H   H525      1.0  0.24966  0.28687  0.80827  1.0000
  C   C311      1.0  0.49113  0.08082  0.89704  1.0000
  C   C312      1.0  0.37711  0.99070  0.84535  1.0000
  C   C313      1.0  0.19816  0.53379  0.19523  1.0000
  H   H526      1.0  0.09912  0.37037  0.01937  1.0000
  H   H527      1.0  0.14794  0.36969  0.06046  1.0000
  Fe  Fe48      1.0  0.08273  0.35180  0.09940  1.0000
  H   H528      1.0  0.19156  0.50651  0.13279  1.0000
  C   C314      1.0  0.03441  0.45049  0.05485  1.0000
  H   H529      1.0  0.13459  0.56515  0.14995  1.0000
  Fe  Fe49      1.0  0.17328  0.62510  0.12343  1.0000
  H   H530      1.0  0.11298  0.61651  0.08219  1.0000
  S   S93       1.0  0.16743  0.60716  0.10202  1.0000
  Fe  Fe50      1.0  0.18976  0.61463  0.16394  1.0000
  S   S94       1.0  0.19777  0.59018  0.19242  1.0000
  H   H531      1.0  0.25695  0.58141  0.22633  1.0000
  H   H532      1.0  0.36630  0.60342  0.23178  1.0000
  S   S95       1.0  0.15706  0.62233  0.15752  1.0000
  S   S96       1.0  0.20594  0.61456  0.13034  1.0000
  S   S97       1.0  0.08929  0.42331  0.04970  1.0000
  Fe  Fe51      1.0  0.07392  0.51584  0.10021  1.0000
  S   S98       1.0  0.05391  0.52816  0.07570  1.0000
  S   S99       1.0  0.08387  0.48095  0.11267  1.0000
  Fe  Fe52      1.0  0.07319  0.55954  0.10606  1.0000
  S   S100      1.0  0.05329  0.57581  0.08185  1.0000
  S   S101      1.0  0.07889  0.57967  0.12536  1.0000
  Fe  Fe53      1.0  0.03483  0.55016  0.09688  1.0000
  S   S102      1.0  0.99954  0.55949  0.10303  1.0000
  Fe  Fe54      1.0  0.07423  0.55268  0.06267  1.0000
  S   S103      1.0  0.08596  0.56473  0.02791  1.0000
  S   S104      1.0  0.05271  0.53569  0.12276  1.0000
  S   S105      1.0  0.09619  0.53848  0.08554  1.0000
  H   H533      1.0  0.12815  0.65360  0.04772  1.0000
  C   C315      1.0  0.09916  0.36513  0.00544  1.0000
  H   H534      1.0  0.01995  0.49162  0.01495  1.0000
  H   H535      1.0  0.27475  0.65528  0.19251  1.0000
  C   C316      1.0  0.23073  0.64343  0.19250  1.0000
  H   H536      1.0  0.17860  0.64168  0.20881  1.0000
  C   C317      1.0  0.01465  0.48576  0.05973  1.0000
  H   H537      1.0  0.09684  0.60936  0.01837  1.0000
  C   C318      1.0  0.08146  0.56006  0.99003  1.0000
  H   H538      1.0  0.01682  0.51414  0.11010  1.0000
  C   C319      1.0  0.08745  0.43946  0.06724  1.0000
  C   C320      1.0  0.08285  0.43175  0.08907  1.0000
  C   C321      1.0  0.08143  0.44474  0.10289  1.0000
  C   C322      1.0  0.08446  0.46558  0.09497  1.0000
  C   C323      1.0  0.08875  0.47351  0.07312  1.0000
  C   C324      1.0  0.09042  0.46038  0.05927  1.0000
  H   H539      1.0  0.08082  0.41566  0.09542  1.0000
  H   H540      1.0  0.07805  0.43860  0.11978  1.0000
  H   H541      1.0  0.09132  0.48957  0.06690  1.0000
  H   H542      1.0  0.09415  0.46644  0.04238  1.0000
  C   C325      1.0  0.14330  0.59848  0.10992  1.0000
  C   C326      1.0  0.14110  0.58179  0.10214  1.0000
  C   C327      1.0  0.12157  0.57530  0.10744  1.0000
  C   C328      1.0  0.10411  0.58575  0.12022  1.0000
  C   C329      1.0  0.10651  0.60204  0.12843  1.0000
  C   C330      1.0  0.12609  0.60838  0.12333  1.0000
  H   H543      1.0  0.15447  0.57401  0.09188  1.0000
  H   H544      1.0  0.11992  0.56248  0.10136  1.0000
  H   H545      1.0  0.09306  0.61009  0.13841  1.0000
  H   H546      1.0  0.12767  0.62131  0.12931  1.0000
  C   C331      1.0  0.26633  0.58909  0.19239  1.0000
  C   C332      1.0  0.25994  0.59264  0.17328  1.0000
  C   C333      1.0  0.23898  0.59238  0.17328  1.0000
  C   C334      1.0  0.22457  0.58788  0.19238  1.0000
  C   C335      1.0  0.23128  0.58318  0.21150  1.0000
  H   H547      1.0  0.99151  0.51530  0.06133  1.0000
  H   H548      1.0  0.27095  0.59648  0.15847  1.0000
  H   H549      1.0  0.23400  0.59592  0.15846  1.0000
  H   H550      1.0  0.20703  0.51706  0.15578  1.0000
  S   S106      1.0  0.19166  0.64811  0.16148  1.0000
  C   C336      1.0  0.12230  0.32804  0.12679  1.0000
  H   H551      1.0  0.06440  0.47114  0.02351  1.0000
  C   C337      1.0  0.99637  0.38285  0.06839  1.0000
  H   H552      1.0  0.20175  0.57047  0.11761  1.0000
  H   H553      1.0  0.15429  0.62631  0.20037  1.0000
  C   C338      1.0  0.99826  0.60759  0.01877  1.0000
  H   H554      1.0  0.00303  0.48092  0.07434  1.0000
  H   H555      1.0  0.07311  0.62789  0.04750  1.0000
  H   H556      1.0  0.01419  0.42911  0.07727  1.0000
  C   C339      1.0  0.25204  0.58424  0.21152  1.0000
  S   S107      1.0  0.26942  0.62623  0.23427  1.0000
  H   H557      1.0  0.00357  0.45000  0.03714  1.0000
  H   H558      1.0  0.02673  0.39407  0.99616  1.0000
  C   C340      1.0  0.00160  0.39939  0.05139  1.0000
  Fe  Fe55      1.0  0.08007  0.34932  0.05601  1.0000
  H   H559      1.0  0.21944  0.54648  0.15744  1.0000
  H   H560      1.0  0.02912  0.48555  0.06529  1.0000
  H   H561      1.0  0.16834  0.52687  0.13499  1.0000
  C   C341      1.0  0.07256  0.55848  0.01161  1.0000
  H   H562      1.0  0.09210  0.59317  0.05153  1.0000
  H   H563      1.0  0.10111  0.59031  0.07454  1.0000
  C   C342      1.0  0.00901  0.57758  0.16424  1.0000
  N   N22       1.0  0.14395  0.39259  0.10092  1.0000
  C   C343      1.0  0.12670  0.39971  0.11876  1.0000
  C   C344      1.0  0.15527  0.41079  0.09039  1.0000
  C   C345      1.0  0.15906  0.37379  0.11071  1.0000
  C   C346      1.0  0.13388  0.38653  0.08625  1.0000
  C   C347      1.0  0.11277  0.38361  0.13213  1.0000
  C   C348      1.0  0.14177  0.43128  0.07955  1.0000
  C   C349      1.0  0.17890  0.36434  0.09573  1.0000
  C   C350      1.0  0.14699  0.38545  0.06365  1.0000
  H   H564      1.0  0.13351  0.40457  0.12984  1.0000
  H   H565      1.0  0.11539  0.41396  0.11266  1.0000
  H   H566      1.0  0.16947  0.40654  0.07828  1.0000
  H   H567      1.0  0.16168  0.41512  0.10211  1.0000
  H   H568      1.0  0.16473  0.37787  0.12309  1.0000
  H   H569      1.0  0.15090  0.36035  0.11888  1.0000
  H   H570      1.0  0.12932  0.37085  0.09346  1.0000
  H   H571      1.0  0.11863  0.39779  0.08430  1.0000
  H   H572      1.0  0.10004  0.39136  0.14369  1.0000
  H   H573      1.0  0.10466  0.37856  0.12239  1.0000
  H   H574      1.0  0.12179  0.36958  0.14149  1.0000
  H   H575      1.0  0.13328  0.42828  0.06880  1.0000
  H   H576      1.0  0.13022  0.43986  0.09122  1.0000
  H   H577      1.0  0.15235  0.44231  0.06984  1.0000
  H   H578      1.0  0.18864  0.35112  0.10534  1.0000
  H   H579      1.0  0.18931  0.37577  0.08711  1.0000
  H   H580      1.0  0.17469  0.35715  0.08467  1.0000
  H   H581      1.0  0.16345  0.38770  0.06043  1.0000
  H   H582      1.0  0.13873  0.39738  0.05178  1.0000
  C   C351      1.0  0.13551  0.32595  0.10721  1.0000
  C   C352      1.0  0.07146  0.62847  0.07969  1.0000
  H   H583      1.0  0.38903  0.61526  0.22156  1.0000
  H   H584      1.0  0.23571  0.64021  0.20773  1.0000
  C   C353      1.0  0.02863  0.33706  0.04286  1.0000
  C   C354      1.0  0.10507  0.59626  0.05716  1.0000
  H   H585      1.0  0.16672  0.53810  0.19052  1.0000
  H   H586      1.0  0.06848  0.41178  0.99858  1.0000
  S   S108      1.0  0.10313  0.36071  0.06732  1.0000
  C   C355      1.0  0.20575  0.55675  0.15068  1.0000
  H   H587      1.0  0.13350  0.63237  0.22196  1.0000
  C   C356      1.0  0.03268  0.35353  0.02194  1.0000
  H   H588      1.0  0.30564  0.65297  0.13554  1.0000
  H   H589      1.0  0.00031  0.59735  0.00747  1.0000
  C   C357      1.0  0.11874  0.62320  0.06526  1.0000
  C   C358      1.0  0.11975  0.64644  0.06356  1.0000
  H   H590      1.0  0.22549  0.62899  0.19246  1.0000
  H   H591      1.0  0.12400  0.56486  0.05467  1.0000
  H   H592      1.0  0.13958  0.58311  0.05425  1.0000
  H   H593      1.0  0.99630  0.36188  0.01040  1.0000
  H   H594      1.0  0.07059  0.61161  0.08652  1.0000
  H   H595      1.0  0.03366  0.46560  0.01411  1.0000
  H   H596      1.0  0.13246  0.61981  0.02521  1.0000
  C   C359      1.0  0.04303  0.54634  0.00683  1.0000
  C   C360      1.0  0.09702  0.33780  0.98899  1.0000
  S   S109      1.0  0.06138  0.33797  0.08825  1.0000
  H   H597      1.0  0.02810  0.54117  0.01331  1.0000
  H   H598      1.0  0.28851  0.63453  0.14788  1.0000
  S   S110      1.0  0.32083  0.60744  0.22712  1.0000
  C   C361      1.0  0.09603  0.34478  0.00719  1.0000
  C   C362      1.0  0.05311  0.55196  0.01990  1.0000
  C   C363      1.0  0.18563  0.52319  0.13467  1.0000
  H   H599      1.0  0.02181  0.36858  0.02482  1.0000
  H   H600      1.0  0.20306  0.57216  0.15540  1.0000
  C   C364      1.0  0.11520  0.62691  0.02895  1.0000
  H   H601      1.0  0.09168  0.63758  0.00862  1.0000
  S   S111      1.0  0.29162  0.59243  0.19215  1.0000
  H   H602      1.0  0.00812  0.59367  0.15394  1.0000
  Fe  Fe56      1.0  0.20496  0.64902  0.12711  1.0000
  H   H603      1.0  0.05006  0.49569  0.03151  1.0000
  S   S112      1.0  0.05863  0.38126  0.05021  1.0000
  C   C365      1.0  0.16212  0.64487  0.21825  1.0000
  C   C366      1.0  0.02596  0.43824  0.07726  1.0000
  H   H604      1.0  0.37171  0.64338  0.20199  1.0000
  H   H605      1.0  0.08243  0.64931  0.05029  1.0000
  C   C367      1.0  0.99494  0.56493  0.15962  1.0000
  H   H606      1.0  0.00511  0.57875  0.18103  1.0000
  H   H607      1.0  0.12909  0.64669  0.07500  1.0000
  N   N23       1.0  0.01940  0.46996  0.04587  1.0000
  Fe  Fe57      1.0  0.07976  0.39173  0.06487  1.0000
  H   H608      1.0  0.99512  0.41802  0.02123  1.0000
  S   S113      1.0  0.00629  0.37764  0.09132  1.0000
  H   H609      1.0  0.13937  0.56258  0.17551  1.0000
  H   H610      1.0  0.17528  0.56221  0.18640  1.0000
  C   C368      1.0  0.08306  0.63197  0.05628  1.0000
  H   H611      1.0  0.12934  0.58433  0.03126  1.0000
  C   C369      1.0  0.12584  0.58160  0.04875  1.0000
  H   H612      1.0  0.15675  0.61183  0.22628  1.0000
  H   H613      1.0  0.21665  0.65636  0.19153  1.0000
  H   H614      1.0  0.02587  0.56924  0.16075  1.0000
  C   C370      1.0  0.05129  0.48505  0.02089  1.0000
  H   H615      1.0  0.20551  0.51804  0.19136  1.0000
  C   C371      1.0  0.14582  0.55683  0.16057  1.0000
  C   C372      1.0  0.18049  0.54601  0.18295  1.0000
  H   H616      1.0  0.03110  0.34314  0.05575  1.0000
  H   H617      1.0  0.07887  0.63418  0.08957  1.0000
  S   S114      1.0  0.08912  0.32886  0.03219  1.0000
  C   C373      1.0  0.03021  0.47806  0.02344  1.0000
  H   H618      1.0  0.22031  0.57947  0.22632  1.0000
  H   H619      1.0  0.26271  0.63359  0.17766  1.0000
  H   H620      1.0  0.13547  0.61461  0.06144  1.0000
  Fe  Fe58      1.0  0.29224  0.59849  0.22313  1.0000
  H   H621      1.0  0.03944  0.42650  0.08303  1.0000
  H   H622      1.0  0.03976  0.43892  0.04429  1.0000
  Fe  Fe59      1.0  0.04178  0.37092  0.08344  1.0000
  H   H623      1.0  0.18060  0.51497  0.16830  1.0000
  N   N24       1.0  0.03000  0.34802  0.00248  1.0000
  C   C374      1.0  0.16797  0.56211  0.15017  1.0000
  N   N25       1.0  0.10551  0.61961  0.05188  1.0000
  N   N26       1.0  0.18612  0.54727  0.15939  1.0000
  H   H624      1.0  0.21059  0.54316  0.19248  1.0000
  C   C375      1.0  0.10417  0.62352  0.01282  1.0000
  H   H625      1.0  0.04904  0.35623  0.01975  1.0000
  C   C376      1.0  0.15101  0.62771  0.21706  1.0000
  H   H626      1.0  0.39789  0.57752  0.23719  1.0000
  H   H627      1.0  0.19122  0.53121  0.21245  1.0000
  H   H628      1.0  0.22093  0.54542  0.12134  1.0000
  H   H629      1.0  0.22706  0.56939  0.12237  1.0000
  C   C377      1.0  0.19023  0.52516  0.15542  1.0000
  H   H630      1.0  0.00791  0.59920  0.03077  1.0000
  H   H631      1.0  0.16708  0.57868  0.15127  1.0000
  S   S115      1.0  0.06104  0.38376  0.09791  1.0000
  H   H632      1.0  0.05587  0.49403  0.00444  1.0000
  H   H633      1.0  0.04904  0.45487  0.05588  1.0000
  C   C378      1.0  0.21394  0.56057  0.12659  1.0000
  H   H634      1.0  0.17040  0.56298  0.13300  1.0000
  H   H635      1.0  0.19347  0.53332  0.12044  1.0000
  H   H636      1.0  0.04572  0.55143  0.03630  1.0000
  H   H637      1.0  0.14601  0.53963  0.16380  1.0000
  H   H638      1.0  0.04473  0.42915  0.99347  1.0000
  H   H639      1.0  0.32256  0.64690  0.19949  1.0000
  H   H640      1.0  0.29884  0.64599  0.16375  1.0000
  S   S116      1.0  0.09473  0.33629  0.12942  1.0000
  H   H641      1.0  0.05487  0.63759  0.08086  1.0000
  H   H642      1.0  0.24515  0.64406  0.15976  1.0000
  H   H643      1.0  0.19614  0.63488  0.23629  1.0000
  C   C379      1.0  0.24941  0.64684  0.17370  1.0000
  H   H644      1.0  0.01271  0.40843  0.05195  1.0000
  H   H645      1.0  0.11487  0.64424  0.02521  1.0000
  H   H646      1.0  0.12883  0.32952  0.09335  1.0000
  H   H647      1.0  0.00541  0.62161  0.01012  1.0000
  H   H648      1.0  0.01925  0.44861  0.08882  1.0000
  C   C380      1.0  0.99953  0.46304  0.04587  1.0000
  H   H649      1.0  0.01764  0.51908  0.04883  1.0000
  H   H650      1.0  0.99141  0.61048  0.08253  1.0000
  Fe  Fe60      1.0  0.16006  0.65613  0.15236  1.0000
  C   C381      1.0  0.00597  0.50924  0.05022  1.0000
  C   C382      1.0  0.00054  0.51701  0.10842  1.0000
  H   H651      1.0  0.10388  0.65645  0.06780  1.0000
  H   H652      1.0  0.00120  0.48410  0.11004  1.0000
  C   C383      1.0  0.29258  0.64919  0.14922  1.0000
  H   H653      1.0  0.11615  0.62079  0.99829  1.0000
  H   H654      1.0  0.01207  0.33458  0.04736  1.0000
  H   H655      1.0  0.00141  0.51239  0.03486  1.0000
  C   C384      1.0  0.04371  0.32639  0.00081  1.0000
  H   H656      1.0  0.99914  0.54835  0.16858  1.0000
  H   H657      1.0  0.00226  0.33443  0.01833  1.0000
  C   C385      1.0  0.00690  0.34762  0.00513  1.0000
  H   H658      1.0  0.99640  0.56759  0.03345  1.0000
  H   H659      1.0  0.34216  0.63841  0.23177  1.0000
  H   H660      1.0  0.00042  0.56392  0.14276  1.0000
  C   C386      1.0  0.37842  0.60906  0.23649  1.0000
  C   C387      1.0  0.99169  0.50001  0.10845  1.0000
  C   C388      1.0  0.35517  0.64393  0.23499  1.0000
  H   H661      1.0  0.99232  0.58630  0.06205  1.0000
  C   C389      1.0  0.36768  0.65392  0.21336  1.0000
  H   H662      1.0  0.99160  0.45649  0.06226  1.0000
  C   C390      1.0  0.99173  0.40476  0.03404  1.0000
  H   H663      1.0  0.05852  0.32414  0.00660  1.0000
  H   H664      1.0  0.12092  0.32452  0.15995  1.0000
  H   H665      1.0  0.18796  0.60245  0.23775  1.0000
  H   H666      1.0  0.13828  0.62826  0.25637  1.0000
  H   H667      1.0  0.44627  0.57146  0.46601  1.0000
  H   H668      1.0  0.40076  0.35643  0.30472  1.0000
  Fe  Fe61      1.0  0.40984  0.49837  0.38105  1.0000
  S   S117      1.0  0.37804  0.51010  0.40031  1.0000
  S   S118      1.0  0.42253  0.46686  0.37164  1.0000
  Fe  Fe62      1.0  0.42460  0.53949  0.37397  1.0000
  S   S119      1.0  0.39414  0.55497  0.39241  1.0000
  S   S120      1.0  0.45204  0.55566  0.35762  1.0000
  Fe  Fe63      1.0  0.39642  0.52362  0.41542  1.0000
  S   S121      1.0  0.38803  0.52305  0.45023  1.0000
  Fe  Fe64      1.0  0.37844  0.54036  0.37563  1.0000
  S   S122      1.0  0.34798  0.55805  0.36503  1.0000
  S   S123      1.0  0.42825  0.50911  0.39835  1.0000
  S   S124      1.0  0.40889  0.52751  0.35508  1.0000
  C   C391      1.0  0.18177  0.60857  0.25248  1.0000
  N   N27       1.0  0.48612  0.58324  0.46242  1.0000
  C   C392      1.0  0.32151  0.34928  0.46644  1.0000
  Fe  Fe65      1.0  0.37329  0.37509  0.38857  1.0000
  S   S125      1.0  0.40450  0.36695  0.39843  1.0000
  S   S126      1.0  0.35591  0.40893  0.38704  1.0000
  Fe  Fe66      1.0  0.41509  0.34713  0.37407  1.0000
  C   C393      1.0  0.47485  0.53970  0.41096  1.0000
  Fe  Fe67      1.0  0.39272  0.33871  0.42002  1.0000
  H   H669      1.0  0.44907  0.35353  0.46051  1.0000
  S   S127      1.0  0.38467  0.35748  0.36207  1.0000
  S   S128      1.0  0.36041  0.34827  0.41239  1.0000
  Fe  Fe68      1.0  0.26723  0.60462  0.26616  1.0000
  H   H670      1.0  0.46970  0.40637  0.43890  1.0000
  C   C394      1.0  0.42952  0.51150  0.45492  1.0000
  C   C395      1.0  0.46833  0.55228  0.37544  1.0000
  H   H671      1.0  0.43323  0.41161  0.45631  1.0000
  H   H672      1.0  0.47872  0.45731  0.48172  1.0000
  C   C396      1.0  0.40556  0.53511  0.47652  1.0000
  Fe  Fe69      1.0  0.31458  0.58724  0.25969  1.0000
  S   S129      1.0  0.34368  0.56591  0.27035  1.0000
  H   H673      1.0  0.48087  0.45711  0.34970  1.0000
  S   S130      1.0  0.29364  0.61404  0.27427  1.0000
  H   H674      1.0  0.47182  0.51237  0.36500  1.0000
  C   C397      1.0  0.44160  0.52085  0.48189  1.0000
  C   C398      1.0  0.46528  0.34680  0.36844  1.0000
  H   H675      1.0  0.43758  0.42629  0.39711  1.0000
  H   H676      1.0  0.49097  0.61460  0.44528  1.0000
  H   H677      1.0  0.48369  0.42032  0.39213  1.0000
  C   C399      1.0  0.39622  0.34855  0.46495  1.0000
  H   H678      1.0  0.33012  0.62484  0.29648  1.0000
  H   H679      1.0  0.38010  0.37245  0.44253  1.0000
  H   H680      1.0  0.31380  0.36152  0.47590  1.0000
  C   C400      1.0  0.46118  0.54446  0.39695  1.0000
  H   H681      1.0  0.42251  0.44764  0.41876  1.0000
  H   H682      1.0  0.44503  0.54218  0.40288  1.0000
  C   C401      1.0  0.40390  0.45079  0.37643  1.0000
  C   C402      1.0  0.38469  0.45396  0.39098  1.0000
  C   C403      1.0  0.36984  0.44121  0.39413  1.0000
  C   C404      1.0  0.37448  0.42484  0.38320  1.0000
  C   C405      1.0  0.39393  0.42133  0.36906  1.0000
  C   C406      1.0  0.40848  0.43445  0.36550  1.0000
  H   H683      1.0  0.38127  0.46616  0.39989  1.0000
  H   H684      1.0  0.35494  0.44374  0.40533  1.0000
  H   H685      1.0  0.39760  0.40871  0.36056  1.0000
  H   H686      1.0  0.42325  0.43202  0.35411  1.0000
  C   C407      1.0  0.34723  0.56115  0.33842  1.0000
  C   C408      1.0  0.32791  0.56985  0.33183  1.0000
  C   C409      1.0  0.32669  0.57158  0.31086  1.0000
  C   C410      1.0  0.34479  0.56448  0.29648  1.0000
  C   C411      1.0  0.36413  0.55596  0.30300  1.0000
  C   C412      1.0  0.36537  0.55443  0.32390  1.0000
  H   H687      1.0  0.31381  0.57501  0.34306  1.0000
  H   H688      1.0  0.31166  0.57793  0.30600  1.0000
  H   H689      1.0  0.37816  0.55035  0.29194  1.0000
  H   H690      1.0  0.38033  0.54790  0.32875  1.0000
  C   C413      1.0  0.40934  0.52374  0.46070  1.0000
  C   C414      1.0  0.42913  0.41632  0.44048  1.0000
  H   H691      1.0  0.43250  0.50256  0.44284  1.0000
  S   S131      1.0  0.23629  0.60298  0.28931  1.0000
  H   H692      1.0  0.25498  0.65229  0.28446  1.0000
  C   C415      1.0  0.13955  0.64623  0.27781  1.0000
  C   C416      1.0  0.46872  0.50046  0.33958  1.0000
  H   H693      1.0  0.32647  0.35792  0.44995  1.0000
  H   H694      1.0  0.16628  0.60421  0.26046  1.0000
  H   H695      1.0  0.39130  0.60563  0.27990  1.0000
  H   H696      1.0  0.44805  0.40515  0.37218  1.0000
  H   H697      1.0  0.41291  0.41328  0.44289  1.0000
  C   C417      1.0  0.47621  0.49671  0.36051  1.0000
  H   H698      1.0  0.48705  0.55066  0.47947  1.0000
  H   H699      1.0  0.12809  0.65559  0.24873  1.0000
  C   C418      1.0  0.45042  0.37048  0.45593  1.0000
  H   H700      1.0  0.12423  0.64230  0.28751  1.0000
  H   H701      1.0  0.46717  0.55041  0.45684  1.0000
  H   H702      1.0  0.46103  0.50023  0.46129  1.0000
  H   H703      1.0  0.35383  0.34391  0.46997  1.0000
  H   H704      1.0  0.34094  0.61088  0.26287  1.0000
  H   H705      1.0  0.39084  0.47498  0.47663  1.0000
  H   H706      1.0  0.42690  0.37805  0.43663  1.0000
  H   H707      1.0  0.37910  0.40207  0.45885  1.0000
  H   H708      1.0  0.38396  0.58135  0.26268  1.0000
  H   H709      1.0  0.40930  0.62313  0.27224  1.0000
  C   C419      1.0  0.44330  0.38043  0.43470  1.0000
  H   H710      1.0  0.47099  0.33203  0.41958  1.0000
  H   H711      1.0  0.34776  0.64305  0.28499  1.0000
  C   C420      1.0  0.44561  0.51002  0.46555  1.0000
  H   H712      1.0  0.25213  0.62670  0.31820  1.0000
  C   C421      1.0  0.43763  0.40947  0.40470  1.0000
  C   C422      1.0  0.19904  0.62683  0.30550  1.0000
  S   S132      1.0  0.28779  0.57588  0.25454  1.0000
  H   H713      1.0  0.45277  0.49645  0.34327  1.0000
  H   H714      1.0  0.24872  0.64649  0.33280  1.0000
  C   C423      1.0  0.21669  0.62626  0.28880  1.0000
  N   N28       1.0  0.16230  0.64728  0.23998  1.0000
  H   H715      1.0  0.46639  0.51757  0.33181  1.0000
  H   H716      1.0  0.19750  0.61292  0.31808  1.0000
  H   H717      1.0  0.47581  0.49090  0.40198  1.0000
  C   C424      1.0  0.45924  0.56726  0.45272  1.0000
  H   H718      1.0  0.40707  0.59316  0.24936  1.0000
  H   H719      1.0  0.46726  0.37081  0.45462  1.0000
  S   S133      1.0  0.44735  0.34765  0.35299  1.0000
  H   H720      1.0  0.42260  0.33782  0.32953  1.0000
  N   N29       1.0  0.34675  0.49116  0.34598  1.0000
  C   C425      1.0  0.34854  0.50124  0.36294  1.0000
  C   C426      1.0  0.36894  0.48099  0.33645  1.0000
  C   C427      1.0  0.33345  0.47444  0.35642  1.0000
  C   C428      1.0  0.33620  0.50836  0.33010  1.0000
  C   C429      1.0  0.32740  0.51072  0.37643  1.0000
  C   C430      1.0  0.38452  0.49610  0.32562  1.0000
  C   C431      1.0  0.33645  0.45631  0.34500  1.0000
  C   C432      1.0  0.33513  0.50260  0.30969  1.0000
  H   H721      1.0  0.35792  0.48959  0.37406  1.0000
  H   H722      1.0  0.35729  0.51445  0.35606  1.0000
  H   H723      1.0  0.36910  0.47216  0.32458  1.0000
  H   H724      1.0  0.37614  0.46870  0.34882  1.0000
  H   H725      1.0  0.33676  0.46632  0.37240  1.0000
  H   H726      1.0  0.31622  0.48181  0.35911  1.0000
  H   H727      1.0  0.31946  0.51452  0.33735  1.0000
  H   H728      1.0  0.34340  0.52262  0.32553  1.0000
  H   H729      1.0  0.33104  0.51688  0.38866  1.0000
  H   H730      1.0  0.31821  0.52447  0.36691  1.0000
  H   H731      1.0  0.31750  0.49877  0.38494  1.0000
  H   H732      1.0  0.39970  0.48694  0.31806  1.0000
  H   H733      1.0  0.37847  0.50898  0.31304  1.0000
  H   H734      1.0  0.38852  0.50283  0.33717  1.0000
  H   H735      1.0  0.35210  0.44543  0.34569  1.0000
  H   H736      1.0  0.33461  0.46206  0.32843  1.0000
  H   H737      1.0  0.32429  0.44654  0.35339  1.0000
  H   H738      1.0  0.32067  0.49620  0.31192  1.0000
  H   H739      1.0  0.34931  0.49148  0.30344  1.0000
  H   H740      1.0  0.33449  0.51720  0.29692  1.0000
  H   H741      1.0  0.17005  0.64576  0.31941  1.0000
  S   S134      1.0  0.39798  0.32748  0.45317  1.0000
  C   C433      1.0  0.40416  0.34448  0.48328  1.0000
  C   C434      1.0  0.46874  0.59105  0.47985  1.0000
  C   C435      1.0  0.46706  0.40586  0.42334  1.0000
  H   H742      1.0  0.45353  0.37023  0.42381  1.0000
  H   H743      1.0  0.45601  0.60337  0.47311  1.0000
  N   N30       1.0  0.36777  0.62617  0.24886  1.0000
  H   H744      1.0  0.46616  0.48654  0.37287  1.0000
  H   H745      1.0  0.44182  0.44521  0.43468  1.0000
  H   H746      1.0  0.35184  0.33528  0.34659  1.0000
  H   H747      1.0  0.44613  0.38116  0.39124  1.0000
  C   C436      1.0  0.38674  0.36927  0.45641  1.0000
  C   C437      1.0  0.25602  0.64222  0.31727  1.0000
  H   H748      1.0  0.46824  0.39381  0.38726  1.0000
  C   C438      1.0  0.38609  0.38601  0.46571  1.0000
  C   C439      1.0  0.47452  0.33865  0.40278  1.0000
  C   C440      1.0  0.42715  0.44056  0.43421  1.0000
  H   H749      1.0  0.44031  0.37793  0.46900  1.0000
  H   H750      1.0  0.18344  0.63628  0.26225  1.0000
  H   H751      1.0  0.39001  0.54471  0.48092  1.0000
  H   H752      1.0  0.38415  0.63060  0.28818  1.0000
  N   N31       1.0  0.44463  0.40344  0.42551  1.0000
  H   H753      1.0  0.44728  0.33091  0.39721  1.0000
  H   H754      1.0  0.34655  0.33138  0.31258  1.0000
  H   H755      1.0  0.46933  0.53324  0.42751  1.0000
  H   H756      1.0  0.41430  0.44776  0.44609  1.0000
  C   C441      1.0  0.42347  0.32934  0.31701  1.0000
  H   H757      1.0  0.46733  0.59785  0.43832  1.0000
  C   C442      1.0  0.45097  0.39658  0.38807  1.0000
  H   H758      1.0  0.42081  0.40790  0.40720  1.0000
  H   H759      1.0  0.23194  0.64394  0.25943  1.0000
  H   H760      1.0  0.48652  0.36275  0.34266  1.0000
  C   C443      1.0  0.21851  0.64428  0.27248  1.0000
  Fe  Fe70      1.0  0.37461  0.32966  0.38688  1.0000
  H   H761      1.0  0.15228  0.63507  0.28537  1.0000
  C   C444      1.0  0.34129  0.33444  0.47398  1.0000
  H   H762      1.0  0.45164  0.56874  0.43936  1.0000
  C   C445      1.0  0.46107  0.33800  0.39011  1.0000
  C   C446      1.0  0.18354  0.64542  0.30627  1.0000
  C   C447      1.0  0.39225  0.62257  0.27485  1.0000
  H   H763      1.0  0.40460  0.33444  0.29301  1.0000
  H   H764      1.0  0.19243  0.60020  0.26374  1.0000
  H   H765      1.0  0.38871  0.33474  0.31960  1.0000
  H   H766      1.0  0.48745  0.57579  0.43237  1.0000
  H   H767      1.0  0.47907  0.61678  0.48699  1.0000
  C   C448      1.0  0.47557  0.58183  0.44557  1.0000
  C   C449      1.0  0.42172  0.53383  0.48693  1.0000
  C   C450      1.0  0.47428  0.42518  0.40698  1.0000
  H   H768      1.0  0.28214  0.33383  0.30902  1.0000
  C   C451      1.0  0.48901  0.55608  0.36808  1.0000
  H   H769      1.0  0.46152  0.43896  0.40322  1.0000
  C   C452      1.0  0.39515  0.38207  0.48337  1.0000
  H   H770      1.0  0.47849  0.39165  0.41863  1.0000
  H   H771      1.0  0.36340  0.48325  0.47589  1.0000
  C   C453      1.0  0.14157  0.64407  0.25500  1.0000
  C   C454      1.0  0.18118  0.63253  0.24794  1.0000
  H   H772      1.0  0.47887  0.49090  0.32820  1.0000
  H   H773      1.0  0.27357  0.63953  0.31450  1.0000
  H   H774      1.0  0.43652  0.33429  0.30386  1.0000
  H   H775      1.0  0.35974  0.60397  0.27878  1.0000
  C   C455      1.0  0.35206  0.61755  0.26789  1.0000
  C   C456      1.0  0.40312  0.33885  0.30820  1.0000
  C   C457      1.0  0.33828  0.63363  0.28127  1.0000
  C   C458      1.0  0.38391  0.63482  0.25453  1.0000
  H   H776      1.0  0.48531  0.43081  0.41315  1.0000
  H   H777      1.0  0.32563  0.64446  0.27332  1.0000
  C   C459      1.0  0.37466  0.47457  0.48644  1.0000
  C   C460      1.0  0.48327  0.35586  0.35941  1.0000
  H   H778      1.0  0.37703  0.65133  0.25683  1.0000
  C   C461      1.0  0.39254  0.58933  0.24741  1.0000
  H   H779      1.0  0.30979  0.34023  0.46617  1.0000
  H   H780      1.0  0.26375  0.32826  0.34566  1.0000
  Fe  Fe71      1.0  0.29764  0.63331  0.24116  1.0000
  H   H781      1.0  0.39793  0.63601  0.24123  1.0000
  H   H782      1.0  0.46664  0.32460  0.31600  1.0000
  Fe  Fe72      1.0  0.43123  0.56517  0.54978  1.0000
  S   S135      1.0  0.46432  0.55329  0.53293  1.0000
  S   S136      1.0  0.41451  0.59947  0.54603  1.0000
  Fe  Fe73      1.0  0.42347  0.52092  0.57091  1.0000
  S   S137      1.0  0.45587  0.50510  0.55633  1.0000
  S   S138      1.0  0.39692  0.50594  0.59251  1.0000
  Fe  Fe74      1.0  0.46714  0.53065  0.56388  1.0000
  H   H783      1.0  0.36082  0.33325  0.59287  1.0000
  Fe  Fe75      1.0  0.45029  0.52894  0.52668  1.0000
  H   H784      1.0  0.39407  0.44663  0.54185  1.0000
  S   S139      1.0  0.43511  0.54435  0.58132  1.0000
  S   S140      1.0  0.41684  0.54283  0.54074  1.0000
  Fe  Fe76      1.0  0.41418  0.39825  0.56255  1.0000
  S   S141      1.0  0.42906  0.41329  0.52973  1.0000
  S   S142      1.0  0.39154  0.41450  0.58730  1.0000
  Fe  Fe77      1.0  0.41529  0.39138  0.51938  1.0000
  H   H785      1.0  0.43886  0.47617  0.51310  1.0000
  Fe  Fe78      1.0  0.45630  0.38577  0.53377  1.0000
  S   S143      1.0  0.39812  0.37871  0.55175  1.0000
  S   S144      1.0  0.44264  0.37234  0.56767  1.0000
  H   H786      1.0  0.39059  0.51575  0.51983  1.0000
  H   H787      1.0  0.37142  0.50259  0.49778  1.0000
  H   H788      1.0  0.32087  0.35801  0.63058  1.0000
  C   C462      1.0  0.26385  0.62758  0.70683  1.0000
  H   H789      1.0  0.31641  0.33614  0.65102  1.0000
  S   S145      1.0  0.34908  0.63933  0.67420  1.0000
  C   C463      1.0  0.40700  0.47820  0.50926  1.0000
  C   C464      1.0  0.29587  0.61038  0.72998  1.0000
  H   H790      1.0  0.36473  0.42967  0.54503  1.0000
  H   H791      1.0  0.42460  0.45888  0.53380  1.0000
  H   H792      1.0  0.39191  0.44352  0.51711  1.0000
  H   H793      1.0  0.35505  0.45368  0.55426  1.0000
  H   H794      1.0  0.25365  0.65468  0.65553  1.0000
  C   C465      1.0  0.39656  0.48024  0.59090  1.0000
  C   C466      1.0  0.41374  0.46800  0.57941  1.0000
  C   C467      1.0  0.41254  0.44759  0.57825  1.0000
  C   C468      1.0  0.39415  0.43958  0.58853  1.0000
  C   C469      1.0  0.37716  0.45179  0.60010  1.0000
  C   C470      1.0  0.37836  0.47203  0.60128  1.0000
  H   H795      1.0  0.42794  0.47416  0.57156  1.0000
  H   H796      1.0  0.42586  0.43797  0.56966  1.0000
  H   H797      1.0  0.36298  0.44557  0.60816  1.0000
  H   H798      1.0  0.36510  0.48137  0.61023  1.0000
  H   H799      1.0  0.41938  0.61961  0.70013  1.0000
  H   H800      1.0  0.39370  0.55203  0.65019  1.0000
  C   C471      1.0  0.30114  0.61795  0.70810  1.0000
  C   C472      1.0  0.40576  0.62794  0.69248  1.0000
  H   H801      1.0  0.32583  0.34566  0.58644  1.0000
  H   H802      1.0  0.31559  0.64896  0.73370  1.0000
  C   C473      1.0  0.41054  0.60949  0.56880  1.0000
  C   C474      1.0  0.42459  0.60121  0.58260  1.0000
  C   C475      1.0  0.42090  0.60875  0.60112  1.0000
  C   C476      1.0  0.40288  0.62426  0.60618  1.0000
  C   C477      1.0  0.38892  0.63278  0.59228  1.0000
  C   C478      1.0  0.39287  0.62552  0.57349  1.0000
  H   H803      1.0  0.43844  0.58910  0.57892  1.0000
  H   H804      1.0  0.43175  0.60209  0.61181  1.0000
  C   C479      1.0  0.34132  0.35106  0.65215  1.0000
  H   H805      1.0  0.38203  0.63203  0.56278  1.0000
  H   H806      1.0  0.38968  0.32633  0.61093  1.0000
  C   C480      1.0  0.47507  0.60103  0.49498  1.0000
  H   H807      1.0  0.41892  0.48718  0.53282  1.0000
  C   C481      1.0  0.28515  0.62684  0.69652  1.0000
  C   C482      1.0  0.31522  0.33888  0.60104  1.0000
  H   H808      1.0  0.35489  0.33911  0.65731  1.0000
  H   H809      1.0  0.33809  0.61101  0.62073  1.0000
  H   H810      1.0  0.37501  0.64477  0.59605  1.0000
  C   C483      1.0  0.44198  0.65154  0.68307  1.0000
  H   H811      1.0  0.46822  0.62433  0.68494  1.0000
  H   H812      1.0  0.47108  0.64294  0.65990  1.0000
  H   H813      1.0  0.41012  0.35795  0.50638  1.0000
  S   S146      1.0  0.48989  0.38993  0.51907  1.0000
  H   H814      1.0  0.38542  0.47993  0.55160  1.0000
  H   H815      1.0  0.31760  0.61662  0.70021  1.0000
  H   H816      1.0  0.33036  0.35440  0.66703  1.0000
  H   H817      1.0  0.36008  0.48665  0.54609  1.0000
  H   H818      1.0  0.35861  0.35135  0.50620  1.0000
  C   C484      1.0  0.42301  0.47484  0.52335  1.0000
  C   C485      1.0  0.37021  0.48573  0.50500  1.0000
  Fe  Fe79      1.0  0.42764  0.35384  0.55411  1.0000
  H   H819      1.0  0.33961  0.36855  0.49110  1.0000
  H   H820      1.0  0.37925  0.51647  0.54650  1.0000
  C   C486      1.0  0.35693  0.34074  0.60672  1.0000
  H   H821      1.0  0.30488  0.33139  0.59590  1.0000
  C   C487      1.0  0.37685  0.48770  0.53850  1.0000
  S   S147      1.0  0.29160  0.63793  0.66941  1.0000
  H   H822      1.0  0.34680  0.36586  0.64288  1.0000
  H   H823      1.0  0.35324  0.48642  0.51301  1.0000
  Fe  Fe80      1.0  0.36620  0.65206  0.64164  1.0000
  H   H824      1.0  0.48558  0.33171  0.51253  1.0000
  N   N32       1.0  0.38459  0.47620  0.52057  1.0000
  H   H825      1.0  0.41869  0.54283  0.49892  1.0000
  H   H826      1.0  0.47887  0.40294  0.55949  1.0000
  H   H827      1.0  0.25141  0.63386  0.69791  1.0000
  S   S148      1.0  0.44386  0.36489  0.52055  1.0000
  H   H828      1.0  0.35155  0.45217  0.52870  1.0000
  H   H829      1.0  0.45357  0.62435  0.66671  1.0000
  S   S149      1.0  0.39737  0.63098  0.63092  1.0000
  H   H830      1.0  0.32894  0.33113  0.52786  1.0000
  C   C488      1.0  0.38439  0.45299  0.52947  1.0000
  H   H831      1.0  0.46120  0.60382  0.50810  1.0000
  N   N33       1.0  0.34272  0.32894  0.62508  1.0000
  C   C489      1.0  0.45954  0.63505  0.67278  1.0000
  H   H832      1.0  0.36216  0.52117  0.52795  1.0000
  C   C490      1.0  0.37715  0.51163  0.53267  1.0000
  H   H833      1.0  0.39561  0.34025  0.54221  1.0000
  H   H834      1.0  0.34859  0.35731  0.60130  1.0000
  C   C491      1.0  0.36247  0.44723  0.53984  1.0000
  H   H835      1.0  0.37749  0.34842  0.62387  1.0000
  H   H836      1.0  0.40697  0.57388  0.64060  1.0000
  Fe  Fe81      1.0  0.31945  0.65378  0.66168  1.0000
  C   C492      1.0  0.32923  0.33926  0.51103  1.0000
  C   C493      1.0  0.37864  0.34201  0.60998  1.0000
  H   H837      1.0  0.36140  0.33298  0.54128  1.0000
  C   C494      1.0  0.32949  0.34333  0.63964  1.0000
  N   N34       1.0  0.36469  0.56867  0.62137  1.0000
  C   C495      1.0  0.35951  0.57784  0.59977  1.0000
  C   C496      1.0  0.34661  0.57762  0.63751  1.0000
  C   C497      1.0  0.36770  0.54483  0.62676  1.0000
  C   C498      1.0  0.38508  0.57448  0.62141  1.0000
  C   C499      1.0  0.37492  0.56831  0.58153  1.0000
  C   C500      1.0  0.34280  0.60182  0.63576  1.0000
  C   C501      1.0  0.34939  0.53570  0.62481  1.0000
  C   C502      1.0  0.39149  0.56923  0.64301  1.0000
  H   H838      1.0  0.34321  0.57649  0.59973  1.0000
  H   H839      1.0  0.35944  0.59517  0.59512  1.0000
  H   H840      1.0  0.34872  0.56958  0.65386  1.0000
  H   H841      1.0  0.33137  0.57445  0.63641  1.0000
  H   H842      1.0  0.38259  0.53757  0.61690  1.0000
  H   H843      1.0  0.36986  0.53838  0.64330  1.0000
  H   H844      1.0  0.39870  0.56646  0.61078  1.0000
  H   H845      1.0  0.38433  0.59164  0.61490  1.0000
  H   H846      1.0  0.37510  0.55128  0.58338  1.0000
  H   H847      1.0  0.36984  0.57676  0.56645  1.0000
  H   H848      1.0  0.39127  0.57048  0.57962  1.0000
  H   H849      1.0  0.32946  0.60632  0.64872  1.0000
  H   H850      1.0  0.35671  0.60694  0.63752  1.0000
  H   H851      1.0  0.33453  0.54023  0.63617  1.0000
  H   H852      1.0  0.35392  0.51809  0.62860  1.0000
  H   H853      1.0  0.34639  0.54022  0.60857  1.0000
  H   H854      1.0  0.38002  0.57833  0.65425  1.0000
  H   H855      1.0  0.38620  0.35278  0.59596  1.0000
  H   H856      1.0  0.39775  0.65114  0.66519  1.0000
  C   C503      1.0  0.25854  0.62090  0.72888  1.0000
  S   S150      1.0  0.46146  0.51764  0.49603  1.0000
  H   H857      1.0  0.42239  0.63406  0.66034  1.0000
  C   C504      1.0  0.41227  0.64374  0.67173  1.0000
  H   H858      1.0  0.33501  0.36665  0.51888  1.0000
  H   H859      1.0  0.30465  0.35168  0.60870  1.0000
  H   H860      1.0  0.40736  0.49387  0.49842  1.0000
  C   C505      1.0  0.38995  0.32675  0.55302  1.0000
  H   H861      1.0  0.41382  0.46666  0.49874  1.0000
  H   H862      1.0  0.39963  0.61564  0.68878  1.0000
  H   H863      1.0  0.39262  0.63566  0.70370  1.0000
  H   H864      1.0  0.31232  0.34666  0.51056  1.0000
  C   C506      1.0  0.34147  0.35735  0.50632  1.0000
  H   H865      1.0  0.43754  0.64459  0.70027  1.0000
  H   H866      1.0  0.21556  0.64770  0.65734  1.0000
  H   H867      1.0  0.24204  0.62221  0.73687  1.0000
  H   H868      1.0  0.15118  0.65659  0.71230  1.0000
  H   H869      1.0  0.45048  0.65099  0.63495  1.0000
  H   H870      1.0  0.47726  0.45933  0.50782  1.0000
  H   H871      1.0  0.48820  0.59069  0.50233  1.0000
  H   H872      1.0  0.41115  0.32843  0.49017  1.0000
  C   C507      1.0  0.48866  0.45638  0.49303  1.0000
  H   H873      1.0  0.46075  0.57795  0.48990  1.0000
  H   H874      1.0  0.37228  0.45798  0.49176  1.0000
  C   C508      1.0  0.40359  0.36121  0.49248  1.0000
  S   S151      1.0  0.39750  0.40329  0.49289  1.0000
  H   H875      1.0  0.03292  0.47637  0.82030  1.0000
  Fe  Fe82      1.0  0.09432  0.38097  0.91785  1.0000
  S   S152      1.0  0.11601  0.38252  0.88594  1.0000
  S   S153      1.0  0.10226  0.39112  0.94370  1.0000
  Fe  Fe83      1.0  0.05806  0.37333  0.90281  1.0000
  S   S154      1.0  0.07640  0.37510  0.86944  1.0000
  S   S155      1.0  0.02517  0.36651  0.91417  1.0000
  Fe  Fe84      1.0  0.10332  0.35488  0.88451  1.0000
  C   C509      1.0  0.06328  0.34038  0.81831  1.0000
  Fe  Fe85      1.0  0.08705  0.40255  0.87421  1.0000
  S   S156      1.0  0.08522  0.43503  0.85298  1.0000
  C   C510      1.0  0.13569  0.62781  0.89718  1.0000
  S   S157      1.0  0.06612  0.40250  0.90619  1.0000
  Fe  Fe86      1.0  0.05367  0.54480  0.93468  1.0000
  S   S158      1.0  0.03944  0.57164  0.91093  1.0000
  S   S159      1.0  0.03945  0.53959  0.96964  1.0000
  Fe  Fe87      1.0  0.08486  0.52389  0.90086  1.0000
  S   S160      1.0  0.07351  0.54870  0.87426  1.0000
  S   S161      1.0  0.11067  0.49539  0.89659  1.0000
  Fe  Fe88      1.0  0.07323  0.57155  0.89353  1.0000
  S   S162      1.0  0.08414  0.60200  0.87618  1.0000
  Fe  Fe89      1.0  0.04095  0.54655  0.89374  1.0000
  S   S163      1.0  0.01486  0.54777  0.87765  1.0000
  S   S164      1.0  0.08749  0.54675  0.91875  1.0000
  S   S165      1.0  0.05230  0.51974  0.91879  1.0000
  C   C511      1.0  0.14201  0.60970  0.84090  1.0000
  C   C512      1.0  0.05037  0.36334  0.81570  1.0000
  H   H876      1.0  0.08032  0.34117  0.81556  1.0000
  S   S166      1.0  0.22461  0.62736  0.81370  1.0000
  H   H877      1.0  0.99770  0.47930  0.91984  1.0000
  H   H878      1.0  0.07746  0.33721  0.85200  1.0000
  H   H879      1.0  0.05951  0.44754  0.90695  1.0000
  H   H880      1.0  0.02089  0.43787  0.90606  1.0000
  H   H881      1.0  0.01862  0.50778  0.90914  1.0000
  C   C513      1.0  0.11171  0.59917  0.86741  1.0000
  C   C514      1.0  0.12553  0.58472  0.87952  1.0000
  C   C515      1.0  0.14756  0.58308  0.87250  1.0000
  C   C516      1.0  0.11997  0.61178  0.84820  1.0000
  H   H882      1.0  0.11924  0.57510  0.89446  1.0000
  H   H883      1.0  0.15820  0.57212  0.88206  1.0000
  H   H884      1.0  0.10928  0.62288  0.83877  1.0000
  H   H885      1.0  0.06909  0.49444  0.96340  1.0000
  H   H886      1.0  0.03049  0.39796  0.96820  1.0000
  H   H887      1.0  0.00249  0.39649  0.94142  1.0000
  H   H888      1.0  0.12623  0.64049  0.90546  1.0000
  H   H889      1.0  0.01144  0.50367  0.84224  1.0000
  H   H890      1.0  0.20415  0.64683  0.88001  1.0000
  S   S167      1.0  0.08418  0.35146  0.91776  1.0000
  H   H891      1.0  0.07839  0.55565  0.96037  1.0000
  H   H892      1.0  0.16706  0.62739  0.90050  1.0000
  S   S168      1.0  0.17729  0.64770  0.80268  1.0000
  C   C517      1.0  0.09262  0.45195  0.86472  1.0000
  C   C518      1.0  0.10517  0.44350  0.87994  1.0000
  C   C519      1.0  0.11106  0.45695  0.88931  1.0000
  C   C520      1.0  0.10375  0.47889  0.88412  1.0000
  C   C521      1.0  0.09081  0.48741  0.86924  1.0000
  C   C522      1.0  0.08560  0.47398  0.85925  1.0000
  H   H893      1.0  0.11066  0.42658  0.88433  1.0000
  H   H894      1.0  0.12102  0.45026  0.90086  1.0000
  H   H895      1.0  0.08509  0.50436  0.86517  1.0000
  H   H896      1.0  0.07603  0.48072  0.84744  1.0000
  C   C523      1.0  0.06072  0.42206  0.98557  1.0000
  C   C524      1.0  0.12075  0.34011  0.83352  1.0000
  C   C525      1.0  0.05219  0.54744  0.98536  1.0000
  H   H897      1.0  0.09640  0.56524  0.98348  1.0000
  H   H898      1.0  0.17379  0.32582  0.85410  1.0000
  C   C526      1.0  0.01325  0.36957  0.89286  1.0000
  C   C527      1.0  0.01997  0.38264  0.87344  1.0000
  C   C528      1.0  0.01057  0.38489  0.85635  1.0000
  H   H899      1.0  0.99216  0.58995  0.89977  1.0000
  H   H900      1.0  0.33679  0.65448  0.75742  1.0000
  H   H901      1.0  0.03243  0.39099  0.87158  1.0000
  H   H902      1.0  0.03918  0.46193  0.92393  1.0000
  C   C529      1.0  0.10169  0.37246  0.96761  1.0000
  H   H903      1.0  0.05181  0.44257  0.81486  1.0000
  H   H904      1.0  0.05336  0.37206  0.82623  1.0000
  C   C530      1.0  0.99699  0.35885  0.89523  1.0000
  C   C531      1.0  0.04497  0.46804  0.96144  1.0000
  C   C532      1.0  0.00594  0.50905  0.90137  1.0000
  H   H905      1.0  0.07893  0.47985  0.93051  1.0000
  C   C533      1.0  0.05660  0.45706  0.91905  1.0000
  C   C534      1.0  0.32791  0.64152  0.76180  1.0000
  C   C535      1.0  0.08424  0.48332  0.95913  1.0000
  H   H906      1.0  0.09978  0.34655  0.95523  1.0000
  H   H907      1.0  0.00101  0.47833  0.81816  1.0000
  H   H908      1.0  0.16607  0.61694  0.87921  1.0000
  H   H909      1.0  0.01374  0.46790  0.95643  1.0000
  H   H910      1.0  0.30171  0.63287  0.75545  1.0000
  Fe  Fe90      1.0  0.19150  0.64021  0.77071  1.0000
  S   S169      1.0  0.26836  0.60662  0.76824  1.0000
  H   H911      1.0  0.09036  0.47421  0.97345  1.0000
  C   C536      1.0  0.99432  0.37420  0.85870  1.0000
  H   H912      1.0  0.03274  0.49643  0.85670  1.0000
  Fe  Fe91      1.0  0.23471  0.62138  0.78081  1.0000
  C   C537      1.0  0.03688  0.43651  0.82192  1.0000
  C   C538      1.0  0.01726  0.43763  0.89090  1.0000
  C   C539      1.0  0.02533  0.45782  0.96615  1.0000
  H   H913      1.0  0.05163  0.46809  0.83649  1.0000
  Fe  Fe92      1.0  0.19550  0.61554  0.81505  1.0000
  H   H914      1.0  0.02450  0.44554  0.81291  1.0000
  H   H915      1.0  0.09870  0.45947  0.94053  1.0000
  H   H916      1.0  0.14849  0.64622  0.84831  1.0000
  C   C540      1.0  0.15877  0.63048  0.88723  1.0000
  C   C541      1.0  0.12324  0.33795  0.81273  1.0000
  C   C542      1.0  0.99842  0.46521  0.85272  1.0000
  C   C543      1.0  0.08246  0.46893  0.94528  1.0000
  C   C544      1.0  0.00113  0.52679  0.88541  1.0000
  H   H917      1.0  0.03770  0.50700  0.82907  1.0000
  H   H918      1.0  0.04041  0.41987  0.81997  1.0000
  C   C545      1.0  0.09952  0.35178  0.96919  1.0000
  C   C546      1.0  0.07413  0.43883  0.97316  1.0000
  H   H919      1.0  0.05995  0.41137  0.97582  1.0000
  S   S170      1.0  0.18343  0.59309  0.84488  1.0000
  C   C547      1.0  0.15582  0.59550  0.85315  1.0000
  H   H920      1.0  0.06334  0.47132  0.91092  1.0000
  C   C548      1.0  0.03435  0.47407  0.83686  1.0000
  H   H921      1.0  0.13592  0.61256  0.90902  1.0000
  N   N35       1.0  0.02199  0.45802  0.85174  1.0000
  H   H922      1.0  0.01882  0.47036  0.87943  1.0000
  C   C549      1.0  0.06699  0.44338  0.93769  1.0000
  H   H923      1.0  0.01593  0.39479  0.84124  1.0000
  H   H924      1.0  0.04420  0.42776  0.85238  1.0000
  C   C550      1.0  0.06096  0.33436  0.85609  1.0000
  H   H925      1.0  0.19319  0.32614  0.81724  1.0000
  H   H926      1.0  0.09054  0.43005  0.96780  1.0000
  H   H927      1.0  0.05547  0.37206  0.79927  1.0000
  H   H928      1.0  0.32322  0.63695  0.77922  1.0000
  N   N36       1.0  0.05697  0.32565  0.83920  1.0000
  H   H929      1.0  0.00795  0.32632  0.82933  1.0000
  C   C551      1.0  0.02846  0.49643  0.84180  1.0000
  S   S171      1.0  0.20712  0.60680  0.78341  1.0000
  C   C552      1.0  0.02997  0.43667  0.84569  1.0000
  H   H930      1.0  0.04219  0.48283  0.94921  1.0000
  H   H931      1.0  0.12114  0.35195  0.80025  1.0000
  H   H932      1.0  0.05030  0.34996  0.85733  1.0000
  H   H933      1.0  0.99981  0.43983  0.89353  1.0000
  H   H934      1.0  0.26789  0.65159  0.75290  1.0000
  H   H935      1.0  0.27391  0.64563  0.80925  1.0000
  H   H936      1.0  0.05943  0.42940  0.94403  1.0000
  H   H937      1.0  0.18461  0.63676  0.84757  1.0000
  H   H938      1.0  0.04456  0.47363  0.97577  1.0000
  H   H939      1.0  0.30833  0.60340  0.73883  1.0000
  C   C553      1.0  0.02593  0.45557  0.87352  1.0000
  H   H940      1.0  0.04326  0.45281  0.87305  1.0000
  H   H941      1.0  0.14825  0.61905  0.82580  1.0000
  H   H942      1.0  0.21766  0.63546  0.85782  1.0000
  N   N37       1.0  0.16210  0.65122  0.87208  1.0000
  H   H943      1.0  0.33918  0.62761  0.75645  1.0000
  H   H944      1.0  0.11688  0.35572  0.83705  1.0000
  C   C554      1.0  0.27709  0.64533  0.79226  1.0000
  H   H945      1.0  0.20140  0.62071  0.87901  1.0000
  H   H946      1.0  0.02885  0.44170  0.96305  1.0000
  N   N38       1.0  0.14941  0.53632  0.83625  1.0000
  C   C555      1.0  0.16355  0.53426  0.85134  1.0000
  C   C556      1.0  0.16226  0.54190  0.81416  1.0000
  C   C557      1.0  0.14387  0.51492  0.83973  1.0000
  C   C558      1.0  0.12974  0.55299  0.84096  1.0000
  C   C559      1.0  0.15429  0.52676  0.87506  1.0000
  C   C560      1.0  0.17072  0.56262  0.80883  1.0000
  C   C561      1.0  0.12961  0.51299  0.82590  1.0000
  C   C562      1.0  0.11737  0.56390  0.82304  1.0000
  H   H947      1.0  0.17893  0.52313  0.84738  1.0000
  H   H948      1.0  0.16781  0.54973  0.84990  1.0000
  H   H949      1.0  0.15330  0.54326  0.80196  1.0000
  H   H950      1.0  0.17628  0.52888  0.81126  1.0000
  H   H951      1.0  0.15860  0.50248  0.83765  1.0000
  H   H952      1.0  0.13517  0.51007  0.85617  1.0000
  H   H953      1.0  0.11843  0.54636  0.85508  1.0000
  H   H954      1.0  0.13405  0.56608  0.84518  1.0000
  H   H955      1.0  0.13816  0.53588  0.88024  1.0000
  H   H956      1.0  0.15410  0.50955  0.87919  1.0000
  H   H957      1.0  0.16465  0.52906  0.88450  1.0000
  H   H958      1.0  0.17661  0.56712  0.79149  1.0000
  H   H959      1.0  0.15836  0.57612  0.81359  1.0000
  H   H960      1.0  0.18442  0.56051  0.81626  1.0000
  H   H961      1.0  0.11330  0.52234  0.82992  1.0000
  H   H962      1.0  0.12796  0.49616  0.82945  1.0000
  H   H963      1.0  0.13636  0.51718  0.80878  1.0000
  H   H964      1.0  0.10011  0.56705  0.83012  1.0000
  H   H965      1.0  0.11947  0.55474  0.81092  1.0000
  H   H966      1.0  0.12115  0.57980  0.81532  1.0000
  C   C563      1.0  0.07130  0.55456  0.97693  1.0000
  H   H967      1.0  0.01777  0.42669  0.85261  1.0000
  H   H968      1.0  0.28860  0.63040  0.79022  1.0000
  H   H969      1.0  0.03311  0.36397  0.81818  1.0000
  H   H970      1.0  0.26193  0.64485  0.78867  1.0000
  H   H971      1.0  0.08372  0.43649  0.93085  1.0000
  H   H972      1.0  0.12748  0.62663  0.88524  1.0000
  S   S172      1.0  0.22005  0.65420  0.76556  1.0000
  C   C564      1.0  0.20258  0.63699  0.86978  1.0000
  N   N39       1.0  0.06646  0.45467  0.95464  1.0000
  H   H973      1.0  0.03751  0.36121  0.96851  1.0000
  C   C565      1.0  0.30882  0.64716  0.75092  1.0000
  H   H974      1.0  0.02481  0.42170  0.88758  1.0000
  C   C566      1.0  0.18399  0.64728  0.85822  1.0000
  H   H975      1.0  0.09592  0.49337  0.94978  1.0000
  C   C567      1.0  0.99406  0.49296  0.90745  1.0000
  H   H976      1.0  0.17925  0.33030  0.78641  1.0000
  H   H977      1.0  0.01699  0.45701  0.98292  1.0000
  H   H978      1.0  0.06230  0.33447  0.80474  1.0000
  H   H979      1.0  0.02349  0.33959  0.84828  1.0000
  S   S173      1.0  0.17044  0.64639  0.74768  1.0000
  H   H980      1.0  0.07519  0.44697  0.98517  1.0000
  C   C568      1.0  0.27458  0.61258  0.74051  1.0000
  H   H981      1.0  0.06318  0.33046  0.96852  1.0000
  H   H982      1.0  0.06167  0.32866  0.88933  1.0000
  H   H983      1.0  0.00789  0.35301  0.97060  1.0000
  H   H984      1.0  0.03225  0.32560  0.81119  1.0000
  C   C569      1.0  0.03745  0.36473  0.98376  1.0000
  H   H985      1.0  0.10503  0.39444  0.98433  1.0000
  H   H986      1.0  0.05434  0.36499  0.98288  1.0000
  C   C570      1.0  0.02460  0.38757  0.98345  1.0000
  C   C571      1.0  0.10239  0.37880  0.98562  1.0000
  H   H987      1.0  0.00203  0.32772  0.98613  1.0000
  C   C572      1.0  0.99988  0.34479  0.98606  1.0000
  H   H988      1.0  0.00748  0.38869  0.98453  1.0000
  C   C573      1.0  0.03377  0.32462  0.84429  1.0000
  S   S174      1.0  0.12220  0.32420  0.87544  1.0000
  H   H989      1.0  0.99198  0.34842  0.91012  1.0000
  H   H990      1.0  0.99171  0.47916  0.86013  1.0000
  N   N40       1.0  0.38976  0.98579  0.00570  1.0000
  C   C574      1.0  0.47448  0.91598  0.08899  1.0000
  C   C575      1.0  0.38611  0.78812  0.99468  1.0000
  H   H991      1.0  0.34004  0.79697  0.12718  1.0000
  H   H992      1.0  0.28016  0.68256  0.14396  1.0000
  S   S175      1.0  0.17757  0.74110  0.19140  1.0000
  Fe  Fe93      1.0  0.30748  0.73616  0.12476  1.0000
  H   H993      1.0  0.25870  0.67909  0.21573  1.0000
  Fe  Fe94      1.0  0.31005  0.77610  0.09105  1.0000
  S   S176      1.0  0.31736  0.76631  0.12353  1.0000
  S   S177      1.0  0.32826  0.79549  0.06244  1.0000
  Fe  Fe95      1.0  0.28255  0.77821  0.13464  1.0000
  S   S178      1.0  0.26742  0.80053  0.15665  1.0000
  S   S179      1.0  0.27595  0.79048  0.10214  1.0000
  H   H994      1.0  0.47714  0.95293  0.05871  1.0000
  H   H995      1.0  0.28848  0.83381  0.08542  1.0000
  H   H996      1.0  0.37608  0.96228  0.03118  1.0000
  Fe  Fe96      1.0  0.47295  0.83760  0.04334  1.0000
  S   S180      1.0  0.47323  0.85491  0.00992  1.0000
  Fe  Fe97      1.0  0.42536  0.84082  0.05366  1.0000
  S   S181      1.0  0.42121  0.85887  0.02104  1.0000
  S   S182      1.0  0.39982  0.82989  0.08076  1.0000
  Fe  Fe98      1.0  0.45030  0.83544  0.01022  1.0000
  H   H997      1.0  0.27785  0.84199  0.15267  1.0000
  Fe  Fe99      1.0  0.44448  0.87672  0.02368  1.0000
  S   S183      1.0  0.44442  0.91124  0.01016  1.0000
  S   S184      1.0  0.45265  0.81595  0.04258  1.0000
  S   S185      1.0  0.44602  0.86094  0.05733  1.0000
  C   C576      1.0  0.21718  0.70166  0.11120  1.0000
  H   H998      1.0  0.26960  0.68216  0.09415  1.0000
  C   C577      1.0  0.26534  0.67064  0.18540  1.0000
  C   C578      1.0  0.33506  0.84779  0.10586  1.0000
  H   H999      1.0  0.46194  0.95731  0.09651  1.0000
  C   C579      1.0  0.43970  0.92585  0.02960  1.0000
  C   C580      1.0  0.44778  0.94431  0.02450  1.0000
  C   C581      1.0  0.44272  0.95746  0.03892  1.0000
  C   C582      1.0  0.43017  0.95179  0.05889  1.0000
  C   C583      1.0  0.42254  0.93293  0.06434  1.0000
  C   C584      1.0  0.42720  0.91999  0.04962  1.0000
  H   H1000     1.0  0.45795  0.94841  0.00935  1.0000
  C   C585      1.0  0.24966  0.67989  0.20370  1.0000
  H   H1001     1.0  0.41274  0.92850  0.07979  1.0000
  H   H1002     1.0  0.42075  0.90577  0.05362  1.0000
  H   H1003     1.0  0.22473  0.68685  0.17720  1.0000
  H   H1004     1.0  0.20364  0.73448  0.11215  1.0000
  C   C586      1.0  0.23581  0.68685  0.10628  1.0000
  C   C587      1.0  0.47831  0.95814  0.09660  1.0000
  H   H1005     1.0  0.35856  0.98261  0.00452  1.0000
  H   H1006     1.0  0.46280  0.93026  0.08373  1.0000
  H   H1007     1.0  0.24256  0.69686  0.19859  1.0000
  C   C588      1.0  0.34947  0.80385  0.06660  1.0000
  C   C589      1.0  0.35629  0.82186  0.05301  1.0000
  C   C590      1.0  0.37268  0.82929  0.05656  1.0000
  C   C591      1.0  0.38214  0.81879  0.07384  1.0000
  C   C592      1.0  0.37568  0.80049  0.08711  1.0000
  C   C593      1.0  0.35949  0.79291  0.08338  1.0000
  H   H1008     1.0  0.34862  0.83029  0.03993  1.0000
  H   H1009     1.0  0.37746  0.84357  0.04641  1.0000
  H   H1010     1.0  0.38300  0.79233  0.10048  1.0000
  H   H1011     1.0  0.35470  0.77870  0.09359  1.0000
  H   H1012     1.0  0.29241  0.85760  0.08905  1.0000
  C   C594      1.0  0.23756  0.72967  0.10050  1.0000
  H   H1013     1.0  0.38218  0.65832  0.21463  1.0000
  H   H1014     1.0  0.42090  0.74774  0.01921  1.0000
  C   C595      1.0  0.29945  0.85865  0.12641  1.0000
  S   S186      1.0  0.23888  0.75609  0.09845  1.0000
  C   C596      1.0  0.16497  0.72391  0.18569  1.0000
  C   C597      1.0  0.17400  0.71557  0.16757  1.0000
  C   C598      1.0  0.16453  0.70146  0.16277  1.0000
  C   C599      1.0  0.14569  0.69612  0.17575  1.0000
  C   C600      1.0  0.13639  0.70482  0.19365  1.0000
  C   C601      1.0  0.14618  0.71853  0.19879  1.0000
  H   H1015     1.0  0.18844  0.71982  0.15731  1.0000
  H   H1016     1.0  0.17162  0.69495  0.14882  1.0000
  H   H1017     1.0  0.12179  0.70071  0.20368  1.0000
  H   H1018     1.0  0.13907  0.72514  0.21268  1.0000
  H   H1019     1.0  0.23683  0.67110  0.21166  1.0000
  H   H1020     1.0  0.21645  0.79184  0.22367  1.0000
  C   C602      1.0  0.23941  0.79610  0.19448  1.0000
  C   C603      1.0  0.25849  0.78706  0.18248  1.0000
  C   C604      1.0  0.26993  0.76732  0.19104  1.0000
  C   C605      1.0  0.26252  0.75689  0.21183  1.0000
  C   C606      1.0  0.36749  0.75273  0.02355  1.0000
  H   H1021     1.0  0.23047  0.81128  0.18782  1.0000
  H   H1022     1.0  0.28466  0.76026  0.18179  1.0000
  H   H1023     1.0  0.27154  0.74183  0.21861  1.0000
  H   H1024     1.0  0.40252  0.96283  0.03109  1.0000
  H   H1025     1.0  0.44832  0.97209  0.03444  1.0000
  H   H1026     1.0  0.35150  0.84958  0.12996  1.0000
  H   H1027     1.0  0.23049  0.68198  0.15149  1.0000
  H   H1028     1.0  0.33226  0.66141  0.16122  1.0000
  H   H1029     1.0  0.37059  0.82042  0.99924  1.0000
  H   H1030     1.0  0.26974  0.84892  0.12752  1.0000
  C   C607      1.0  0.41486  0.78060  0.04009  1.0000
  H   H1031     1.0  0.26671  0.86880  0.14193  1.0000
  C   C608      1.0  0.31847  0.66375  0.19354  1.0000
  H   H1032     1.0  0.31400  0.84118  0.07457  1.0000
  H   H1033     1.0  0.30807  0.81696  0.14932  1.0000
  H   H1034     1.0  0.35739  0.66872  0.20641  1.0000
  Fe  Fe100     1.0  0.26932  0.75845  0.10548  1.0000
  H   H1035     1.0  0.30465  0.86548  0.13720  1.0000
  C   C609      1.0  0.40338  0.79073  0.02155  1.0000
  S   S187      1.0  0.27334  0.74715  0.13898  1.0000
  H   H1036     1.0  0.32032  0.81467  0.10407  1.0000
  H   H1037     1.0  0.48594  0.92887  0.11883  1.0000
  H   H1038     1.0  0.34285  0.79650  0.15293  1.0000
  H   H1039     1.0  0.34696  0.83457  0.10000  1.0000
  S   S188      1.0  0.30285  0.74495  0.09129  1.0000
  H   H1040     1.0  0.35775  0.74426  0.03785  1.0000
  H   H1041     1.0  0.36099  0.86293  0.10370  1.0000
  H   H1042     1.0  0.35570  0.80068  0.01514  1.0000
  C   C610      1.0  0.32150  0.82493  0.14026  1.0000
  H   H1043     1.0  0.47687  0.96716  0.10881  1.0000
  H   H1044     1.0  0.29754  0.87190  0.11248  1.0000
  C   C611      1.0  0.27339  0.66797  0.14832  1.0000
  H   H1045     1.0  0.33072  0.85898  0.09134  1.0000
  H   H1046     1.0  0.37645  0.97468  0.06124  1.0000
  H   H1047     1.0  0.18256  0.67692  0.20534  1.0000
  C   C612      1.0  0.30807  0.67734  0.20735  1.0000
  S   S189      1.0  0.17829  0.77134  0.23293  1.0000
  H   H1048     1.0  0.19853  0.66865  0.22551  1.0000
  H   H1049     1.0  0.40458  0.77248  0.05409  1.0000
  H   H1050     1.0  0.27118  0.71983  0.08941  1.0000
  H   H1051     1.0  0.40937  0.74893  0.99789  1.0000
  H   H1052     1.0  0.19778  0.82279  0.23624  1.0000
  H   H1053     1.0  0.32396  0.83367  0.15114  1.0000
  C   C613      1.0  0.25609  0.71488  0.09538  1.0000
  C   C614      1.0  0.30043  0.84107  0.08832  1.0000
  H   H1054     1.0  0.35618  0.81320  0.13078  1.0000
  H   H1055     1.0  0.38963  0.80274  0.02718  1.0000
  C   C615      1.0  0.30780  0.82809  0.10884  1.0000
  N   N41       1.0  0.31596  0.83990  0.12033  1.0000
  C   C616      1.0  0.47513  0.89966  0.07617  1.0000
  H   H1056     1.0  0.25142  0.71200  0.16407  1.0000
  C   C617      1.0  0.23150  0.78515  0.21479  1.0000
  H   H1057     1.0  0.25262  0.70906  0.13791  1.0000
  H   H1058     1.0  0.41383  0.80017  0.00888  1.0000
  C   C618      1.0  0.18307  0.67748  0.22155  1.0000
  H   H1059     1.0  0.48559  0.96763  0.08145  1.0000
  H   H1060     1.0  0.22795  0.71964  0.15314  1.0000
  C   C619      1.0  0.31853  0.69378  0.16370  1.0000
  H   H1061     1.0  0.41887  0.79339  0.04514  1.0000
  H   H1062     1.0  0.37765  0.74071  0.01462  1.0000
  H   H1063     1.0  0.29496  0.82001  0.11929  1.0000
  C   C620      1.0  0.23772  0.68546  0.16312  1.0000
  C   C621      1.0  0.30788  0.70743  0.17744  1.0000
  H   H1064     1.0  0.18214  0.69436  0.22137  1.0000
  H   H1065     1.0  0.29488  0.70977  0.20994  1.0000
  N   N42       1.0  0.25621  0.66788  0.16816  1.0000
  C   C622      1.0  0.34129  0.80704  0.13729  1.0000
  C   C623      1.0  0.34637  0.85937  0.11533  1.0000
  C   C624      1.0  0.30292  0.69922  0.19931  1.0000
  H   H1066     1.0  0.48284  0.90423  0.05937  1.0000
  N   N43       1.0  0.19762  0.79280  0.14402  1.0000
  C   C625      1.0  0.20185  0.78567  0.16615  1.0000
  C   C626      1.0  0.18032  0.81247  0.14383  1.0000
  C   C627      1.0  0.21788  0.79804  0.12931  1.0000
  C   C628      1.0  0.19135  0.77488  0.13882  1.0000
  C   C629      1.0  0.22061  0.76689  0.16962  1.0000
  C   C630      1.0  0.15856  0.80930  0.15809  1.0000
  C   C631      1.0  0.21611  0.81161  0.10708  1.0000
  C   C632      1.0  0.18184  0.77971  0.11896  1.0000
  H   H1067     1.0  0.20495  0.79897  0.17127  1.0000
  H   H1068     1.0  0.18777  0.78086  0.17775  1.0000
  H   H1069     1.0  0.17734  0.81997  0.12777  1.0000
  H   H1070     1.0  0.18535  0.82489  0.14863  1.0000
  H   H1071     1.0  0.22551  0.80676  0.13638  1.0000
  H   H1072     1.0  0.22974  0.78326  0.12708  1.0000
  H   H1073     1.0  0.20521  0.76156  0.13683  1.0000
  H   H1074     1.0  0.17989  0.76756  0.15225  1.0000
  H   H1075     1.0  0.21900  0.75264  0.16520  1.0000
  H   H1076     1.0  0.23596  0.77135  0.16104  1.0000
  H   H1077     1.0  0.22109  0.76225  0.18669  1.0000
  H   H1078     1.0  0.15263  0.79677  0.15463  1.0000
  H   H1079     1.0  0.15898  0.80565  0.17511  1.0000
  H   H1080     1.0  0.14670  0.82429  0.15518  1.0000
  H   H1081     1.0  0.20789  0.82822  0.10763  1.0000
  H   H1082     1.0  0.20847  0.80475  0.09846  1.0000
  H   H1083     1.0  0.23232  0.81236  0.09747  1.0000
  H   H1084     1.0  0.19424  0.77542  0.10526  1.0000
  H   H1085     1.0  0.17346  0.79621  0.11435  1.0000
  H   H1086     1.0  0.16971  0.76989  0.12207  1.0000
  C   C633      1.0  0.21803  0.72312  0.10813  1.0000
  C   C634      1.0  0.24294  0.70773  0.15414  1.0000
  C   C635      1.0  0.32399  0.67199  0.17182  1.0000
  H   H1087     1.0  0.48301  0.88344  0.08307  1.0000
  H   H1088     1.0  0.30372  0.72431  0.17124  1.0000
  H   H1089     1.0  0.41309  0.84153  0.98935  1.0000
  H   H1090     1.0  0.33633  0.87473  0.11838  1.0000
  H   H1091     1.0  0.46696  0.90980  0.10568  1.0000
  H   H1092     1.0  0.36932  0.77584  0.03977  1.0000
  H   H1093     1.0  0.45862  0.89870  0.07656  1.0000
  H   H1094     1.0  0.38899  0.75267  0.04236  1.0000
  C   C636      1.0  0.25517  0.69357  0.09806  1.0000
  S   S190      1.0  0.32505  0.70337  0.13635  1.0000
  C   C637      1.0  0.27727  0.85404  0.13774  1.0000
  C   C638      1.0  0.41461  0.75893  0.00564  1.0000
  N   N44       1.0  0.39616  0.77561  0.01310  1.0000
  H   H1095     1.0  0.20219  0.69654  0.11750  1.0000
  H   H1096     1.0  0.27688  0.68140  0.17875  1.0000
  S   S191      1.0  0.13440  0.67773  0.17021  1.0000
  H   H1097     1.0  0.42997  0.76956  0.03553  1.0000
  C   C639      1.0  0.24320  0.76572  0.22365  1.0000
  C   C640      1.0  0.43364  0.76716  0.98972  1.0000
  C   C641      1.0  0.38065  0.76458  0.03053  1.0000
  H   H1098     1.0  0.35618  0.76383  0.01411  1.0000
  S   S192      1.0  0.30143  0.66705  0.23463  1.0000
  C   C642      1.0  0.36615  0.80536  0.99965  1.0000
  H   H1099     1.0  0.39375  0.94001  0.00901  1.0000
  H   H1100     1.0  0.15391  0.65990  0.20922  1.0000
  Fe  Fe101     1.0  0.17313  0.74262  0.22519  1.0000
  S   S193      1.0  0.42360  0.96838  0.07689  1.0000
  S   S194      1.0  0.17339  0.65997  0.11734  1.0000
  H   H1101     1.0  0.44124  0.77608  0.99643  1.0000
  H   H1102     1.0  0.14951  0.68116  0.23447  1.0000
  S   S195      1.0  0.23575  0.65968  0.11128  1.0000
  H   H1103     1.0  0.49052  0.93719  0.03926  1.0000
  H   H1104     1.0  0.23146  0.82014  0.23594  1.0000
  H   H1105     1.0  0.37767  0.95530  0.98973  1.0000
  H   H1106     1.0  0.16150  0.83896  0.23178  1.0000
  C   C643      1.0  0.39373  0.95099  0.99335  1.0000
  C   C644      1.0  0.38718  0.97321  0.02818  1.0000
  C   C645      1.0  0.40271  0.97063  0.99171  1.0000
  H   H1107     1.0  0.41893  0.96452  0.99519  1.0000
  C   C646      1.0  0.37899  0.98593  0.04570  1.0000
  H   H1108     1.0  0.26672  0.66810  0.13470  1.0000
  C   C647      1.0  0.05654  0.92938  0.39942  1.0000
  C   C648      1.0  0.06593  0.93661  0.37837  1.0000
  S   S196      1.0  0.05788  0.97452  0.42839  1.0000
  S   S197      1.0  0.16585  0.68658  0.29233  1.0000
  Fe  Fe102     1.0  0.20085  0.74819  0.25169  1.0000
  Fe  Fe103     1.0  0.08820  0.85576  0.41034  1.0000
  S   S198      1.0  0.10663  0.87140  0.37977  1.0000
  S   S199      1.0  0.09808  0.85140  0.44110  1.0000
  Fe  Fe104     1.0  0.05816  0.84592  0.38863  1.0000
  S   S200      1.0  0.07355  0.86126  0.35611  1.0000
  S   S201      1.0  0.03212  0.82751  0.39890  1.0000
  Fe  Fe105     1.0  0.10408  0.84467  0.36678  1.0000
  S   S202      1.0  0.13271  0.82465  0.34993  1.0000
  Fe  Fe106     1.0  0.07462  0.88671  0.37210  1.0000
  S   S203      1.0  0.06819  0.92209  0.35921  1.0000
  S   S204      1.0  0.08855  0.82759  0.39818  1.0000
  S   S205      1.0  0.05629  0.87266  0.40356  1.0000
  H   H1109     1.0  0.05090  0.91476  0.40409  1.0000
  C   C649      1.0  0.01072  0.83546  0.38605  1.0000
  C   C650      1.0  0.01054  0.85150  0.36773  1.0000
  H   H1110     1.0  0.20606  0.69695  0.31299  1.0000
  H   H1111     1.0  0.99697  0.89879  0.46131  1.0000
  C   C651      1.0  0.14130  0.78797  0.30826  1.0000
  H   H1112     1.0  0.10968  0.96500  0.45210  1.0000
  H   H1113     1.0  0.02386  0.85939  0.36113  1.0000
  H   H1114     1.0  0.21438  0.78706  0.29741  1.0000
  C   C652      1.0  0.14229  0.79556  0.32547  1.0000
  C   C653      1.0  0.08579  0.86183  0.47969  1.0000
  C   C654      1.0  0.04956  0.89137  0.47016  1.0000
  C   C655      1.0  0.06258  0.87985  0.45522  1.0000
  C   C656      1.0  0.08077  0.86512  0.45991  1.0000
  H   H1115     1.0  0.08786  0.90854  0.46758  1.0000
  H   H1116     1.0  0.02609  0.78510  0.38339  1.0000
  H   H1117     1.0  0.03581  0.90314  0.46629  1.0000
  H   H1118     1.0  0.05890  0.88289  0.43988  1.0000
  H   H1119     1.0  0.20122  0.78979  0.26044  1.0000
  C   C657      1.0  0.04834  0.80481  0.34483  1.0000
  C   C658      1.0  0.05461  0.82415  0.32784  1.0000
  C   C659      1.0  0.11557  0.81960  0.29808  1.0000
  C   C660      1.0  0.11633  0.82709  0.31550  1.0000
  C   C661      1.0  0.12989  0.81513  0.32908  1.0000
  H   H1120     1.0  0.10533  0.82901  0.28738  1.0000
  H   H1121     1.0  0.10684  0.84230  0.31814  1.0000
  H   H1122     1.0  0.99215  0.98650  0.32164  1.0000
  H   H1123     1.0  0.26692  0.71655  0.27893  1.0000
  H   H1124     1.0  0.16994  0.83619  0.31837  1.0000
  C   C662      1.0  0.12822  0.80011  0.29432  1.0000
  C   C663      1.0  0.01442  0.85996  0.45131  1.0000
  C   C664      1.0  0.19283  0.79676  0.27443  1.0000
  H   H1125     1.0  0.04018  0.83685  0.32657  1.0000
  C   C665      1.0  0.99366  0.82505  0.39432  1.0000
  H   H1126     1.0  0.24075  0.70188  0.24438  1.0000
  H   H1127     1.0  0.99384  0.81248  0.40837  1.0000
  H   H1128     1.0  0.15266  0.78622  0.33607  1.0000
  H   H1129     1.0  0.00694  0.96528  0.40541  1.0000
  H   H1130     1.0  0.04766  0.76338  0.35803  1.0000
  H   H1131     1.0  0.15064  0.77271  0.30585  1.0000
  H   H1132     1.0  0.28121  0.70701  0.30001  1.0000
  C   C666      1.0  0.07986  0.78011  0.33183  1.0000
  H   H1133     1.0  0.25434  0.67569  0.25404  1.0000
  H   H1134     1.0  0.20823  0.76611  0.29056  1.0000
  H   H1135     1.0  0.08950  0.80594  0.34929  1.0000
  N   N45       1.0  0.06642  0.78738  0.35147  1.0000
  H   H1136     1.0  0.13921  0.66269  0.27866  1.0000
  H   H1137     1.0  0.19635  0.83809  0.30506  1.0000
  H   H1138     1.0  0.22018  0.81828  0.28375  1.0000
  H   H1139     1.0  0.03759  0.79850  0.33887  1.0000
  H   H1140     1.0  0.11971  0.97584  0.42512  1.0000
  H   H1141     1.0  0.99296  0.86940  0.34357  1.0000
  H   H1142     1.0  0.21027  0.69604  0.33844  1.0000
  H   H1143     1.0  0.06087  0.82026  0.31201  1.0000
  H   H1144     1.0  0.02124  0.87362  0.45059  1.0000
  C   C667      1.0  0.20131  0.78223  0.29379  1.0000
  C   C668      1.0  0.99309  0.85714  0.35782  1.0000
  C   C669      1.0  0.23979  0.68951  0.31568  1.0000
  H   H1145     1.0  0.09403  0.74682  0.34504  1.0000
  H   H1146     1.0  0.10670  0.75768  0.31900  1.0000
  C   C670      1.0  0.99600  0.88009  0.42253  1.0000
  C   C671      1.0  0.17721  0.83063  0.28662  1.0000
  H   H1147     1.0  0.06876  0.75546  0.37135  1.0000
  H   H1148     1.0  0.08692  0.79319  0.32050  1.0000
  H   H1149     1.0  0.11100  0.76589  0.34030  1.0000
  C   C672      1.0  0.18555  0.66360  0.29033  1.0000
  H   H1150     1.0  0.23559  0.71178  0.27868  1.0000
  C   C673      1.0  0.07012  0.96803  0.38764  1.0000
  C   C674      1.0  0.09295  0.78028  0.37642  1.0000
  H   H1151     1.0  0.06986  0.77558  0.32341  1.0000
  C   C675      1.0  0.21617  0.68837  0.32464  1.0000
  H   H1152     1.0  0.23016  0.65796  0.30164  1.0000
  S   S206      1.0  0.17656  0.74337  0.28176  1.0000
  H   H1153     1.0  0.22290  0.69124  0.28049  1.0000
  C   C676      1.0  0.25075  0.69234  0.25581  1.0000
  S   S207      1.0  0.14596  0.73759  0.25260  1.0000
  H   H1154     1.0  0.09649  0.76361  0.37494  1.0000
  H   H1155     1.0  0.03827  0.81136  0.35856  1.0000
  H   H1156     1.0  0.07552  0.98288  0.38306  1.0000
  H   H1157     1.0  0.18885  0.81239  0.31571  1.0000
  H   H1158     1.0  0.16588  0.67211  0.25343  1.0000
  C   C677      1.0  0.02314  0.96961  0.34750  1.0000
  H   H1159     1.0  0.99826  0.95389  0.34423  1.0000
  H   H1160     1.0  0.06814  0.80752  0.37118  1.0000
  H   H1161     1.0  0.28176  0.67313  0.27748  1.0000
  C   C678      1.0  0.20291  0.66295  0.27325  1.0000
  N   N46       1.0  0.19325  0.82002  0.27008  1.0000
  C   C679      1.0  0.06082  0.96058  0.40870  1.0000
  H   H1162     1.0  0.17250  0.84799  0.28022  1.0000
  S   S208      1.0  0.23366  0.75256  0.24948  1.0000
  C   C680      1.0  0.01446  0.84595  0.47365  1.0000
  C   C681      1.0  0.05393  0.94134  0.41451  1.0000
  H   H1163     1.0  0.07790  0.95583  0.46633  1.0000
  H   H1164     1.0  0.04844  0.78241  0.39519  1.0000
  C   C682      1.0  0.07254  0.95609  0.37245  1.0000
  S   S209      1.0  0.12747  0.79140  0.27206  1.0000
  H   H1165     1.0  0.12795  0.92932  0.46881  1.0000
  H   H1166     1.0  0.10851  0.78508  0.37316  1.0000
  C   C683      1.0  0.21507  0.82384  0.26843  1.0000
  H   H1167     1.0  0.23472  0.79587  0.25603  1.0000
  H   H1168     1.0  0.15187  0.83786  0.25935  1.0000
  C   C684      1.0  0.27314  0.68132  0.29064  1.0000
  C   C685      1.0  0.09881  0.76150  0.33470  1.0000
  H   H1169     1.0  0.18830  0.78085  0.30800  1.0000
  H   H1170     1.0  0.00502  0.90887  0.40224  1.0000
  H   H1171     1.0  0.08569  0.78114  0.39315  1.0000
  H   H1172     1.0  0.01068  0.96543  0.47821  1.0000
  H   H1173     1.0  0.09572  0.93915  0.48316  1.0000
  H   H1174     1.0  0.00797  0.87100  0.41138  1.0000
  H   H1175     1.0  0.01557  0.94613  0.38866  1.0000
  H   H1176     1.0  0.28073  0.67185  0.30405  1.0000
  C   C686      1.0  0.00191  0.95766  0.39521  1.0000
  H   H1177     1.0  0.17635  0.79453  0.27675  1.0000
  Fe  Fe107     1.0  0.15332  0.76432  0.26222  1.0000
  H   H1178     1.0  0.21383  0.67176  0.33040  1.0000
  H   H1179     1.0  0.02643  0.85101  0.44007  1.0000
  Fe  Fe108     1.0  0.17126  0.71716  0.26986  1.0000
  H   H1180     1.0  0.16229  0.82447  0.29097  1.0000
  C   C687      1.0  0.27890  0.70342  0.28561  1.0000
  C   C688      1.0  0.03545  0.98990  0.48388  1.0000
  H   H1181     1.0  0.02414  0.94707  0.32892  1.0000
  H   H1182     1.0  0.04345  0.97676  0.47543  1.0000
  H   H1183     1.0  0.26554  0.69869  0.25102  1.0000
  H   H1184     1.0  0.07970  0.96185  0.35614  1.0000
  H   H1185     1.0  0.09989  0.85048  0.48336  1.0000
  H   H1186     1.0  0.03021  0.97828  0.33163  1.0000
  C   C689      1.0  0.07901  0.79626  0.36158  1.0000
  C   C690      1.0  0.12997  0.89569  0.47590  1.0000
  C   C691      1.0  0.18385  0.82893  0.30746  1.0000
  H   H1187     1.0  0.00251  0.85325  0.48593  1.0000
  H   H1188     1.0  0.04665  0.93554  0.43078  1.0000
  N   N47       1.0  0.11350  0.92286  0.44610  1.0000
  C   C692      1.0  0.11798  0.90538  0.43418  1.0000
  C   C693      1.0  0.12975  0.91707  0.45976  1.0000
  C   C694      1.0  0.11595  0.94333  0.43010  1.0000
  C   C695      1.0  0.09109  0.92437  0.45886  1.0000
  C   C696      1.0  0.10437  0.90890  0.41770  1.0000
  N   N48       1.0  0.24979  0.68105  0.29591  1.0000
  C   C697      1.0  0.12088  0.96111  0.43768  1.0000
  C   C698      1.0  0.08366  0.93936  0.47447  1.0000
  H   H1189     1.0  0.13495  0.90251  0.42581  1.0000
  H   H1190     1.0  0.11543  0.89005  0.44516  1.0000
  H   H1191     1.0  0.13736  0.95705  0.44032  1.0000
  H   H1192     1.0  0.14601  0.91645  0.44965  1.0000
  H   H1193     1.0  0.12907  0.94031  0.41636  1.0000
  H   H1194     1.0  0.10144  0.95026  0.42338  1.0000
  H   H1195     1.0  0.07953  0.92988  0.44824  1.0000
  H   H1196     1.0  0.13710  0.88205  0.46808  1.0000
  H   H1197     1.0  0.11011  0.89558  0.40934  1.0000
  H   H1198     1.0  0.08758  0.90848  0.42538  1.0000
  H   H1199     1.0  0.10546  0.92373  0.40552  1.0000
  H   H1200     1.0  0.24871  0.68127  0.32847  1.0000
  H   H1201     1.0  0.01960  0.93630  0.35628  1.0000
  C   C699      1.0  0.05666  0.76941  0.36629  1.0000
  C   C700      1.0  0.04136  0.77480  0.38665  1.0000
  H   H1202     1.0  0.01714  0.90017  0.42450  1.0000
  H   H1203     1.0  0.06619  0.83090  0.33192  1.0000
  H   H1204     1.0  0.21489  0.84120  0.26418  1.0000
  S   S210      1.0  0.19777  0.72003  0.24165  1.0000
  H   H1205     1.0  0.00039  0.83680  0.43445  1.0000
  C   C701      1.0  0.00266  0.98102  0.48253  1.0000
  H   H1206     1.0  0.29382  0.70369  0.27340  1.0000
  N   N49       1.0  0.99329  0.86662  0.44464  1.0000
  H   H1207     1.0  0.02882  0.98317  0.37974  1.0000
  H   H1208     1.0  0.03661  0.96210  0.35560  1.0000
  C   C702      1.0  0.23890  0.69467  0.27835  1.0000
  H   H1209     1.0  0.03741  0.75994  0.39754  1.0000
  H   H1210     1.0  0.13996  0.89470  0.48719  1.0000
  H   H1211     1.0  0.20436  0.67672  0.26064  1.0000
  C   C703      1.0  0.00225  0.90155  0.41939  1.0000
  C   C704      1.0  0.16434  0.83009  0.24766  1.0000
  H   H1212     1.0  0.24078  0.70650  0.31278  1.0000
  H   H1213     1.0  0.24849  0.81626  0.25366  1.0000
  C   C705      1.0  0.01531  0.95094  0.34438  1.0000
  C   C706      1.0  0.23319  0.81333  0.25251  1.0000
  H   H1214     1.0  0.03027  0.84391  0.47734  1.0000
  H   H1215     1.0  0.01199  0.82985  0.47471  1.0000
  H   H1216     1.0  0.11396  0.89390  0.48529  1.0000
  H   H1217     1.0  0.16224  0.81375  0.24932  1.0000
  H   H1218     1.0  0.34724  0.65732  0.24308  1.0000
  N   N50       1.0  0.00723  0.98489  0.35979  1.0000
  H   H1219     1.0  0.18867  0.84737  0.24439  1.0000
  C   C707      1.0  0.24718  0.65857  0.29899  1.0000
  H   H1220     1.0  0.07037  0.93400  0.48701  1.0000
  C   C708      1.0  0.18706  0.83043  0.24902  1.0000
  C   C709      1.0  0.99191  0.97425  0.37778  1.0000
  C   C710      1.0  0.16422  0.66979  0.23820  1.0000
  S   S211      1.0  0.31499  0.68500  0.67059  1.0000
  C   C711      1.0  0.03555  0.82561  0.56152  1.0000
  C   C712      1.0  0.02793  0.81585  0.53140  1.0000
  Fe  Fe109     1.0  0.33465  0.69397  0.63820  1.0000
  S   S212      1.0  0.32929  0.72589  0.61646  1.0000
  Fe  Fe110     1.0  0.18402  0.74710  0.66576  1.0000
  S   S213      1.0  0.16103  0.76584  0.68820  1.0000
  S   S214      1.0  0.17831  0.71646  0.66302  1.0000
  Fe  Fe111     1.0  0.21288  0.77869  0.65000  1.0000
  S   S215      1.0  0.19267  0.80007  0.67147  1.0000
  S   S216      1.0  0.24084  0.78965  0.62651  1.0000
  Fe  Fe112     1.0  0.19027  0.77002  0.69580  1.0000
  C   C713      1.0  0.03982  0.97780  0.62703  1.0000
  Fe  Fe113     1.0  0.16526  0.79412  0.66169  1.0000
  S   S217      1.0  0.13809  0.82165  0.65566  1.0000
  S   S218      1.0  0.21310  0.74901  0.67531  1.0000
  S   S219      1.0  0.18576  0.77493  0.63832  1.0000
  H   H1221     1.0  0.15409  0.68403  0.67922  1.0000
  S   S220      1.0  0.04658  0.93029  0.54763  1.0000
  Fe  Fe114     1.0  0.09123  0.88176  0.55877  1.0000
  S   S221      1.0  0.08283  0.90838  0.57603  1.0000
  S   S222      1.0  0.11720  0.85283  0.56418  1.0000
  Fe  Fe115     1.0  0.04926  0.90630  0.57749  1.0000
  S   S223      1.0  0.02256  0.90759  0.60569  1.0000
  Fe  Fe116     1.0  0.08106  0.92961  0.54408  1.0000
  S   S224      1.0  0.09163  0.96044  0.52799  1.0000
  S   S225      1.0  0.05768  0.87826  0.56251  1.0000
  S   S226      1.0  0.09204  0.90326  0.52655  1.0000
  C   C714      1.0  0.43707  0.66450  0.63273  1.0000
  N   N51       1.0  0.24517  0.68718  0.63923  1.0000
  H   H1222     1.0  0.03192  0.95182  0.58766  1.0000
  C   C715      1.0  0.40656  0.67405  0.68760  1.0000
  C   C716      1.0  0.09665  0.97452  0.54422  1.0000
  C   C717      1.0  0.10512  0.96398  0.56212  1.0000
  C   C718      1.0  0.10828  0.97570  0.57523  1.0000
  H   H1223     1.0  0.24242  0.71420  0.65238  1.0000
  C   C719      1.0  0.41291  0.69402  0.68961  1.0000
  H   H1224     1.0  0.01607  0.81958  0.52120  1.0000
  H   H1225     1.0  0.10925  0.94684  0.56578  1.0000
  H   H1226     1.0  0.11482  0.96760  0.58908  1.0000
  H   H1227     1.0  0.01872  0.82460  0.59491  1.0000
  H   H1228     1.0  0.39131  0.67957  0.68202  1.0000
  H   H1229     1.0  0.26941  0.68794  0.59620  1.0000
  C   C720      1.0  0.25744  0.74395  0.70809  1.0000
  H   H1230     1.0  0.12968  0.74000  0.71743  1.0000
  H   H1231     1.0  0.22155  0.70038  0.66380  1.0000
  C   C721      1.0  0.00334  0.89449  0.60442  1.0000
  C   C722      1.0  0.01368  0.86451  0.53278  1.0000
  H   H1232     1.0  0.42726  0.69012  0.69642  1.0000
  C   C723      1.0  0.00534  0.80928  0.56667  1.0000
  H   H1233     1.0  0.32196  0.77835  0.69650  1.0000
  H   H1234     1.0  0.00850  0.90193  0.57040  1.0000
  C   C724      1.0  0.13115  0.82921  0.63072  1.0000
  C   C725      1.0  0.13943  0.81648  0.61579  1.0000
  C   C726      1.0  0.13473  0.82366  0.59552  1.0000
  C   C727      1.0  0.12157  0.84350  0.59015  1.0000
  C   C728      1.0  0.11280  0.85592  0.60532  1.0000
  C   C729      1.0  0.11762  0.84882  0.62551  1.0000
  H   H1235     1.0  0.14941  0.80110  0.61986  1.0000
  H   H1236     1.0  0.14136  0.81385  0.58394  1.0000
  H   H1237     1.0  0.10251  0.87111  0.60147  1.0000
  H   H1238     1.0  0.11102  0.85865  0.63706  1.0000
  C   C730      1.0  0.17675  0.69724  0.68676  1.0000
  C   C731      1.0  0.18818  0.67923  0.71979  1.0000
  H   H1239     1.0  0.05486  0.92222  0.65480  1.0000
  H   H1240     1.0  0.45002  0.66436  0.68269  1.0000
  C   C732      1.0  0.04819  0.82317  0.51719  1.0000
  C   C733      1.0  0.30409  0.74255  0.61908  1.0000
  C   C734      1.0  0.30186  0.76299  0.60635  1.0000
  C   C735      1.0  0.28226  0.77715  0.60849  1.0000
  C   C736      1.0  0.26469  0.77092  0.62328  1.0000
  C   C737      1.0  0.26672  0.75033  0.63575  1.0000
  C   C738      1.0  0.28649  0.73615  0.63382  1.0000
  H   H1241     1.0  0.31543  0.76799  0.59496  1.0000
  H   H1242     1.0  0.28082  0.79305  0.59881  1.0000
  H   H1243     1.0  0.25325  0.74562  0.64729  1.0000
  H   H1244     1.0  0.28821  0.72047  0.64386  1.0000
  C   C739      1.0  0.23474  0.72216  0.61264  1.0000
  C   C740      1.0  0.03908  0.93054  0.65126  1.0000
  N   N52       1.0  0.05280  0.95842  0.61885  1.0000
  H   H1245     1.0  0.09803  0.92409  0.63303  1.0000
  C   C741      1.0  0.35509  0.71353  0.69843  1.0000
  C   C742      1.0  0.05699  0.96293  0.59507  1.0000
  H   H1246     1.0  0.04634  0.84059  0.51249  1.0000
  H   H1247     1.0  0.03621  0.97419  0.64458  1.0000
  H   H1248     1.0  0.03142  0.94210  0.66151  1.0000
  H   H1249     1.0  0.02375  0.94669  0.62530  1.0000
  S   S227      1.0  0.03994  0.90449  0.50729  1.0000
  H   H1250     1.0  0.26724  0.68640  0.67194  1.0000
  H   H1251     1.0  0.35592  0.71193  0.68260  1.0000
  H   H1252     1.0  0.35755  0.74656  0.68893  1.0000
  C   C743      1.0  0.99938  0.89425  0.58497  1.0000
  C   C744      1.0  0.07382  0.95241  0.62561  1.0000
  H   H1253     1.0  0.23409  0.69052  0.61056  1.0000
  H   H1254     1.0  0.04221  0.97251  0.56776  1.0000
  H   H1255     1.0  0.30758  0.68674  0.72796  1.0000
  H   H1256     1.0  0.04687  0.83531  0.55071  1.0000
  C   C745      1.0  0.18907  0.69551  0.70143  1.0000
  H   H1257     1.0  0.08328  0.96495  0.61773  1.0000
  C   C746      1.0  0.00357  0.84568  0.54643  1.0000
  C   C747      1.0  0.21163  0.79701  0.72285  1.0000
  H   H1258     1.0  0.39987  0.70215  0.70066  1.0000
  H   H1259     1.0  0.07170  0.95190  0.64275  1.0000
  H   H1260     1.0  0.19796  0.67767  0.73085  1.0000
  C   C748      1.0  0.99680  0.95830  0.52656  1.0000
  C   C749      1.0  0.35591  0.73309  0.70200  1.0000
  H   H1261     1.0  0.02916  0.91831  0.65564  1.0000
  H   H1262     1.0  0.29941  0.75528  0.70973  1.0000
  C   C750      1.0  0.02793  0.83471  0.58170  1.0000
  H   H1263     1.0  0.24678  0.67091  0.68348  1.0000
  H   H1264     1.0  0.29435  0.67874  0.60406  1.0000
  H   H1265     1.0  0.27837  0.67676  0.64109  1.0000
  C   C751      1.0  0.24167  0.66468  0.64629  1.0000
  H   H1266     1.0  0.05216  0.81718  0.50240  1.0000
  H   H1267     1.0  0.22438  0.72899  0.60092  1.0000
  N   N53       1.0  0.42266  0.66069  0.67338  1.0000
  C   C752      1.0  0.26840  0.68678  0.62974  1.0000
  H   H1268     1.0  0.20651  0.67522  0.65680  1.0000
  H   H1269     1.0  0.02419  0.96976  0.52621  1.0000
  H   H1270     1.0  0.06208  0.81635  0.52483  1.0000
  H   H1271     1.0  0.00348  0.87953  0.53665  1.0000
  C   C753      1.0  0.42806  0.67503  0.65195  1.0000
  H   H1272     1.0  0.04698  0.92797  0.61871  1.0000
  S   S228      1.0  0.36577  0.68318  0.64874  1.0000
  H   H1273     1.0  0.06490  0.97664  0.58796  1.0000
  H   H1274     1.0  0.99436  0.88489  0.63822  1.0000
  H   H1275     1.0  0.99685  0.81551  0.58110  1.0000
  H   H1276     1.0  0.27207  0.70282  0.62644  1.0000
  H   H1277     1.0  0.25123  0.72286  0.60391  1.0000
  C   C754      1.0  0.23166  0.69927  0.62326  1.0000
  H   H1278     1.0  0.04203  0.83545  0.58722  1.0000
  H   H1279     1.0  0.24199  0.75323  0.70435  1.0000
  H   H1280     1.0  0.08018  0.91938  0.62029  1.0000
  H   H1281     1.0  0.07708  0.87110  0.50970  1.0000
  C   C755      1.0  0.08861  0.93153  0.62056  1.0000
  C   C756      1.0  0.27719  0.67818  0.60932  1.0000
  H   H1282     1.0  0.19944  0.70650  0.69855  1.0000
  H   H1283     1.0  0.42446  0.65925  0.62858  1.0000
  H   H1284     1.0  0.01585  0.79390  0.57216  1.0000
  C   C757      1.0  0.35359  0.69604  0.71535  1.0000
  H   H1285     1.0  0.99435  0.79735  0.54420  1.0000
  H   H1286     1.0  0.04551  0.80951  0.56560  1.0000
  H   H1287     1.0  0.02922  0.86438  0.53583  1.0000
  H   H1288     1.0  0.21449  0.70073  0.63061  1.0000
  C   C758      1.0  0.22579  0.80738  0.72644  1.0000
  H   H1289     1.0  0.03240  0.79819  0.53547  1.0000
  H   H1290     1.0  0.40268  0.66467  0.70400  1.0000
  C   C759      1.0  0.04042  0.94087  0.62760  1.0000
  H   H1291     1.0  0.28976  0.73504  0.69280  1.0000
  N   N54       1.0  0.01832  0.82456  0.55120  1.0000
  H   H1292     1.0  0.30230  0.79323  0.71317  1.0000
  H   H1293     1.0  0.29410  0.72032  0.73746  1.0000
  C   C760      1.0  0.24989  0.68705  0.67636  1.0000
  C   C761      1.0  0.21019  0.77640  0.73418  1.0000
  H   H1294     1.0  0.43961  0.68449  0.65198  1.0000
  H   H1295     1.0  0.24339  0.69636  0.68891  1.0000
  Fe  Fe117     1.0  0.34631  0.67134  0.68030  1.0000
  H   H1296     1.0  0.99332  0.85037  0.56112  1.0000
  C   C762      1.0  0.30508  0.78676  0.69881  1.0000
  H   H1297     1.0  0.20169  0.80505  0.71152  1.0000
  H   H1298     1.0  0.06837  0.94943  0.58905  1.0000
  C   C763      1.0  0.03751  0.96677  0.58512  1.0000
  H   H1299     1.0  0.01861  0.85112  0.57865  1.0000
  H   H1300     1.0  0.99991  0.94734  0.54159  1.0000
  Fe  Fe118     1.0  0.05756  0.90255  0.53224  1.0000
  H   H1301     1.0  0.22976  0.73264  0.62414  1.0000
  C   C764      1.0  0.35392  0.73544  0.72260  1.0000
  N   N55       1.0  0.19661  0.84481  0.59477  1.0000
  C   C765      1.0  0.20805  0.82716  0.58321  1.0000
  C   C766      1.0  0.21185  0.85936  0.59091  1.0000
  C   C767      1.0  0.17769  0.85669  0.58509  1.0000
  C   C768      1.0  0.18974  0.83516  0.61789  1.0000
  C   C769      1.0  0.19460  0.81179  0.58242  1.0000
  C   C770      1.0  0.23283  0.84893  0.59858  1.0000
  C   C771      1.0  0.16357  0.87564  0.59427  1.0000
  C   C772      1.0  0.18563  0.84960  0.63379  1.0000
  H   H1302     1.0  0.21532  0.83373  0.56654  1.0000
  H   H1303     1.0  0.22146  0.81700  0.59053  1.0000
  H   H1304     1.0  0.20465  0.87326  0.59823  1.0000
  H   H1305     1.0  0.21614  0.86640  0.57371  1.0000
  H   H1306     1.0  0.18286  0.86252  0.56774  1.0000
  H   H1307     1.0  0.16666  0.84608  0.58689  1.0000
  H   H1308     1.0  0.17519  0.82880  0.62054  1.0000
  H   H1309     1.0  0.20198  0.82117  0.62296  1.0000
  H   H1310     1.0  0.18514  0.80595  0.59813  1.0000
  H   H1311     1.0  0.18398  0.81919  0.57101  1.0000
  H   H1312     1.0  0.20533  0.79771  0.57689  1.0000
  H   H1313     1.0  0.24128  0.86148  0.59804  1.0000
  H   H1314     1.0  0.23023  0.83961  0.61504  1.0000
  H   H1315     1.0  0.24365  0.83852  0.58813  1.0000
  H   H1316     1.0  0.15513  0.87033  0.61073  1.0000
  H   H1317     1.0  0.15097  0.88323  0.58497  1.0000
  H   H1318     1.0  0.17234  0.88804  0.59321  1.0000
  H   H1319     1.0  0.17167  0.84611  0.64647  1.0000
  H   H1320     1.0  0.18208  0.86682  0.62730  1.0000
  H   H1321     1.0  0.19909  0.84567  0.64198  1.0000
  N   N56       1.0  0.28204  0.76953  0.68465  1.0000
  C   C773      1.0  0.27608  0.74811  0.68932  1.0000
  C   C774      1.0  0.29836  0.77133  0.66422  1.0000
  C   C775      1.0  0.26234  0.78621  0.68153  1.0000
  C   C776      1.0  0.29016  0.77102  0.70313  1.0000
  H   H1322     1.0  0.02404  0.98271  0.62260  1.0000
  C   C777      1.0  0.31829  0.75343  0.66377  1.0000
  C   C778      1.0  0.26464  0.80950  0.67613  1.0000
  H   H1323     1.0  0.30289  0.80059  0.68567  1.0000
  H   H1324     1.0  0.27189  0.74562  0.67533  1.0000
  C   C779      1.0  0.01710  0.96674  0.51435  1.0000
  H   H1325     1.0  0.30398  0.78646  0.65976  1.0000
  H   H1326     1.0  0.29119  0.77168  0.65088  1.0000
  H   H1327     1.0  0.25562  0.78386  0.66892  1.0000
  H   H1328     1.0  0.24977  0.78488  0.69606  1.0000
  H   H1329     1.0  0.27665  0.77506  0.71618  1.0000
  C   C780      1.0  0.21964  0.66172  0.66014  1.0000
  H   H1330     1.0  0.29200  0.66525  0.71458  1.0000
  H   H1331     1.0  0.02412  0.97879  0.59111  1.0000
  H   H1332     1.0  0.01521  0.86543  0.51569  1.0000
  H   H1333     1.0  0.32492  0.75029  0.67801  1.0000
  H   H1334     1.0  0.31487  0.73857  0.66220  1.0000
  H   H1335     1.0  0.33068  0.75807  0.64973  1.0000
  H   H1336     1.0  0.26765  0.81390  0.68977  1.0000
  H   H1337     1.0  0.24928  0.81977  0.67302  1.0000
  H   H1338     1.0  0.27680  0.81332  0.66170  1.0000
  H   H1339     1.0  0.25627  0.72705  0.71146  1.0000
  C   C781      1.0  0.23892  0.69805  0.65757  1.0000
  H   H1340     1.0  0.41365  0.68688  0.64805  1.0000
  H   H1341     1.0  0.09972  0.93463  0.60510  1.0000
  N   N57       1.0  0.01403  0.98603  0.49683  1.0000
  H   H1342     1.0  0.41507  0.70566  0.67435  1.0000
  C   C782      1.0  0.12773  0.73586  0.73490  1.0000
  C   C783      1.0  0.16350  0.68287  0.69057  1.0000
  H   H1343     1.0  0.02866  0.95340  0.50800  1.0000
  S   S229      1.0  0.35254  0.67134  0.71160  1.0000
  H   H1344     1.0  0.27603  0.66136  0.61199  1.0000
  H   H1345     1.0  0.25965  0.74722  0.72264  1.0000
  H   H1346     1.0  0.44292  0.67641  0.61876  1.0000
  C   C784      1.0  0.27612  0.67230  0.72280  1.0000
  C   C785      1.0  0.07289  0.87346  0.49459  1.0000
  H   H1347     1.0  0.26444  0.66580  0.71851  1.0000
  H   H1348     1.0  0.05421  0.97878  0.50913  1.0000
  C   C786      1.0  0.35288  0.69818  0.73573  1.0000
  S   S230      1.0  0.19319  0.76282  0.72953  1.0000
  H   H1349     1.0  0.15505  0.71039  0.73310  1.0000
  H   H1350     1.0  0.16078  0.73499  0.73185  1.0000
  S   S231      1.0  0.33667  0.66377  0.62827  1.0000
  S   S232      1.0  0.35282  0.76026  0.72738  1.0000
  C   C787      1.0  0.05490  0.88839  0.48972  1.0000
  H   H1351     1.0  0.99243  0.94898  0.51744  1.0000
  H   H1352     1.0  0.27227  0.68966  0.71664  1.0000
  C   C788      1.0  0.16194  0.66728  0.70924  1.0000
  H   H1353     1.0  0.22689  0.82336  0.71772  1.0000
  C   C789      1.0  0.17417  0.66542  0.72394  1.0000
  H   H1354     1.0  0.24404  0.65755  0.63243  1.0000
  H   H1355     1.0  0.99192  0.84450  0.53778  1.0000
  H   H1356     1.0  0.22000  0.65783  0.67721  1.0000
  C   C790      1.0  0.99133  0.88479  0.62318  1.0000
  Fe  Fe119     1.0  0.40032  0.83383  0.89692  1.0000
  S   S233      1.0  0.42183  0.85687  0.88161  1.0000
  S   S234      1.0  0.38625  0.83321  0.93135  1.0000
  Fe  Fe120     1.0  0.40460  0.82006  0.85592  1.0000
  S   S235      1.0  0.42649  0.84237  0.83738  1.0000
  S   S236      1.0  0.39963  0.79817  0.83776  1.0000
  Fe  Fe121     1.0  0.44207  0.83125  0.86524  1.0000
  C   C791      1.0  0.37432  0.88202  0.77687  1.0000
  Fe  Fe122     1.0  0.40406  0.86576  0.85551  1.0000
  S   S237      1.0  0.39275  0.90033  0.84230  1.0000
  S   S238      1.0  0.42203  0.80716  0.88268  1.0000
  S   S239      1.0  0.38075  0.84456  0.87188  1.0000
  Fe  Fe123     1.0  0.30810  0.78508  0.79419  1.0000
  S   S240      1.0  0.32681  0.75273  0.79001  1.0000
  S   S241      1.0  0.31053  0.80272  0.81774  1.0000
  H   H1357     1.0  0.27155  0.67608  0.82960  1.0000
  H   H1358     1.0  0.47798  0.89672  0.85861  1.0000
  H   H1359     1.0  0.14408  0.69308  0.85046  1.0000
  Fe  Fe124     1.0  0.29513  0.74551  0.79174  1.0000
  S   S242      1.0  0.28856  0.71378  0.81137  1.0000
  H   H1360     1.0  0.13918  0.72698  0.80603  1.0000
  S   S243      1.0  0.31108  0.79865  0.75942  1.0000
  S   S244      1.0  0.27625  0.77697  0.79831  1.0000
  N   N58       1.0  0.29217  0.66638  0.75553  1.0000
  C   C792      1.0  0.35994  0.96272  0.82797  1.0000
  H   H1361     1.0  0.25934  0.67895  0.75319  1.0000
  H   H1362     1.0  0.45598  0.89603  0.97013  1.0000
  S   S245      1.0  0.20366  0.69021  0.80747  1.0000
  H   H1363     1.0  0.45238  0.93767  0.91899  1.0000
  H   H1364     1.0  0.11359  0.68568  0.77368  1.0000
  C   C793      1.0  0.41252  0.88854  0.92007  1.0000
  H   H1365     1.0  0.36056  0.88922  0.81727  1.0000
  H   H1366     1.0  0.38131  0.87339  0.76376  1.0000
  N   N59       1.0  0.36595  0.86719  0.79693  1.0000
  H   H1367     1.0  0.36615  0.90965  0.75244  1.0000
  C   C794      1.0  0.40242  0.84131  0.79217  1.0000
  H   H1368     1.0  0.45823  0.80801  0.94468  1.0000
  Fe  Fe125     1.0  0.32677  0.76559  0.75550  1.0000
  C   C795      1.0  0.23731  0.77637  0.75235  1.0000
  H   H1369     1.0  0.13267  0.70253  0.79339  1.0000
  H   H1370     1.0  0.38160  0.97365  0.85270  1.0000
  H   H1371     1.0  0.27220  0.67899  0.78204  1.0000
  H   H1372     1.0  0.19131  0.72506  0.76292  1.0000
  H   H1373     1.0  0.40953  0.85134  0.77732  1.0000
  H   H1374     1.0  0.16254  0.67982  0.83064  1.0000
  C   C796      1.0  0.44801  0.91185  0.90682  1.0000
  C   C797      1.0  0.44238  0.81661  0.94994  1.0000
  H   H1375     1.0  0.42344  0.91363  0.94362  1.0000
  C   C798      1.0  0.48626  0.84284  0.86780  1.0000
  S   S246      1.0  0.45805  0.95183  0.84756  1.0000
  C   C799      1.0  0.28535  0.66540  0.77892  1.0000
  S   S247      1.0  0.29681  0.75551  0.75685  1.0000
  H   H1376     1.0  0.34384  0.89816  0.76688  1.0000
  H   H1377     1.0  0.44199  0.92236  0.96287  1.0000
  H   H1378     1.0  0.13964  0.67296  0.77908  1.0000
  H   H1379     1.0  0.46844  0.84776  0.93895  1.0000
  C   C800      1.0  0.46014  0.92881  0.90626  1.0000
  C   C801      1.0  0.26439  0.70782  0.81114  1.0000
  C   C802      1.0  0.26019  0.68759  0.82124  1.0000
  C   C803      1.0  0.24171  0.68194  0.81992  1.0000
  C   C804      1.0  0.22708  0.69674  0.80902  1.0000
  C   C805      1.0  0.23078  0.71727  0.79982  1.0000
  C   C806      1.0  0.24956  0.72271  0.80056  1.0000
  S   S248      1.0  0.45720  0.81906  0.98324  1.0000
  C   C807      1.0  0.43563  0.87868  0.92253  1.0000
  H   H1380     1.0  0.21918  0.72892  0.79193  1.0000
  H   H1381     1.0  0.25253  0.73845  0.79304  1.0000
  C   C808      1.0  0.35155  0.87963  0.81285  1.0000
  H   H1382     1.0  0.14925  0.75086  0.79740  1.0000
  H   H1383     1.0  0.28371  0.70945  0.76436  1.0000
  H   H1384     1.0  0.46416  0.86325  0.95864  1.0000
  S   S249      1.0  0.47733  0.82244  0.86300  1.0000
  H   H1385     1.0  0.41190  0.89893  0.90419  1.0000
  H   H1386     1.0  0.17180  0.68861  0.76059  1.0000
  C   C809      1.0  0.41088  0.91413  0.84468  1.0000
  C   C810      1.0  0.40416  0.92982  0.85668  1.0000
  C   C811      1.0  0.41866  0.94117  0.85811  1.0000
  C   C812      1.0  0.43977  0.93711  0.84723  1.0000
  C   C813      1.0  0.44646  0.92128  0.83544  1.0000
  C   C814      1.0  0.43213  0.90963  0.83440  1.0000
  H   H1387     1.0  0.38781  0.93300  0.86500  1.0000
  Fe  Fe126     1.0  0.20733  0.65894  0.79875  1.0000
  H   H1388     1.0  0.46279  0.91802  0.82706  1.0000
  H   H1389     1.0  0.43745  0.89738  0.82530  1.0000
  C   C815      1.0  0.37466  0.79912  0.83287  1.0000
  C   C816      1.0  0.35585  0.80885  0.84464  1.0000
  C   C817      1.0  0.33622  0.80967  0.83998  1.0000
  C   C818      1.0  0.33532  0.80088  0.82348  1.0000
  C   C819      1.0  0.35410  0.79095  0.81187  1.0000
  C   C820      1.0  0.37370  0.79001  0.81663  1.0000
  H   H1390     1.0  0.35645  0.81561  0.85739  1.0000
  H   H1391     1.0  0.32169  0.81724  0.84910  1.0000
  H   H1392     1.0  0.35354  0.78412  0.79915  1.0000
  H   H1393     1.0  0.38822  0.78239  0.80754  1.0000
  C   C821      1.0  0.19065  0.71170  0.75640  1.0000
  C   C822      1.0  0.40619  0.83055  0.94509  1.0000
  H   H1394     1.0  0.43073  0.81383  0.92389  1.0000
  H   H1395     1.0  0.37978  0.84280  0.82108  1.0000
  C   C823      1.0  0.47317  0.86082  0.94281  1.0000
  H   H1396     1.0  0.11582  0.72557  0.74092  1.0000
  H   H1397     1.0  0.13741  0.66703  0.91343  1.0000
  C   C824      1.0  0.48510  0.88027  0.86390  1.0000
  C   C825      1.0  0.35852  0.90187  0.76844  1.0000
  H   H1398     1.0  0.48131  0.89078  0.92615  1.0000
  H   H1399     1.0  0.35102  0.71971  0.75536  1.0000
  H   H1400     1.0  0.40190  0.96445  0.82050  1.0000
  H   H1401     1.0  0.44389  0.87173  0.90842  1.0000
  C   C826      1.0  0.35541  0.85197  0.79222  1.0000
  H   H1402     1.0  0.48249  0.94586  0.93343  1.0000
  H   H1403     1.0  0.36584  0.84438  0.77923  1.0000
  H   H1404     1.0  0.35356  0.83827  0.80571  1.0000
  H   H1405     1.0  0.39675  0.82860  0.78872  1.0000
  H   H1406     1.0  0.35734  0.95953  0.84541  1.0000
  C   C827      1.0  0.14783  0.73815  0.77131  1.0000
  H   H1407     1.0  0.40541  0.97885  0.97479  1.0000
  H   H1408     1.0  0.15920  0.74795  0.76061  1.0000
  H   H1409     1.0  0.47718  0.92241  0.90636  1.0000
  H   H1410     1.0  0.46590  0.91327  0.94583  1.0000
  H   H1411     1.0  0.17034  0.69658  0.78394  1.0000
  H   H1412     1.0  0.13190  0.74850  0.77065  1.0000
  C   C828      1.0  0.22280  0.76621  0.74912  1.0000
  S   S250      1.0  0.44196  0.97886  0.94065  1.0000
  C   C829      1.0  0.28638  0.70728  0.74797  1.0000
  H   H1413     1.0  0.41348  0.95316  0.86745  1.0000
  H   H1414     1.0  0.43158  0.92070  0.90586  1.0000
  C   C830      1.0  0.38476  0.85438  0.80643  1.0000
  H   H1415     1.0  0.48445  0.93885  0.97636  1.0000
  H   H1416     1.0  0.22175  0.75023  0.75777  1.0000
  H   H1417     1.0  0.20465  0.69920  0.75974  1.0000
  H   H1418     1.0  0.41546  0.83310  0.80074  1.0000
  H   H1419     1.0  0.33855  0.89143  0.80633  1.0000
  H   H1420     1.0  0.27488  0.76325  0.87314  1.0000
  H   H1421     1.0  0.35200  0.85569  0.84282  1.0000
  H   H1422     1.0  0.45459  0.90611  0.89180  1.0000
  C   C831      1.0  0.35231  0.71799  0.73946  1.0000
  C   C832      1.0  0.40135  0.83860  0.96342  1.0000
  S   S251      1.0  0.46754  0.98408  0.88260  1.0000
  H   H1423     1.0  0.43115  0.88744  0.95807  1.0000
  N   N60       1.0  0.44803  0.89334  0.92553  1.0000
  H   H1424     1.0  0.33037  0.85720  0.83046  1.0000
  H   H1425     1.0  0.33582  0.86581  0.76823  1.0000
  C   C833      1.0  0.13165  0.70757  0.77646  1.0000
  H   H1426     1.0  0.46380  0.86807  0.85304  1.0000
  H   H1427     1.0  0.24729  0.76836  0.76365  1.0000
  H   H1428     1.0  0.23870  0.66622  0.82745  1.0000
  C   C834      1.0  0.13964  0.67651  0.89696  1.0000
  H   H1429     1.0  0.43465  0.86493  0.93616  1.0000
  H   H1430     1.0  0.45447  0.97111  0.97974  1.0000
  H   H1431     1.0  0.32389  0.87421  0.79292  1.0000
  C   C835      1.0  0.43748  0.82426  0.96851  1.0000
  H   H1432     1.0  0.47725  0.87599  0.91018  1.0000
  C   C836      1.0  0.17025  0.70288  0.76687  1.0000
  H   H1433     1.0  0.16734  0.72635  0.79582  1.0000
  H   H1434     1.0  0.11604  0.71878  0.77664  1.0000
  H   H1435     1.0  0.34609  0.95919  0.82421  1.0000
  C   C837      1.0  0.30137  0.68593  0.74517  1.0000
  N   N61       1.0  0.14979  0.71821  0.76378  1.0000
  C   C838      1.0  0.47047  0.88106  0.92539  1.0000
  H   H1436     1.0  0.27092  0.70920  0.74377  1.0000
  H   H1437     1.0  0.31522  0.68539  0.75167  1.0000
  C   C839      1.0  0.45148  0.90834  0.95636  1.0000
  C   C840      1.0  0.41701  0.83556  0.97508  1.0000
  Fe  Fe127     1.0  0.44602  0.97847  0.86499  1.0000
  C   C841      1.0  0.42684  0.81994  0.93813  1.0000
  N   N62       1.0  0.31026  0.73389  0.85922  1.0000
  C   C842      1.0  0.32249  0.75165  0.85158  1.0000
  C   C843      1.0  0.29003  0.74163  0.85090  1.0000
  C   C844      1.0  0.32356  0.71553  0.84951  1.0000
  C   C845      1.0  0.30633  0.72788  0.88307  1.0000
  C   C846      1.0  0.34475  0.74649  0.85688  1.0000
  C   C847      1.0  0.27599  0.76246  0.85661  1.0000
  C   C848      1.0  0.31462  0.69511  0.85573  1.0000
  C   C849      1.0  0.28648  0.71832  0.89468  1.0000
  H   H1438     1.0  0.32456  0.75727  0.83412  1.0000
  H   H1439     1.0  0.31358  0.76573  0.85832  1.0000
  H   H1440     1.0  0.27993  0.72955  0.85615  1.0000
  H   H1441     1.0  0.29371  0.74433  0.83335  1.0000
  H   H1442     1.0  0.32665  0.72041  0.83192  1.0000
  H   H1443     1.0  0.33942  0.71045  0.85376  1.0000
  H   H1444     1.0  0.32028  0.71636  0.88835  1.0000
  H   H1445     1.0  0.30470  0.74191  0.88984  1.0000
  H   H1446     1.0  0.35664  0.73717  0.84603  1.0000
  H   H1447     1.0  0.35018  0.76152  0.85448  1.0000
  H   H1448     1.0  0.34486  0.73817  0.87351  1.0000
  H   H1449     1.0  0.29815  0.69786  0.85355  1.0000
  H   H1450     1.0  0.28210  0.77639  0.84594  1.0000
  H   H1451     1.0  0.25970  0.76403  0.85426  1.0000
  H   H1452     1.0  0.31581  0.68669  0.87215  1.0000
  H   H1453     1.0  0.32445  0.68419  0.84533  1.0000
  C   C850      1.0  0.27306  0.66704  0.74710  1.0000
  H   H1454     1.0  0.27157  0.73030  0.89364  1.0000
  H   H1455     1.0  0.28688  0.71275  0.91174  1.0000
  H   H1456     1.0  0.28559  0.70456  0.88900  1.0000
  C   C851      1.0  0.43749  0.90062  0.94593  1.0000
  H   H1457     1.0  0.38544  0.84708  0.96864  1.0000
  H   H1458     1.0  0.40340  0.89729  0.93256  1.0000
  H   H1459     1.0  0.39237  0.86487  0.81132  1.0000
  H   H1460     1.0  0.40422  0.87561  0.92139  1.0000
  H   H1461     1.0  0.13473  0.68345  0.83286  1.0000
  C   C852      1.0  0.34055  0.86643  0.83346  1.0000
  H   H1462     1.0  0.13621  0.68748  0.75316  1.0000
  H   H1463     1.0  0.32416  0.84830  0.79129  1.0000
  Fe  Fe128     1.0  0.28094  0.78777  0.76307  1.0000
  C   C853      1.0  0.15111  0.73501  0.79397  1.0000
  H   H1464     1.0  0.35450  0.91373  0.77849  1.0000
  C   C854      1.0  0.47699  0.86409  0.86093  1.0000
  H   H1465     1.0  0.38755  0.88819  0.77898  1.0000
  C   C855      1.0  0.33374  0.86092  0.78569  1.0000
  S   S252      1.0  0.41734  0.98324  0.89089  1.0000
  H   H1466     1.0  0.33005  0.87735  0.84356  1.0000
  H   H1467     1.0  0.13898  0.69319  0.89743  1.0000
  C   C856      1.0  0.13041  0.68730  0.77020  1.0000
  H   H1468     1.0  0.35237  0.68462  0.74879  1.0000
  H   H1469     1.0  0.37409  0.95134  0.82186  1.0000
  H   H1470     1.0  0.29836  0.66723  0.78548  1.0000
  H   H1471     1.0  0.16787  0.68161  0.87299  1.0000
  C   C857      1.0  0.14725  0.67992  0.84217  1.0000
  C   C858      1.0  0.45300  0.98786  0.97327  1.0000
  H   H1472     1.0  0.12595  0.67727  0.89021  1.0000
  H   H1473     1.0  0.45961  0.94061  0.89119  1.0000
  C   C859      1.0  0.41975  0.98847  0.81444  1.0000
  H   H1474     1.0  0.49022  0.85535  0.94358  1.0000
  S   S253      1.0  0.25761  0.80945  0.74402  1.0000
  C   C860      1.0  0.16135  0.66786  0.88381  1.0000
  H   H1475     1.0  0.49007  0.98167  0.83584  1.0000
  H   H1476     1.0  0.39753  0.79666  0.98234  1.0000
  H   H1477     1.0  0.42923  0.77699  0.97477  1.0000
  C   C861      1.0  0.23883  0.79695  0.74098  1.0000
  H   H1478     1.0  0.43425  0.97855  0.80670  1.0000
  C   C862      1.0  0.40004  0.98152  0.81263  1.0000
  C   C863      1.0  0.36155  0.98601  0.81737  1.0000
  H   H1479     1.0  0.40121  0.98189  0.79570  1.0000
  H   H1480     1.0  0.18803  0.66227  0.84769  1.0000
  H   H1481     1.0  0.42091  0.98572  0.83115  1.0000
  C   C864      1.0  0.14636  0.65833  0.85773  1.0000
  H   H1482     1.0  0.36377  0.98716  0.80013  1.0000
  H   H1483     1.0  0.44600  0.75338  0.98549  1.0000
  H   H1484     1.0  0.17219  0.66160  0.89514  1.0000
  H   H1485     1.0  0.40430  0.94194  0.98153  1.0000
  C   C865      1.0  0.14941  0.72437  0.74054  1.0000
  H   H1486     1.0  0.12159  0.75089  0.74055  1.0000
  H   H1487     1.0  0.19262  0.71653  0.73899  1.0000
  H   H1488     1.0  0.38241  0.77767  0.98622  1.0000
  H   H1489     1.0  0.12972  0.65954  0.86662  1.0000
  H   H1490     1.0  0.35625  0.80831  0.98775  1.0000
  C   C866      1.0  0.63362  0.01643  0.00741  1.0000
  C   C867      1.0  0.84168  0.27915  0.99766  1.0000
  H   H1491     1.0  0.69071  0.03655  0.10551  1.0000
  H   H1492     1.0  0.78633  0.32151  0.12810  1.0000
  H   H1493     1.0  0.53871  0.00495  0.09356  1.0000
  H   H1494     1.0  0.65377  0.07617  0.17998  1.0000
  S   S254      1.0  0.64839  0.25771  0.22491  1.0000
  H   H1495     1.0  0.70322  0.04392  0.18666  1.0000
  H   H1496     1.0  0.69230  0.19533  0.19662  1.0000
  C   C868      1.0  0.75711  0.07405  0.19856  1.0000
  H   H1497     1.0  0.58815  0.01098  0.02991  1.0000
  Fe  Fe129     1.0  0.79151  0.26295  0.11941  1.0000
  S   S255      1.0  0.82502  0.26632  0.11553  1.0000
  S   S256      1.0  0.76316  0.28686  0.13111  1.0000
  Fe  Fe130     1.0  0.80501  0.22265  0.10173  1.0000
  S   S257      1.0  0.83966  0.22283  0.09612  1.0000
  S   S258      1.0  0.79517  0.19477  0.09681  1.0000
  Fe  Fe131     1.0  0.83146  0.23107  0.12796  1.0000
  S   S259      1.0  0.85019  0.21325  0.15298  1.0000
  Fe  Fe132     1.0  0.82992  0.25786  0.08410  1.0000
  S   S260      1.0  0.84516  0.27674  0.05334  1.0000
  S   S261      1.0  0.79742  0.22837  0.13442  1.0000
  S   S262      1.0  0.79579  0.25708  0.08703  1.0000
  H   H1498     1.0  0.82175  0.16386  0.21598  1.0000
  H   H1499     1.0  0.73098  0.08042  0.10797  1.0000
  H   H1500     1.0  0.71832  0.18155  0.20017  1.0000
  H   H1501     1.0  0.50098  0.05931  0.10686  1.0000
  H   H1502     1.0  0.73008  0.03094  0.17955  1.0000
  H   H1503     1.0  0.82192  0.31072  0.12374  1.0000
  H   H1504     1.0  0.83126  0.29502  0.99631  1.0000
  H   H1505     1.0  0.70634  0.20434  0.21124  1.0000
  S   S263      1.0  0.66650  0.15935  0.22950  1.0000
  H   H1506     1.0  0.49704  0.05259  0.05776  1.0000
  Fe  Fe133     1.0  0.68825  0.17161  0.15006  1.0000
  S   S264      1.0  0.65587  0.17082  0.17082  1.0000
  S   S265      1.0  0.69618  0.20197  0.12869  1.0000
  Fe  Fe134     1.0  0.70633  0.12616  0.16897  1.0000
  S   S266      1.0  0.67562  0.12132  0.19124  1.0000
  S   S267      1.0  0.73497  0.09956  0.16905  1.0000
  Fe  Fe135     1.0  0.66056  0.13873  0.16345  1.0000
  S   S268      1.0  0.63308  0.12717  0.15920  1.0000
  Fe  Fe136     1.0  0.67359  0.15356  0.19657  1.0000
  H   H1507     1.0  0.75372  0.11908  0.22651  1.0000
  S   S269      1.0  0.69171  0.14088  0.14049  1.0000
  S   S270      1.0  0.70562  0.15698  0.17642  1.0000
  Fe  Fe137     1.0  0.63101  0.05995  0.08042  1.0000
  S   S271      1.0  0.60351  0.04525  0.10081  1.0000
  S   S272      1.0  0.65469  0.07371  0.08878  1.0000
  Fe  Fe138     1.0  0.62558  0.05129  0.04032  1.0000
  S   S273      1.0  0.59812  0.03559  0.05683  1.0000
  C   C869      1.0  0.75445  0.10642  0.21896  1.0000
  Fe  Fe139     1.0  0.58677  0.06209  0.07405  1.0000
  S   S274      1.0  0.55210  0.07688  0.07587  1.0000
  Fe  Fe140     1.0  0.61672  0.01973  0.08203  1.0000
  S   S275      1.0  0.61288  0.07931  0.05542  1.0000
  S   S276      1.0  0.64567  0.03280  0.06380  1.0000
  C   C870      1.0  0.80650  0.31925  0.08102  1.0000
  C   C871      1.0  0.54490  0.03653  0.08548  1.0000
  C   C872      1.0  0.53863  0.05766  0.07550  1.0000
  H   H1508     1.0  0.55821  0.03200  0.09330  1.0000
  C   C873      1.0  0.63756  0.11436  0.13816  1.0000
  C   C874      1.0  0.62393  0.10125  0.13855  1.0000
  C   C875      1.0  0.62835  0.08943  0.12283  1.0000
  C   C876      1.0  0.64643  0.09076  0.10668  1.0000
  C   C877      1.0  0.65953  0.10453  0.10585  1.0000
  C   C878      1.0  0.65513  0.11626  0.12153  1.0000
  H   H1509     1.0  0.61022  0.09984  0.15132  1.0000
  H   H1510     1.0  0.61817  0.07885  0.12359  1.0000
  H   H1511     1.0  0.67333  0.10590  0.09318  1.0000
  H   H1512     1.0  0.66536  0.12676  0.12077  1.0000
  C   C879      1.0  0.86529  0.27965  0.99504  1.0000
  C   C880      1.0  0.64658  0.20057  0.21638  1.0000
  C   C881      1.0  0.57463  0.03913  0.01004  1.0000
  C   C882      1.0  0.64217  0.22241  0.21587  1.0000
  H   H1513     1.0  0.72435  0.30004  0.15938  1.0000
  H   H1514     1.0  0.50879  0.01586  0.01401  1.0000
  N   N63       1.0  0.69954  0.06099  0.14209  1.0000
  H   H1515     1.0  0.50032  0.05498  0.13417  1.0000
  H   H1516     1.0  0.56347  0.02469  0.04248  1.0000
  H   H1517     1.0  0.82961  0.21931  0.23345  1.0000
  C   C883      1.0  0.76755  0.19672  0.10405  1.0000
  C   C884      1.0  0.75920  0.17834  0.11325  1.0000
  C   C885      1.0  0.73725  0.17984  0.12083  1.0000
  C   C886      1.0  0.72354  0.19967  0.11836  1.0000
  C   C887      1.0  0.73180  0.21793  0.10815  1.0000
  C   C888      1.0  0.75383  0.21652  0.10139  1.0000
  H   H1518     1.0  0.76971  0.16297  0.11493  1.0000
  H   H1519     1.0  0.73093  0.16564  0.12841  1.0000
  H   H1520     1.0  0.72120  0.23324  0.10583  1.0000
  H   H1521     1.0  0.76017  0.23073  0.09404  1.0000
  C   C889      1.0  0.75725  0.28513  0.15854  1.0000
  C   C890      1.0  0.73653  0.29293  0.16857  1.0000
  C   C891      1.0  0.73140  0.29129  0.19054  1.0000
  C   C892      1.0  0.74711  0.28228  0.20249  1.0000
  C   C893      1.0  0.76795  0.27486  0.19237  1.0000
  C   C894      1.0  0.77297  0.27610  0.17045  1.0000
  S   S277      1.0  0.63559  0.05757  0.00497  1.0000
  C   C895      1.0  0.90995  0.28236  0.99016  1.0000
  H   H1522     1.0  0.78017  0.26785  0.20152  1.0000
  H   H1523     1.0  0.78902  0.27032  0.16270  1.0000
  C   C896      1.0  0.79571  0.21330  0.19635  1.0000
  C   C897      1.0  0.81210  0.22005  0.18012  1.0000
  C   C898      1.0  0.83172  0.20636  0.17623  1.0000
  C   C899      1.0  0.83554  0.18642  0.18975  1.0000
  H   H1524     1.0  0.78025  0.22367  0.19852  1.0000
  H   H1525     1.0  0.80935  0.23564  0.17006  1.0000
  H   H1526     1.0  0.85079  0.17585  0.18683  1.0000
  C   C900      1.0  0.74474  0.11069  0.20162  1.0000
  C   C901      1.0  0.53378  0.02125  0.08571  1.0000
  C   C902      1.0  0.90091  0.30211  0.05736  1.0000
  C   C903      1.0  0.89546  0.28406  0.07208  1.0000
  C   C904      1.0  0.87852  0.27582  0.07082  1.0000
  C   C905      1.0  0.86728  0.28553  0.05467  1.0000
  C   C906      1.0  0.87321  0.30312  0.03963  1.0000
  C   C907      1.0  0.89018  0.31119  0.04077  1.0000
  H   H1527     1.0  0.90386  0.27688  0.08485  1.0000
  H   H1528     1.0  0.87400  0.26216  0.08247  1.0000
  N   N64       1.0  0.56043  0.00405  0.02372  1.0000
  H   H1529     1.0  0.87370  0.26273  0.99649  1.0000
  H   H1530     1.0  0.74371  0.24650  0.18766  1.0000
  C   C908      1.0  0.69985  0.05650  0.12107  1.0000
  H   H1531     1.0  0.63265  0.23332  0.20516  1.0000
  H   H1532     1.0  0.67331  0.04717  0.16312  1.0000
  H   H1533     1.0  0.71638  0.05275  0.11197  1.0000
  H   H1534     1.0  0.63693  0.01292  0.02306  1.0000
  H   H1535     1.0  0.74170  0.07060  0.13196  1.0000
  H   H1536     1.0  0.69183  0.07079  0.11099  1.0000
  C   C909      1.0  0.49615  0.08783  0.11750  1.0000
  N   N65       1.0  0.70889  0.23458  0.17324  1.0000
  C   C910      1.0  0.68569  0.23770  0.17303  1.0000
  C   C911      1.0  0.71780  0.21108  0.17641  1.0000
  C   C912      1.0  0.71940  0.24598  0.15195  1.0000
  C   C913      1.0  0.71062  0.24390  0.19078  1.0000
  C   C914      1.0  0.67368  0.26095  0.16825  1.0000
  C   C915      1.0  0.70798  0.19755  0.19741  1.0000
  C   C916      1.0  0.74353  0.23886  0.14505  1.0000
  C   C917      1.0  0.73194  0.23729  0.19816  1.0000
  H   H1537     1.0  0.68355  0.22968  0.16132  1.0000
  H   H1538     1.0  0.67702  0.23019  0.18849  1.0000
  H   H1539     1.0  0.73507  0.20744  0.17568  1.0000
  H   H1540     1.0  0.71597  0.20481  0.16329  1.0000
  H   H1541     1.0  0.71257  0.24413  0.13920  1.0000
  H   H1542     1.0  0.71626  0.26338  0.15104  1.0000
  H   H1543     1.0  0.70748  0.26152  0.18616  1.0000
  H   H1544     1.0  0.55946  0.05085  0.00973  1.0000
  H   H1545     1.0  0.67969  0.26936  0.15197  1.0000
  H   H1546     1.0  0.65668  0.26105  0.16952  1.0000
  H   H1547     1.0  0.67418  0.26986  0.17983  1.0000
  H   H1548     1.0  0.86037  0.29578  0.10635  1.0000
  C   C918      1.0  0.65103  0.23023  0.22831  1.0000
  H   H1549     1.0  0.90913  0.29787  0.99374  1.0000
  H   H1550     1.0  0.74787  0.22253  0.14225  1.0000
  H   H1551     1.0  0.75231  0.24015  0.15632  1.0000
  H   H1552     1.0  0.74903  0.24927  0.12967  1.0000
  H   H1553     1.0  0.69783  0.24088  0.20507  1.0000
  H   H1554     1.0  0.73892  0.22015  0.20027  1.0000
  H   H1555     1.0  0.72369  0.05910  0.17269  1.0000
  C   C919      1.0  0.70685  0.08165  0.13764  1.0000
  H   H1556     1.0  0.75837  0.06152  0.19060  1.0000
  H   H1557     1.0  0.86416  0.31101  0.02753  1.0000
  H   H1558     1.0  0.68049  0.07322  0.18259  1.0000
  C   C920      1.0  0.72942  0.08234  0.12424  1.0000
  C   C921      1.0  0.51648  0.02696  0.07574  1.0000
  H   H1559     1.0  0.88114  0.30826  0.10618  1.0000
  H   H1560     1.0  0.53058  0.02529  0.03203  1.0000
  H   H1561     1.0  0.71534  0.29721  0.19818  1.0000
  H   H1562     1.0  0.66545  0.07005  0.14405  1.0000
  S   S278      1.0  0.77718  0.18385  0.22672  1.0000
  H   H1563     1.0  0.58572  0.04712  0.01343  1.0000
  H   H1564     1.0  0.66965  0.09419  0.16303  1.0000
  H   H1565     1.0  0.69733  0.02259  0.13032  1.0000
  N   N66       1.0  0.80101  0.14714  0.16053  1.0000
  C   C922      1.0  0.78411  0.16682  0.15678  1.0000
  C   C923      1.0  0.80204  0.13402  0.14497  1.0000
  C   C924      1.0  0.82249  0.15248  0.15719  1.0000
  C   C925      1.0  0.79531  0.13536  0.18304  1.0000
  C   C926      1.0  0.78144  0.18298  0.17028  1.0000
  C   C927      1.0  0.78358  0.12227  0.14974  1.0000
  C   C928      1.0  0.82961  0.16748  0.13604  1.0000
  C   C929      1.0  0.81060  0.11421  0.18954  1.0000
  H   H1566     1.0  0.78710  0.17533  0.14002  1.0000
  H   H1567     1.0  0.76826  0.16276  0.15967  1.0000
  H   H1568     1.0  0.81709  0.12200  0.14338  1.0000
  H   H1569     1.0  0.80242  0.14415  0.12878  1.0000
  H   H1570     1.0  0.82333  0.15958  0.17011  1.0000
  H   H1571     1.0  0.83506  0.13780  0.15808  1.0000
  H   H1572     1.0  0.79502  0.14521  0.19420  1.0000
  H   H1573     1.0  0.77880  0.13266  0.18707  1.0000
  H   H1574     1.0  0.77386  0.17720  0.18692  1.0000
  H   H1575     1.0  0.79661  0.18734  0.16937  1.0000
  H   H1576     1.0  0.77088  0.19781  0.16414  1.0000
  H   H1577     1.0  0.76780  0.13303  0.15158  1.0000
  H   H1578     1.0  0.78502  0.11480  0.13636  1.0000
  H   H1579     1.0  0.78410  0.10930  0.16403  1.0000
  H   H1580     1.0  0.84601  0.16932  0.13495  1.0000
  H   H1581     1.0  0.81956  0.18360  0.13495  1.0000
  H   H1582     1.0  0.82979  0.16125  0.12224  1.0000
  H   H1583     1.0  0.82365  0.11694  0.19534  1.0000
  H   H1584     1.0  0.81765  0.10554  0.17663  1.0000
  H   H1585     1.0  0.80170  0.10338  0.20231  1.0000
  H   H1586     1.0  0.70825  0.02772  0.15657  1.0000
  H   H1587     1.0  0.49758  0.02226  0.13018  1.0000
  C   C930      1.0  0.71776  0.04462  0.17415  1.0000
  C   C931      1.0  0.53926  0.01675  0.01913  1.0000
  H   H1588     1.0  0.64019  0.19467  0.20632  1.0000
  C   C932      1.0  0.68938  0.03803  0.12194  1.0000
  C   C933      1.0  0.57182  0.01911  0.02762  1.0000
  C   C934      1.0  0.51026  0.04807  0.06561  1.0000
  H   H1589     1.0  0.51651  0.07977  0.05773  1.0000
  H   H1590     1.0  0.73665  0.12660  0.19594  1.0000
  C   C935      1.0  0.71419  0.04266  0.15307  1.0000
  C   C936      1.0  0.82894  0.32077  0.08193  1.0000
  C   C937      1.0  0.63084  0.00024  0.99928  1.0000
  H   H1591     1.0  0.70641  0.08632  0.15242  1.0000
  H   H1592     1.0  0.86674  0.28433  0.00920  1.0000
  S   S279      1.0  0.67788  0.29738  0.23427  1.0000
  H   H1593     1.0  0.83723  0.30418  0.08674  1.0000
  H   H1594     1.0  0.83609  0.26993  0.01375  1.0000
  H   H1595     1.0  0.67213  0.04103  0.12897  1.0000
  C   C938      1.0  0.74613  0.09451  0.19135  1.0000
  C   C939      1.0  0.79899  0.19284  0.20893  1.0000
  C   C940      1.0  0.81910  0.17961  0.20615  1.0000
  H   H1596     1.0  0.90336  0.27156  0.00472  1.0000
  H   H1597     1.0  0.57269  0.00649  0.99010  1.0000
  H   H1598     1.0  0.73277  0.09823  0.12270  1.0000
  C   C941      1.0  0.63231  0.03709  0.99516  1.0000
  H   H1599     1.0  0.80794  0.31016  0.06887  1.0000
  C   C942      1.0  0.67017  0.07731  0.17105  1.0000
  C   C943      1.0  0.76613  0.06963  0.21632  1.0000
  H   H1600     1.0  0.73010  0.03982  0.14252  1.0000
  H   H1601     1.0  0.69575  0.09477  0.12943  1.0000
  C   C944      1.0  0.67694  0.06304  0.15473  1.0000
  H   H1602     1.0  0.54144  0.02920  0.00443  1.0000
  H   H1603     1.0  0.58162  0.03534  0.99427  1.0000
  H   H1604     1.0  0.79862  0.31011  0.09609  1.0000
  C   C945      1.0  0.65943  0.18649  0.22971  1.0000
  C   C946      1.0  0.52130  0.06343  0.06554  1.0000
  C   C947      1.0  0.76484  0.08577  0.22656  1.0000
  H   H1605     1.0  0.77429  0.05368  0.22205  1.0000
  H   H1606     1.0  0.72912  0.24049  0.21414  1.0000
  S   S280      1.0  0.74103  0.27997  0.23003  1.0000
  C   C948      1.0  0.52401  0.00459  0.01596  1.0000
  H   H1607     1.0  0.85793  0.30975  0.12671  1.0000
  C   C949      1.0  0.49214  0.06515  0.12136  1.0000
  C   C950      1.0  0.86360  0.30992  0.10960  1.0000
  H   H1608     1.0  0.51097  0.08676  0.12277  1.0000
  H   H1609     1.0  0.49959  0.09493  0.10030  1.0000
  H   H1610     1.0  0.79178  0.22626  0.23535  1.0000
  H   H1611     1.0  0.75961  0.22665  0.23539  1.0000
  S   S281      1.0  0.91973  0.31446  0.06067  1.0000
  S   S282      1.0  0.50351  0.00717  0.07563  1.0000
  H   H1612     1.0  0.87743  0.31668  0.99121  1.0000
  H   H1613     1.0  0.54704  0.99489  0.05693  1.0000
  C   C951      1.0  0.57380  0.99473  0.00524  1.0000
  H   H1614     1.0  0.53017  0.99856  0.00120  1.0000
  H   H1615     1.0  0.52006  0.99178  0.02977  1.0000
  H   H1616     1.0  0.59073  0.99119  0.00633  1.0000
  H   H1617     1.0  0.80356  0.14475  0.34458  1.0000
  C   C952      1.0  0.64809  0.32190  0.31647  1.0000
  H   H1618     1.0  0.62056  0.25988  0.37214  1.0000
  H   H1619     1.0  0.64351  0.10752  0.31009  1.0000
  Fe  Fe141     1.0  0.76490  0.13287  0.29357  1.0000
  S   S283      1.0  0.79063  0.15142  0.28024  1.0000
  S   S284      1.0  0.74183  0.13906  0.32333  1.0000
  H   H1620     1.0  0.69974  0.11280  0.33328  1.0000
  H   H1621     1.0  0.63604  0.25044  0.32345  1.0000
  Fe  Fe142     1.0  0.81223  0.12024  0.27631  1.0000
  S   S285      1.0  0.84369  0.11409  0.28589  1.0000
  H   H1622     1.0  0.95764  0.02109  0.46099  1.0000
  S   S286      1.0  0.78686  0.10138  0.29226  1.0000
  S   S287      1.0  0.68129  0.22977  0.31617  1.0000
  H   H1623     1.0  0.97656  0.13189  0.39488  1.0000
  Fe  Fe143     1.0  0.90513  0.03512  0.40758  1.0000
  S   S288      1.0  0.93937  0.01981  0.39806  1.0000
  Fe  Fe144     1.0  0.89316  0.02857  0.36930  1.0000
  H   H1624     1.0  0.63320  0.13018  0.29087  1.0000
  S   S289      1.0  0.86648  0.03027  0.35374  1.0000
  S   S290      1.0  0.80794  0.12332  0.24339  1.0000
  H   H1625     1.0  0.81594  0.07213  0.39371  1.0000
  Fe  Fe145     1.0  0.93607  0.03824  0.36560  1.0000
  S   S291      1.0  0.96022  0.05551  0.34238  1.0000
  H   H1626     1.0  0.60539  0.22487  0.33178  1.0000
  S   S292      1.0  0.90277  0.05578  0.37554  1.0000
  C   C953      1.0  0.79160  0.08176  0.35618  1.0000
  C   C954      1.0  0.88417  0.00150  0.48552  1.0000
  C   C955      1.0  0.96960  0.10281  0.39051  1.0000
  H   H1627     1.0  0.66482  0.12311  0.26343  1.0000
  H   H1628     1.0  0.76063  0.25062  0.30078  1.0000
  H   H1629     1.0  0.67420  0.09822  0.27909  1.0000
  H   H1630     1.0  0.71067  0.13408  0.27552  1.0000
  H   H1631     1.0  0.57723  0.27303  0.34269  1.0000
  Fe  Fe146     1.0  0.66458  0.30008  0.26806  1.0000
  H   H1632     1.0  0.60461  0.27889  0.29811  1.0000
  H   H1633     1.0  0.95478  0.11056  0.38448  1.0000
  C   C956      1.0  0.85121  0.08983  0.30314  1.0000
  C   C957      1.0  0.86834  0.08710  0.31276  1.0000
  C   C958      1.0  0.87353  0.06860  0.32793  1.0000
  C   C959      1.0  0.86161  0.05274  0.33350  1.0000
  C   C960      1.0  0.84487  0.05520  0.32345  1.0000
  C   C961      1.0  0.83972  0.07366  0.30826  1.0000
  H   H1634     1.0  0.87740  0.09948  0.30873  1.0000
  H   H1635     1.0  0.88662  0.06675  0.33541  1.0000
  H   H1636     1.0  0.83576  0.04287  0.32753  1.0000
  H   H1637     1.0  0.82686  0.07536  0.30054  1.0000
  C   C962      1.0  0.91540  0.05487  0.48294  1.0000
  Fe  Fe147     1.0  0.78383  0.15266  0.24900  1.0000
  C   C963      1.0  0.82163  0.09355  0.36203  1.0000
  H   H1638     1.0  0.80088  0.19263  0.28513  1.0000
  S   S293      1.0  0.92628  0.01251  0.35681  1.0000
  C   C964      1.0  0.92770  0.03162  0.45120  1.0000
  C   C965      1.0  0.74964  0.22366  0.25143  1.0000
  C   C966      1.0  0.81148  0.13442  0.33316  1.0000
  N   N67       1.0  0.61089  0.26988  0.34181  1.0000
  H   H1639     1.0  0.77147  0.25284  0.25360  1.0000
  C   C967      1.0  0.72494  0.16421  0.32043  1.0000
  C   C968      1.0  0.71148  0.17050  0.33844  1.0000
  C   C969      1.0  0.69811  0.19058  0.33680  1.0000
  C   C970      1.0  0.69796  0.20451  0.31713  1.0000
  C   C971      1.0  0.71107  0.19810  0.29897  1.0000
  C   C972      1.0  0.72469  0.17798  0.30062  1.0000
  H   H1640     1.0  0.71153  0.15991  0.35376  1.0000
  H   H1641     1.0  0.68795  0.19539  0.35088  1.0000
  H   H1642     1.0  0.71075  0.20864  0.28372  1.0000
  H   H1643     1.0  0.73491  0.17315  0.28658  1.0000
  C   C973      1.0  0.75537  0.25070  0.28636  1.0000
  C   C974      1.0  0.77901  0.09917  0.39670  1.0000
  Fe  Fe148     1.0  0.68203  0.25353  0.28516  1.0000
  H   H1644     1.0  0.84305  0.07044  0.38046  1.0000
  H   H1645     1.0  0.76282  0.10639  0.40437  1.0000
  C   C975      1.0  0.71304  0.10503  0.26638  1.0000
  H   H1646     1.0  0.79146  0.12515  0.37550  1.0000
  H   H1647     1.0  0.75692  0.09298  0.36558  1.0000
  H   H1648     1.0  0.83341  0.09142  0.34720  1.0000
  H   H1649     1.0  0.76471  0.07140  0.35234  1.0000
  H   H1650     1.0  0.61779  0.28748  0.36143  1.0000
  H   H1651     1.0  0.81075  0.14446  0.31715  1.0000
  H   H1652     1.0  0.77821  0.08264  0.39754  1.0000
  H   H1653     1.0  0.76948  0.12084  0.36886  1.0000
  H   H1654     1.0  0.86149  0.99607  0.47128  1.0000
  H   H1655     1.0  0.75018  0.21033  0.28364  1.0000
  H   H1656     1.0  0.79038  0.09923  0.40619  1.0000
  H   H1657     1.0  0.82669  0.05867  0.37191  1.0000
  S   S294      1.0  0.89030  0.04762  0.43721  1.0000
  C   C976      1.0  0.66326  0.21605  0.24213  1.0000
  C   C977      1.0  0.77452  0.20085  0.30937  1.0000
  C   C978      1.0  0.66756  0.19426  0.24274  1.0000
  H   H1658     1.0  0.82666  0.21349  0.26144  1.0000
  H   H1659     1.0  0.65457  0.25087  0.34979  1.0000
  C   C979      1.0  0.62327  0.27165  0.35705  1.0000
  C   C980      1.0  0.76215  0.21117  0.26871  1.0000
  H   H1660     1.0  0.74272  0.24141  0.29075  1.0000
  H   H1661     1.0  0.55002  0.30242  0.46551  1.0000
  H   H1662     1.0  0.92349  0.09234  0.40968  1.0000
  H   H1663     1.0  0.96697  0.06114  0.40782  1.0000
  Fe  Fe149     1.0  0.66639  0.26668  0.24415  1.0000
  H   H1664     1.0  0.76177  0.21409  0.31395  1.0000
  H   H1665     1.0  0.71397  0.09219  0.28067  1.0000
  C   C981      1.0  0.79738  0.21683  0.24992  1.0000
  C   C982      1.0  0.93589  0.04256  0.47938  1.0000
  S   S295      1.0  0.75616  0.13648  0.26268  1.0000
  H   H1666     1.0  0.95889  0.11859  0.42874  1.0000
  N   N68       1.0  0.79941  0.10051  0.35774  1.0000
  H   H1667     1.0  0.78347  0.19441  0.32230  1.0000
  H   H1668     1.0  0.65315  0.27738  0.33380  1.0000
  C   C983      1.0  0.90127  0.05602  0.47020  1.0000
  H   H1669     1.0  0.62936  0.28820  0.31491  1.0000
  Fe  Fe150     1.0  0.78071  0.10683  0.25969  1.0000
  C   C984      1.0  0.94192  0.03076  0.46366  1.0000
  H   H1670     1.0  0.69637  0.13696  0.25616  1.0000
  H   H1671     1.0  0.97762  0.05667  0.44671  1.0000
  H   H1672     1.0  0.72955  0.10677  0.25869  1.0000
  H   H1673     1.0  0.69395  0.16387  0.28458  1.0000
  Fe  Fe151     1.0  0.70705  0.27804  0.24599  1.0000
  H   H1674     1.0  0.74745  0.26714  0.27996  1.0000
  S   S296      1.0  0.69672  0.24696  0.25298  1.0000
  H   H1675     1.0  0.98942  0.99397  0.45426  1.0000
  C   C985      1.0  0.95494  0.07353  0.41511  1.0000
  C   C986      1.0  0.79003  0.20768  0.28848  1.0000
  C   C987      1.0  0.94982  0.10823  0.42566  1.0000
  S   S297      1.0  0.69472  0.28316  0.27920  1.0000
  C   C988      1.0  0.93556  0.07873  0.40475  1.0000
  C   C989      1.0  0.80039  0.11573  0.33647  1.0000
  C   C990      1.0  0.93569  0.09954  0.44692  1.0000
  H   H1676     1.0  0.78793  0.24916  0.27120  1.0000
  C   C991      1.0  0.58800  0.27145  0.35331  1.0000
  H   H1677     1.0  0.94991  0.06537  0.43164  1.0000
  N   N69       1.0  0.78056  0.21998  0.26951  1.0000
  H   H1678     1.0  0.68107  0.15585  0.31217  1.0000
  H   H1679     1.0  0.93238  0.02222  0.43939  1.0000
  H   H1680     1.0  0.76737  0.18782  0.30854  1.0000
  C   C992      1.0  0.67876  0.16160  0.29567  1.0000
  H   H1681     1.0  0.93248  0.11070  0.45757  1.0000
  H   H1682     1.0  0.87549  0.01824  0.48447  1.0000
  H   H1683     1.0  0.56995  0.31659  0.44939  1.0000
  H   H1684     1.0  0.94039  0.08179  0.38724  1.0000
  H   H1685     1.0  0.92786  0.06480  0.40957  1.0000
  H   H1686     1.0  0.65455  0.27235  0.36087  1.0000
  C   C993      1.0  0.77444  0.24338  0.26932  1.0000
  H   H1687     1.0  0.58904  0.25298  0.38586  1.0000
  H   H1688     1.0  0.80009  0.21682  0.29194  1.0000
  H   H1689     1.0  0.60769  0.30362  0.32964  1.0000
  H   H1690     1.0  0.94259  0.08389  0.45565  1.0000
  H   H1691     1.0  0.91986  0.09914  0.44464  1.0000
  N   N70       1.0  0.67971  0.12518  0.28784  1.0000
  C   C994      1.0  0.66639  0.11494  0.27992  1.0000
  C   C995      1.0  0.69991  0.12647  0.27133  1.0000
  C   C996      1.0  0.66749  0.14725  0.28966  1.0000
  C   C997      1.0  0.68361  0.11205  0.30911  1.0000
  C   C998      1.0  0.58316  0.25278  0.37192  1.0000
  C   C999      1.0  0.64769  0.26790  0.34964  1.0000
  C   C1000     1.0  0.70340  0.11402  0.31592  1.0000
  H   H1692     1.0  0.65090  0.31551  0.34899  1.0000
  C   C1001     1.0  0.59974  0.29203  0.30658  1.0000
  H   H1693     1.0  0.88562  0.06602  0.47260  1.0000
  H   H1694     1.0  0.80114  0.19993  0.24854  1.0000
  H   H1695     1.0  0.65257  0.14668  0.30184  1.0000
  H   H1696     1.0  0.66954  0.11571  0.32181  1.0000
  H   H1697     1.0  0.68557  0.09488  0.30946  1.0000
  H   H1698     1.0  0.60311  0.30640  0.29437  1.0000
  H   H1699     1.0  0.66845  0.17766  0.29492  1.0000
  H   H1700     1.0  0.61590  0.24051  0.30707  1.0000
  H   H1701     1.0  0.58237  0.29520  0.31274  1.0000
  S   S298      1.0  0.77622  0.07953  0.24888  1.0000
  H   H1702     1.0  0.56566  0.25438  0.37712  1.0000
  H   H1703     1.0  0.67810  0.18363  0.25250  1.0000
  H   H1704     1.0  0.97623  0.08065  0.45563  1.0000
  H   H1705     1.0  0.76698  0.09727  0.33731  1.0000
  H   H1706     1.0  0.58231  0.28630  0.35954  1.0000
  H   H1707     1.0  0.79219  0.06883  0.37045  1.0000
  H   H1708     1.0  0.78423  0.12295  0.33327  1.0000
  S   S299      1.0  0.65073  0.27090  0.27690  1.0000
  C   C1002     1.0  0.61267  0.28874  0.32359  1.0000
  H   H1709     1.0  0.80229  0.07440  0.34310  1.0000
  H   H1710     1.0  0.66365  0.31265  0.31137  1.0000
  H   H1711     1.0  0.93849  0.11896  0.41591  1.0000
  H   H1712     1.0  0.82861  0.12894  0.33353  1.0000
  H   H1713     1.0  0.82589  0.10605  0.36739  1.0000
  H   H1714     1.0  0.80880  0.10719  0.32355  1.0000
  H   H1715     1.0  0.66978  0.22186  0.25207  1.0000
  C   C1003     1.0  0.82667  0.07255  0.37807  1.0000
  N   N71       1.0  0.96462  0.09212  0.41361  1.0000
  C   C1004     1.0  0.78461  0.11220  0.37402  1.0000
  H   H1716     1.0  0.59125  0.25093  0.32269  1.0000
  H   H1717     1.0  0.66238  0.15584  0.27458  1.0000
  C   C1005     1.0  0.76873  0.08645  0.35267  1.0000
  H   H1718     1.0  0.62456  0.23628  0.34808  1.0000
  C   C1006     1.0  0.62048  0.24931  0.33454  1.0000
  H   H1719     1.0  0.76758  0.19447  0.26682  1.0000
  H   H1720     1.0  0.74041  0.23895  0.25523  1.0000
  C   C1007     1.0  0.60727  0.24129  0.32353  1.0000
  H   H1721     1.0  0.70890  0.12907  0.30873  1.0000
  C   C1008     1.0  0.64371  0.11423  0.29307  1.0000
  C   C1009     1.0  0.90757  0.04471  0.45403  1.0000
  H   H1722     1.0  0.63672  0.10394  0.28733  1.0000
  S   S300      1.0  0.89233  0.00951  0.40240  1.0000
  H   H1723     1.0  0.58950  0.23717  0.36748  1.0000
  H   H1724     1.0  0.71678  0.10056  0.31292  1.0000
  H   H1725     1.0  0.56657  0.31163  0.47733  1.0000
  H   H1726     1.0  0.73823  0.21437  0.25083  1.0000
  C   C1010     1.0  0.55788  0.31559  0.46441  1.0000
  H   H1727     1.0  0.81688  0.24009  0.24724  1.0000
  H   H1728     1.0  0.88487  0.00220  0.45305  1.0000
  H   H1729     1.0  0.70662  0.10011  0.25511  1.0000
  H   H1730     1.0  0.90126  0.00190  0.48252  1.0000
  C   C1011     1.0  0.81872  0.22288  0.24830  1.0000
  H   H1731     1.0  0.98354  0.01357  0.35479  1.0000
  H   H1732     1.0  0.51052  0.31503  0.48391  1.0000
  H   H1733     1.0  0.97838  0.03730  0.38013  1.0000
  C   C1012     1.0  0.87910  0.99245  0.46887  1.0000
  H   H1734     1.0  0.98096  0.10467  0.48407  1.0000
  H   H1735     1.0  0.97808  0.09095  0.38070  1.0000
  C   C1013     1.0  0.98451  0.07088  0.44376  1.0000
  Fe  Fe152     1.0  0.92634  0.99559  0.39040  1.0000
  C   C1014     1.0  0.98136  0.06004  0.35052  1.0000
  C   C1015     1.0  0.98300  0.12006  0.38477  1.0000
  C   C1016     1.0  0.98537  0.08411  0.42105  1.0000
  H   H1736     1.0  0.97229  0.00959  0.32515  1.0000
  C   C1017     1.0  0.98723  0.04886  0.36967  1.0000
  H   H1737     1.0  0.98295  0.12864  0.36813  1.0000
  H   H1738     1.0  0.98837  0.08368  0.32226  1.0000
  C   C1018     1.0  0.98170  0.99516  0.33376  1.0000
  C   C1019     1.0  0.64087  0.32353  0.33771  1.0000
  H   H1739     1.0  0.68918  0.31280  0.63299  1.0000
  Fe  Fe153     1.0  0.68347  0.29785  0.68632  1.0000
  H   H1740     1.0  0.56866  0.31181  0.60826  1.0000
  Fe  Fe154     1.0  0.87481  0.13447  0.67288  1.0000
  H   H1741     1.0  0.85913  0.08768  0.59328  1.0000
  C   C1020     1.0  0.91218  0.23448  0.70057  1.0000
  S   S301      1.0  0.98015  0.01083  0.58601  1.0000
  H   H1742     1.0  0.97152  0.08164  0.59898  1.0000
  Fe  Fe155     1.0  0.69425  0.25051  0.70467  1.0000
  S   S302      1.0  0.69536  0.26948  0.67147  1.0000
  H   H1743     1.0  0.67716  0.31669  0.60155  1.0000
  Fe  Fe156     1.0  0.71310  0.28083  0.71690  1.0000
  H   H1744     1.0  0.97476  0.12266  0.50136  1.0000
  C   C1021     1.0  0.93672  0.15894  0.64408  1.0000
  H   H1745     1.0  0.94685  0.16349  0.65221  1.0000
  S   S303      1.0  0.62848  0.31924  0.59699  1.0000
  Fe  Fe157     1.0  0.72760  0.27266  0.67282  1.0000
  S   S304      1.0  0.75375  0.27024  0.64415  1.0000
  S   S305      1.0  0.67945  0.27860  0.71955  1.0000
  S   S306      1.0  0.72776  0.25113  0.70467  1.0000
  S   S307      1.0  0.84048  0.13459  0.68806  1.0000
  H   H1746     1.0  0.98384  0.08096  0.51708  1.0000
  Fe  Fe158     1.0  0.83446  0.16760  0.66842  1.0000
  S   S308      1.0  0.80799  0.17687  0.65068  1.0000
  S   S309      1.0  0.86828  0.16606  0.65106  1.0000
  Fe  Fe159     1.0  0.87211  0.17913  0.67702  1.0000
  C   C1022     1.0  0.84748  0.08607  0.65848  1.0000
  H   H1747     1.0  0.92119  0.06869  0.60506  1.0000
  H   H1748     1.0  0.95540  0.11072  0.53247  1.0000
  C   C1023     1.0  0.77031  0.31654  0.72483  1.0000
  Fe  Fe160     1.0  0.91931  0.06636  0.56269  1.0000
  S   S310      1.0  0.80833  0.31243  0.73608  1.0000
  H   H1749     1.0  0.53054  0.30645  0.49877  1.0000
  Fe  Fe161     1.0  0.95245  0.02643  0.57048  1.0000
  C   C1024     1.0  0.64109  0.30353  0.63454  1.0000
  H   H1750     1.0  0.80888  0.10989  0.65220  1.0000
  C   C1025     1.0  0.70538  0.31544  0.62494  1.0000
  H   H1751     1.0  0.76873  0.21291  0.70847  1.0000
  C   C1026     1.0  0.90304  0.10472  0.63633  1.0000
  C   C1027     1.0  0.89783  0.12288  0.62099  1.0000
  C   C1028     1.0  0.90035  0.12134  0.60000  1.0000
  H   H1752     1.0  0.89148  0.13803  0.62531  1.0000
  H   H1753     1.0  0.89567  0.13531  0.58831  1.0000
  C   C1029     1.0  0.81514  0.12162  0.63825  1.0000
  S   S311      1.0  0.89294  0.20310  0.66757  1.0000
  C   C1030     1.0  0.88005  0.21189  0.70737  1.0000
  H   H1754     1.0  0.97723  0.08281  0.55445  1.0000
  H   H1755     1.0  0.74837  0.31297  0.61394  1.0000
  H   H1756     1.0  0.98018  0.14456  0.64151  1.0000
  H   H1757     1.0  0.79114  0.25612  0.70255  1.0000
  S   S312      1.0  0.94312  0.01084  0.54969  1.0000
  C   C1031     1.0  0.94031  0.13468  0.64696  1.0000
  H   H1758     1.0  0.85473  0.11661  0.64382  1.0000
  C   C1032     1.0  0.76922  0.24452  0.64594  1.0000
  C   C1033     1.0  0.78085  0.23573  0.66189  1.0000
  C   C1034     1.0  0.79381  0.21539  0.66277  1.0000
  C   C1035     1.0  0.79413  0.20334  0.64845  1.0000
  C   C1036     1.0  0.78219  0.21208  0.63272  1.0000
  C   C1037     1.0  0.77012  0.23280  0.63119  1.0000
  H   H1759     1.0  0.77957  0.24455  0.67367  1.0000
  H   H1760     1.0  0.80273  0.20875  0.67510  1.0000
  H   H1761     1.0  0.78234  0.20286  0.62163  1.0000
  H   H1762     1.0  0.76111  0.23955  0.61886  1.0000
  C   C1038     1.0  0.85028  0.07870  0.60784  1.0000
  H   H1763     1.0  0.78158  0.18218  0.69635  1.0000
  H   H1764     1.0  0.68726  0.28128  0.62840  1.0000
  H   H1765     1.0  0.73013  0.15124  0.72979  1.0000
  C   C1039     1.0  0.98264  0.09805  0.54800  1.0000
  H   H1766     1.0  0.91070  0.06422  0.49491  1.0000
  C   C1040     1.0  0.83070  0.09306  0.61877  1.0000
  S   S313      1.0  0.71604  0.30262  0.68501  1.0000
  H   H1767     1.0  0.95681  0.13983  0.58392  1.0000
  H   H1768     1.0  0.69455  0.31859  0.57638  1.0000
  H   H1769     1.0  0.78992  0.14084  0.70172  1.0000
  H   H1770     1.0  0.78204  0.13222  0.68248  1.0000
  C   C1041     1.0  0.97479  0.05003  0.59464  1.0000
  H   H1771     1.0  0.85492  0.28431  0.66178  1.0000
  S   S314      1.0  0.89722  0.10549  0.66320  1.0000
  H   H1772     1.0  0.78660  0.28180  0.66446  1.0000
  H   H1773     1.0  0.64089  0.28813  0.63228  1.0000
  H   H1774     1.0  0.65294  0.29077  0.66329  1.0000
  C   C1042     1.0  0.91462  0.08379  0.60937  1.0000
  C   C1043     1.0  0.90808  0.10163  0.59431  1.0000
  S   S315      1.0  0.91929  0.03651  0.58791  1.0000
  H   H1775     1.0  0.86771  0.20306  0.71007  1.0000
  H   H1776     1.0  0.80276  0.30037  0.69376  1.0000
  S   S316      1.0  0.88118  0.14739  0.69771  1.0000
  H   H1777     1.0  0.75616  0.29436  0.59669  1.0000
  S   S317      1.0  0.90636  0.05462  0.54107  1.0000
  C   C1044     1.0  0.73423  0.18915  0.70507  1.0000
  H   H1778     1.0  0.84491  0.07167  0.65509  1.0000
  C   C1045     1.0  0.89458  0.21402  0.68802  1.0000
  C   C1046     1.0  0.96224  0.10068  0.64050  1.0000
  S   S318      1.0  0.95323  0.05704  0.54673  1.0000
  H   H1779     1.0  0.96693  0.07165  0.66460  1.0000
  C   C1047     1.0  0.91210  0.08531  0.63034  1.0000
  H   H1780     1.0  0.70185  0.26022  0.61550  1.0000
  H   H1781     1.0  0.92465  0.24316  0.69787  1.0000
  C   C1048     1.0  0.77135  0.17860  0.71233  1.0000
  H   H1782     1.0  0.68454  0.28162  0.60217  1.0000
  H   H1783     1.0  0.91998  0.16490  0.65144  1.0000
  H   H1784     1.0  0.86759  0.28422  0.68239  1.0000
  H   H1785     1.0  0.73999  0.19595  0.67023  1.0000
  H   H1786     1.0  0.93667  0.12808  0.66430  1.0000
  H   H1787     1.0  0.94773  0.11766  0.60217  1.0000
  H   H1788     1.0  0.82217  0.08275  0.63254  1.0000
  C   C1049     1.0  0.75028  0.31130  0.59752  1.0000
  Fe  Fe162     1.0  0.84618  0.15049  0.71098  1.0000
  C   C1050     1.0  0.64803  0.30499  0.65200  1.0000
  N   N72       1.0  0.81943  0.26941  0.68765  1.0000
  H   H1789     1.0  0.83394  0.09216  0.67042  1.0000
  C   C1051     1.0  0.83818  0.27237  0.69442  1.0000
  C   C1052     1.0  0.80589  0.25747  0.70645  1.0000
  C   C1053     1.0  0.82589  0.25846  0.66927  1.0000
  C   C1054     1.0  0.85197  0.28706  0.67795  1.0000
  H   H1790     1.0  0.81661  0.22378  0.70568  1.0000
  C   C1055     1.0  0.84651  0.24135  0.66826  1.0000
  H   H1791     1.0  0.98243  0.12351  0.60613  1.0000
  H   H1792     1.0  0.91650  0.07125  0.64206  1.0000
  H   H1793     1.0  0.84892  0.25702  0.69915  1.0000
  H   H1794     1.0  0.95078  0.11501  0.55845  1.0000
  H   H1795     1.0  0.81310  0.25080  0.66893  1.0000
  H   H1796     1.0  0.56218  0.31109  0.67101  1.0000
  H   H1797     1.0  0.84446  0.30398  0.67788  1.0000
  C   C1056     1.0  0.81586  0.23457  0.71596  1.0000
  C   C1057     1.0  0.91055  0.22540  0.68463  1.0000
  H   H1798     1.0  0.84488  0.06661  0.60300  1.0000
  H   H1799     1.0  0.71604  0.30301  0.63431  1.0000
  H   H1800     1.0  0.86087  0.24826  0.66448  1.0000
  H   H1801     1.0  0.84802  0.23312  0.65541  1.0000
  H   H1802     1.0  0.84682  0.22904  0.68290  1.0000
  N   N73       1.0  0.96203  0.12399  0.63700  1.0000
  C   C1058     1.0  0.73898  0.20381  0.68318  1.0000
  H   H1803     1.0  0.83264  0.27935  0.70873  1.0000
  H   H1804     1.0  0.97306  0.12548  0.66432  1.0000
  C   C1059     1.0  0.75892  0.15846  0.69380  1.0000
  H   H1805     1.0  0.72842  0.19950  0.71664  1.0000
  H   H1806     1.0  0.74009  0.31941  0.71684  1.0000
  C   C1060     1.0  0.95832  0.08839  0.66373  1.0000
  N   N74       1.0  0.75224  0.17123  0.71081  1.0000
  H   H1807     1.0  0.91034  0.00501  0.53222  1.0000
  C   C1061     1.0  0.95067  0.13359  0.60092  1.0000
  C   C1062     1.0  0.77605  0.13806  0.69740  1.0000
  C   C1063     1.0  0.80625  0.29121  0.68117  1.0000
  H   H1808     1.0  0.80063  0.26630  0.71941  1.0000
  C   C1064     1.0  0.71477  0.28900  0.60301  1.0000
  H   H1809     1.0  0.72013  0.18280  0.70552  1.0000
  S   S319      1.0  0.90818  0.09950  0.56875  1.0000
  H   H1810     1.0  0.82800  0.27011  0.65391  1.0000
  Fe  Fe163     1.0  0.94048  0.04255  0.52744  1.0000
  C   C1065     1.0  0.85199  0.10337  0.63838  1.0000
  S   S320      1.0  0.83759  0.18365  0.69248  1.0000
  H   H1811     1.0  0.86159  0.08106  0.66590  1.0000
  H   H1812     1.0  0.72582  0.21789  0.68185  1.0000
  H   H1813     1.0  0.92179  0.22709  0.66968  1.0000
  H   H1814     1.0  0.86131  0.06986  0.61854  1.0000
  S   S321      1.0  0.68434  0.21890  0.71492  1.0000
  H   H1815     1.0  0.72736  0.28027  0.61208  1.0000
  C   C1066     1.0  0.97832  0.12772  0.64686  1.0000
  C   C1067     1.0  0.78486  0.29191  0.67575  1.0000
  N   N75       1.0  0.83519  0.11117  0.62526  1.0000
  H   H1816     1.0  0.80539  0.22904  0.73130  1.0000
  C   C1068     1.0  0.57442  0.31141  0.62250  1.0000
  Fe  Fe164     1.0  0.90973  0.02381  0.56479  1.0000
  C   C1069     1.0  0.84317  0.12659  0.60556  1.0000
  C   C1070     1.0  0.89748  0.23273  0.71977  1.0000
  C   C1071     1.0  0.79656  0.13209  0.62675  1.0000
  H   H1817     1.0  0.93545  0.14444  0.60560  1.0000
  C   C1072     1.0  0.84470  0.14820  0.60873  1.0000
  H   H1818     1.0  0.78141  0.16563  0.72192  1.0000
  H   H1819     1.0  0.81977  0.09915  0.60750  1.0000
  H   H1820     1.0  0.81837  0.13375  0.64497  1.0000
  H   H1821     1.0  0.76565  0.16813  0.67838  1.0000
  H   H1822     1.0  0.97022  0.14927  0.61019  1.0000
  H   H1823     1.0  0.86748  0.09711  0.62876  1.0000
  H   H1824     1.0  0.85932  0.11958  0.59758  1.0000
  H   H1825     1.0  0.83317  0.12992  0.59365  1.0000
  H   H1826     1.0  0.74492  0.15388  0.69132  1.0000
  C   C1073     1.0  0.96730  0.13289  0.61354  1.0000
  H   H1827     1.0  0.76943  0.12516  0.70951  1.0000
  H   H1828     1.0  0.80082  0.14414  0.61231  1.0000
  H   H1829     1.0  0.79026  0.12012  0.62278  1.0000
  H   H1830     1.0  0.78339  0.14049  0.63749  1.0000
  H   H1831     1.0  0.83162  0.23293  0.71943  1.0000
  H   H1832     1.0  0.93911  0.16722  0.62724  1.0000
  H   H1833     1.0  0.92781  0.13130  0.64093  1.0000
  H   H1834     1.0  0.82886  0.15811  0.61333  1.0000
  H   H1835     1.0  0.85261  0.15720  0.59354  1.0000
  H   H1836     1.0  0.85426  0.14657  0.62049  1.0000
  H   H1837     1.0  0.75598  0.14263  0.73517  1.0000
  H   H1838     1.0  0.81517  0.30063  0.66692  1.0000
  C   C1074     1.0  0.76715  0.19868  0.72140  1.0000
  H   H1839     1.0  0.59039  0.30083  0.62129  1.0000
  H   H1840     1.0  0.77279  0.28748  0.69016  1.0000
  H   H1841     1.0  0.75367  0.20951  0.68092  1.0000
  C   C1075     1.0  0.96282  0.11481  0.54346  1.0000
  H   H1842     1.0  0.72104  0.28590  0.58678  1.0000
  H   H1843     1.0  0.95833  0.05221  0.59390  1.0000
  S   S322      1.0  0.95469  0.04314  0.49315  1.0000
  C   C1076     1.0  0.88135  0.22148  0.72316  1.0000
  C   C1077     1.0  0.69585  0.27765  0.61289  1.0000
  H   H1844     1.0  0.94968  0.09830  0.63375  1.0000
  C   C1078     1.0  0.50083  0.32113  0.51541  1.0000
  H   H1845     1.0  0.96431  0.09449  0.67435  1.0000
  H   H1846     1.0  0.97711  0.09222  0.63166  1.0000
  H   H1847     1.0  0.96619  0.13100  0.53746  1.0000
  H   H1848     1.0  0.56396  0.30411  0.63686  1.0000
  H   H1849     1.0  0.94111  0.08860  0.67006  1.0000
  C   C1079     1.0  0.98227  0.06666  0.59759  1.0000
  H   H1850     1.0  0.55099  0.31602  0.51285  1.0000
  N   N76       1.0  0.71026  0.31252  0.60250  1.0000
  C   C1080     1.0  0.72963  0.32080  0.58908  1.0000
  S   S323      1.0  0.88600  0.00271  0.57486  1.0000
  C   C1081     1.0  0.75147  0.30986  0.72629  1.0000
  H   H1851     1.0  0.77833  0.30845  0.66823  1.0000
  C   C1082     1.0  0.63497  0.32186  0.61972  1.0000
  H   H1852     1.0  0.73278  0.31790  0.57284  1.0000
  H   H1853     1.0  0.76292  0.31987  0.58755  1.0000
  H   H1854     1.0  0.87896  0.99281  0.50188  1.0000
  H   H1855     1.0  0.49723  0.30510  0.52278  1.0000
  C   C1083     1.0  0.78470  0.30447  0.73759  1.0000
  H   H1856     1.0  0.98369  0.00616  0.50673  1.0000
  C   C1084     1.0  0.69153  0.32279  0.59206  1.0000
  C   C1085     1.0  0.51760  0.32000  0.49473  1.0000
  H   H1857     1.0  0.94083  0.27333  0.72626  1.0000
  H   H1858     1.0  0.81583  0.11672  0.73067  1.0000
  H   H1859     1.0  0.77976  0.19700  0.73015  1.0000
  C   C1086     1.0  0.74389  0.15702  0.73123  1.0000
  H   H1860     1.0  0.75189  0.20175  0.73259  1.0000
  C   C1087     1.0  0.98745  0.11053  0.49463  1.0000
  H   H1861     1.0  0.91168  0.99320  0.60870  1.0000
  H   H1862     1.0  0.98725  0.10131  0.56141  1.0000
  C   C1088     1.0  0.98872  0.03079  0.59217  1.0000
  H   H1863     1.0  0.87011  0.21989  0.73806  1.0000
  S   S324      1.0  0.89962  0.24469  0.73928  1.0000
  C   C1089     1.0  0.50324  0.06439  0.91304  1.0000
  H   H1864     1.0  0.64721  0.05180  0.86903  1.0000
  H   H1865     1.0  0.66658  0.26289  0.79033  1.0000
  H   H1866     1.0  0.94842  0.19524  0.79877  1.0000
  C   C1090     1.0  0.64423  0.12709  0.97356  1.0000
  Fe  Fe165     1.0  0.59990  0.04109  0.90831  1.0000
  S   S325      1.0  0.62947  0.01609  0.91051  1.0000
  S   S326      1.0  0.59991  0.07602  0.89828  1.0000
  Fe  Fe166     1.0  0.57172  0.00864  0.91983  1.0000
  C   C1091     1.0  0.54396  0.09316  0.91942  1.0000
  H   H1867     1.0  0.68899  0.09292  0.97039  1.0000
  N   N77       1.0  0.71116  0.23290  0.80927  1.0000
  H   H1868     1.0  0.83947  0.27081  0.98636  1.0000
  H   H1869     1.0  0.88989  0.24690  0.81407  1.0000
  S   S327      1.0  0.58082  0.02641  0.93904  1.0000
  S   S328      1.0  0.58808  0.02591  0.88877  1.0000
  Fe  Fe167     1.0  0.82568  0.24232  0.78296  1.0000
  S   S329      1.0  0.85685  0.23817  0.79225  1.0000
  S   S330      1.0  0.80914  0.21826  0.77987  1.0000
  Fe  Fe168     1.0  0.82629  0.28766  0.75861  1.0000
  S   S331      1.0  0.85741  0.28795  0.76540  1.0000
  Fe  Fe169     1.0  0.86782  0.25513  0.75915  1.0000
  C   C1092     1.0  0.66909  0.22424  0.75580  1.0000
  Fe  Fe170     1.0  0.84426  0.27127  0.79825  1.0000
  S   S332      1.0  0.84836  0.27912  0.82756  1.0000
  H   H1870     1.0  0.71368  0.10367  0.91146  1.0000
  S   S333      1.0  0.81190  0.27383  0.79207  1.0000
  C   C1093     1.0  0.84871  0.17265  0.81102  1.0000
  H   H1871     1.0  0.53574  0.99100  0.84788  1.0000
  C   C1094     1.0  0.87182  0.31596  0.97728  1.0000
  H   H1872     1.0  0.65214  0.07842  0.94315  1.0000
  H   H1873     1.0  0.86988  0.30303  0.92251  1.0000
  H   H1874     1.0  0.61995  0.10084  0.93439  1.0000
  H   H1875     1.0  0.62414  0.12316  0.94146  1.0000
  Fe  Fe171     1.0  0.69066  0.15719  0.82330  1.0000
  S   S334      1.0  0.72411  0.15916  0.80712  1.0000
  Fe  Fe172     1.0  0.70353  0.11502  0.85220  1.0000
  S   S335      1.0  0.73834  0.11370  0.83879  1.0000
  S   S336      1.0  0.69434  0.08829  0.87899  1.0000
  Fe  Fe173     1.0  0.73112  0.14823  0.83961  1.0000
  S   S337      1.0  0.75055  0.16387  0.85170  1.0000
  Fe  Fe174     1.0  0.72850  0.12464  0.80752  1.0000
  S   S338      1.0  0.74751  0.11039  0.77968  1.0000
  S   S339      1.0  0.69711  0.14853  0.85603  1.0000
  S   S340      1.0  0.69402  0.12352  0.82075  1.0000
  H   H1876     1.0  0.65719  0.22785  0.78803  1.0000
  C   C1095     1.0  0.67980  0.18084  0.77326  1.0000
  H   H1877     1.0  0.67492  0.12850  0.95411  1.0000
  H   H1878     1.0  0.67087  0.02893  0.88618  1.0000
  H   H1879     1.0  0.74297  0.23924  0.79864  1.0000
  H   H1880     1.0  0.73288  0.27694  0.80450  1.0000
  C   C1096     1.0  0.80938  0.13484  0.75462  1.0000
  H   H1881     1.0  0.79831  0.15108  0.78037  1.0000
  H   H1882     1.0  0.50013  0.05016  0.96961  1.0000
  H   H1883     1.0  0.70718  0.27232  0.81891  1.0000
  C   C1097     1.0  0.79181  0.20488  0.80030  1.0000
  C   C1098     1.0  0.78132  0.19199  0.79501  1.0000
  C   C1099     1.0  0.76892  0.17926  0.81079  1.0000
  C   C1100     1.0  0.76642  0.17968  0.83196  1.0000
  C   C1101     1.0  0.77665  0.19287  0.83733  1.0000
  C   C1102     1.0  0.78942  0.20548  0.82147  1.0000
  H   H1884     1.0  0.78338  0.19128  0.77865  1.0000
  H   H1885     1.0  0.76176  0.16872  0.80654  1.0000
  H   H1886     1.0  0.77479  0.19321  0.85374  1.0000
  H   H1887     1.0  0.79760  0.21537  0.82561  1.0000
  C   C1103     1.0  0.72392  0.26442  0.81407  1.0000
  H   H1888     1.0  0.76606  0.13617  0.79487  1.0000
  H   H1889     1.0  0.72542  0.18166  0.74913  1.0000
  C   C1104     1.0  0.94683  0.20878  0.78505  1.0000
  H   H1890     1.0  0.73098  0.25694  0.82822  1.0000
  N   N78       1.0  0.93953  0.24962  0.77984  1.0000
  H   H1891     1.0  0.79162  0.27576  0.76072  1.0000
  S   S341      1.0  0.93272  0.31078  0.81805  1.0000
  C   C1105     1.0  0.52445  0.05526  0.94042  1.0000
  C   C1106     1.0  0.53541  0.01737  0.88710  1.0000
  C   C1107     1.0  0.62538  0.08107  0.89466  1.0000
  C   C1108     1.0  0.64004  0.06698  0.90600  1.0000
  C   C1109     1.0  0.66105  0.06970  0.90142  1.0000
  C   C1110     1.0  0.66745  0.08668  0.88567  1.0000
  C   C1111     1.0  0.65262  0.10132  0.87487  1.0000
  C   C1112     1.0  0.63155  0.09854  0.87944  1.0000
  H   H1892     1.0  0.63524  0.05391  0.91826  1.0000
  H   H1893     1.0  0.67246  0.05838  0.90987  1.0000
  H   H1894     1.0  0.65747  0.11451  0.86273  1.0000
  H   H1895     1.0  0.62022  0.10955  0.87069  1.0000
  H   H1896     1.0  0.49214  0.05415  0.92312  1.0000
  H   H1897     1.0  0.62939  0.06232  0.82857  1.0000
  H   H1898     1.0  0.53288  0.06124  0.94920  1.0000
  H   H1899     1.0  0.68408  0.16408  0.77995  1.0000
  H   H1900     1.0  0.86478  0.14566  0.77028  1.0000
  H   H1901     1.0  0.50128  0.03376  0.95140  1.0000
  H   H1902     1.0  0.91289  0.22650  0.81632  1.0000
  C   C1113     1.0  0.68240  0.26281  0.79297  1.0000
  H   H1903     1.0  0.72443  0.25742  0.78479  1.0000
  H   H1904     1.0  0.88023  0.16778  0.81876  1.0000
  C   C1114     1.0  0.67837  0.20994  0.74249  1.0000
  C   C1115     1.0  0.62479  0.02554  0.96703  1.0000
  H   H1905     1.0  0.84236  0.32252  0.83998  1.0000
  H   H1906     1.0  0.94148  0.26460  0.80411  1.0000
  H   H1907     1.0  0.62099  0.02927  0.95161  1.0000
  H   H1908     1.0  0.69559  0.01095  0.88171  1.0000
  H   H1909     1.0  0.75837  0.26469  0.76410  1.0000
  H   H1910     1.0  0.67213  0.05567  0.96528  1.0000
  C   C1116     1.0  0.88225  0.29764  0.80515  1.0000
  C   C1117     1.0  0.87139  0.28868  0.82499  1.0000
  C   C1118     1.0  0.87880  0.28762  0.84304  1.0000
  C   C1119     1.0  0.89741  0.29487  0.84114  1.0000
  H   H1911     1.0  0.63740  0.08915  0.96505  1.0000
  H   H1912     1.0  0.87629  0.29927  0.79126  1.0000
  H   H1913     1.0  0.87035  0.28086  0.85848  1.0000
  H   H1914     1.0  0.90336  0.29357  0.85507  1.0000
  H   H1915     1.0  0.87120  0.27473  0.95526  1.0000
  C   C1120     1.0  0.70380  0.10533  0.92731  1.0000
  H   H1916     1.0  0.70326  0.23303  0.76783  1.0000
  H   H1917     1.0  0.94931  0.22652  0.80708  1.0000
  H   H1918     1.0  0.68498  0.08457  0.92497  1.0000
  H   H1919     1.0  0.96887  0.22739  0.78391  1.0000
  H   H1920     1.0  0.83736  0.31492  0.87791  1.0000
  H   H1921     1.0  0.95811  0.20429  0.77076  1.0000
  H   H1922     1.0  0.70484  0.19732  0.85857  1.0000
  H   H1923     1.0  0.93053  0.21101  0.78263  1.0000
  H   H1924     1.0  0.50211  0.08836  0.88328  1.0000
  C   C1121     1.0  0.51061  0.04127  0.95770  1.0000
  C   C1122     1.0  0.68196  0.10035  0.92900  1.0000
  H   H1925     1.0  0.91892  0.27805  0.74741  1.0000
  H   H1926     1.0  0.64170  0.02506  0.82810  1.0000
  C   C1123     1.0  0.85454  0.17943  0.76383  1.0000
  C   C1124     1.0  0.67011  0.03955  0.82019  1.0000
  C   C1125     1.0  0.70243  0.20331  0.84208  1.0000
  H   H1927     1.0  0.69812  0.01880  0.84360  1.0000
  C   C1126     1.0  0.70303  0.06038  0.82758  1.0000
  H   H1928     1.0  0.68673  0.03495  0.81164  1.0000
  H   H1929     1.0  0.67080  0.07659  0.82770  1.0000
  H   H1930     1.0  0.61560  0.06642  0.85417  1.0000
  H   H1931     1.0  0.63574  0.08105  0.84012  1.0000
  H   H1932     1.0  0.66661  0.00612  0.82846  1.0000
  H   H1933     1.0  0.62630  0.05759  0.96567  1.0000
  H   H1934     1.0  0.93985  0.24010  0.75133  1.0000
  H   H1935     1.0  0.94329  0.28676  0.74496  1.0000
  N   N79       1.0  0.85183  0.15430  0.80066  1.0000
  H   H1936     1.0  0.87713  0.18619  0.79387  1.0000
  C   C1127     1.0  0.83027  0.15096  0.80079  1.0000
  C   C1128     1.0  0.93650  0.27393  0.74327  1.0000
  C   C1129     1.0  0.86435  0.13490  0.81272  1.0000
  H   H1937     1.0  0.75097  0.16850  0.75593  1.0000
  C   C1130     1.0  0.81722  0.14200  0.82252  1.0000
  H   H1938     1.0  0.70657  0.05704  0.81159  1.0000
  C   C1131     1.0  0.86827  0.11417  0.80484  1.0000
  C   C1132     1.0  0.77667  0.13209  0.78075  1.0000
  H   H1939     1.0  0.84098  0.16864  0.82800  1.0000
  H   H1940     1.0  0.83140  0.14042  0.79008  1.0000
  H   H1941     1.0  0.55542  0.08031  0.92731  1.0000
  S   S342      1.0  0.72246  0.28408  0.74532  1.0000
  H   H1942     1.0  0.88288  0.11277  0.79227  1.0000
  H   H1943     1.0  0.88045  0.13737  0.81190  1.0000
  H   H1944     1.0  0.85732  0.13197  0.82996  1.0000
  H   H1945     1.0  0.66322  0.05436  0.80982  1.0000
  C   C1133     1.0  0.86900  0.18021  0.81026  1.0000
  H   H1946     1.0  0.53686  0.04461  0.93117  1.0000
  H   H1947     1.0  0.82490  0.12575  0.82951  1.0000
  H   H1948     1.0  0.81387  0.15257  0.83373  1.0000
  H   H1949     1.0  0.80158  0.14081  0.82042  1.0000
  N   N80       1.0  0.87558  0.29332  0.97509  1.0000
  H   H1950     1.0  0.65970  0.02099  0.80407  1.0000
  H   H1951     1.0  0.90984  0.24226  0.77866  1.0000
  H   H1952     1.0  0.66406  0.08653  0.98307  1.0000
  H   H1953     1.0  0.85498  0.11270  0.79867  1.0000
  H   H1954     1.0  0.87001  0.10035  0.81828  1.0000
  H   H1955     1.0  0.96298  0.24870  0.75055  1.0000
  S   S343      1.0  0.83310  0.14446  0.74589  1.0000
  S   S344      1.0  0.93109  0.31881  0.91869  1.0000
  H   H1956     1.0  0.68511  0.20849  0.84277  1.0000
  H   H1957     1.0  0.93568  0.28258  0.78086  1.0000
  C   C1134     1.0  0.64725  0.09341  0.94901  1.0000
  H   H1958     1.0  0.68216  0.24995  0.82571  1.0000
  H   H1959     1.0  0.90728  0.26783  0.78233  1.0000
  H   H1960     1.0  0.85477  0.19375  0.76908  1.0000
  H   H1961     1.0  0.83755  0.18665  0.80404  1.0000
  H   H1962     1.0  0.64092  0.11371  0.91842  1.0000
  H   H1963     1.0  0.67423  0.01033  0.85750  1.0000
  H   H1964     1.0  0.69339  0.26287  0.77757  1.0000
  C   C1135     1.0  0.68468  0.06333  0.96625  1.0000
  C   C1136     1.0  0.50215  0.02535  0.87538  1.0000
  C   C1137     1.0  0.52501  0.01064  0.90794  1.0000
  H   H1965     1.0  0.55229  0.01648  0.88337  1.0000
  H   H1966     1.0  0.53203  0.03023  0.85478  1.0000
  H   H1967     1.0  0.68068  0.27803  0.79763  1.0000
  C   C1138     1.0  0.71874  0.22466  0.77187  1.0000
  C   C1139     1.0  0.66473  0.21679  0.77781  1.0000
  H   H1968     1.0  0.86441  0.19366  0.81843  1.0000
  H   H1969     1.0  0.66491  0.24099  0.74916  1.0000
  H   H1970     1.0  0.55374  0.10293  0.90632  1.0000
  C   C1140     1.0  0.78607  0.11314  0.75249  1.0000
  H   H1971     1.0  0.97946  0.25509  0.78699  1.0000
  H   H1972     1.0  0.64068  0.03279  0.85931  1.0000
  C   C1141     1.0  0.91581  0.25120  0.78691  1.0000
  C   C1142     1.0  0.90862  0.30313  0.82115  1.0000
  H   H1973     1.0  0.69004  0.17703  0.74101  1.0000
  N   N81       1.0  0.51327  0.07328  0.92565  1.0000
  H   H1974     1.0  0.51564  0.05366  0.90393  1.0000
  C   C1143     1.0  0.87791  0.30413  0.93464  1.0000
  C   C1144     1.0  0.80478  0.12129  0.74442  1.0000
  C   C1145     1.0  0.67917  0.06268  0.83791  1.0000
  C   C1146     1.0  0.89925  0.28469  0.97154  1.0000
  H   H1975     1.0  0.87583  0.32123  0.93426  1.0000
  C   C1147     1.0  0.65879  0.02192  0.82056  1.0000
  C   C1148     1.0  0.74696  0.29136  0.74079  1.0000
  H   H1976     1.0  0.82029  0.16612  0.79423  1.0000
  H   H1977     1.0  0.70252  0.12190  0.92843  1.0000
  Fe  Fe175     1.0  0.61599  0.99948  0.89379  1.0000
  C   C1149     1.0  0.71695  0.21652  0.79587  1.0000
  Fe  Fe176     1.0  0.60948  0.00020  0.93970  1.0000
  H   H1978     1.0  0.72907  0.15532  0.76413  1.0000
  H   H1979     1.0  0.73249  0.20595  0.79804  1.0000
  H   H1980     1.0  0.70514  0.20606  0.80091  1.0000
  C   C1150     1.0  0.62627  0.00487  0.97914  1.0000
  C   C1151     1.0  0.72615  0.24813  0.80070  1.0000
  C   C1152     1.0  0.67047  0.19515  0.78656  1.0000
  H   H1981     1.0  0.69484  0.03871  0.87259  1.0000
  H   H1982     1.0  0.72376  0.21077  0.76436  1.0000
  C   C1153     1.0  0.94532  0.26686  0.78660  1.0000
  H   H1983     1.0  0.86433  0.18044  0.74757  1.0000
  H   H1984     1.0  0.88069  0.15903  0.77735  1.0000
  H   H1985     1.0  0.63275  0.11638  0.97896  1.0000
  H   H1986     1.0  0.67520  0.11181  0.91585  1.0000
  H   H1987     1.0  0.49758  0.00675  0.82414  1.0000
  C   C1154     1.0  0.78039  0.28563  0.75141  1.0000
  H   H1988     1.0  0.69054  0.05436  0.98083  1.0000
  C   C1155     1.0  0.90080  0.30482  0.80322  1.0000
  H   H1989     1.0  0.89496  0.29724  0.92960  1.0000
  H   H1990     1.0  0.73179  0.21454  0.83084  1.0000
  H   H1991     1.0  0.70984  0.23250  0.84210  1.0000
  H   H1992     1.0  0.90897  0.31196  0.78780  1.0000
  C   C1156     1.0  0.90752  0.24380  0.81082  1.0000
  H   H1993     1.0  0.71314  0.04809  0.83748  1.0000
  H   H1994     1.0  0.91198  0.25260  0.82032  1.0000
  H   H1995     1.0  0.83815  0.17978  0.76263  1.0000
  H   H1996     1.0  0.49489  0.00648  0.92857  1.0000
  C   C1157     1.0  0.94544  0.25210  0.75619  1.0000
  S   S345      1.0  0.83817  0.25653  0.74929  1.0000
  H   H1997     1.0  0.50471  0.09184  0.94967  1.0000
  C   C1158     1.0  0.68805  0.24373  0.81094  1.0000
  H   H1998     1.0  0.52275  0.09804  0.89885  1.0000
  C   C1159     1.0  0.95147  0.22845  0.78969  1.0000
  H   H1999     1.0  0.71256  0.09411  0.93908  1.0000
  C   C1160     1.0  0.53007  0.08429  0.91003  1.0000
  C   C1161     1.0  0.73704  0.16655  0.75099  1.0000
  C   C1162     1.0  0.63141  0.06537  0.84329  1.0000
  N   N82       1.0  0.66647  0.10098  0.94980  1.0000
  N   N83       1.0  0.66975  0.04342  0.84142  1.0000
  C   C1163     1.0  0.68596  0.02611  0.87458  1.0000
  H   H2000     1.0  0.67689  0.06755  0.85303  1.0000
  H   H2001     1.0  0.53243  0.99335  0.81290  1.0000
  H   H2002     1.0  0.69822  0.06156  0.95271  1.0000
  H   H2003     1.0  0.73094  0.23453  0.76455  1.0000
  C   C1164     1.0  0.64739  0.04746  0.85414  1.0000
  C   C1165     1.0  0.52394  0.02503  0.87088  1.0000
  H   H2004     1.0  0.70876  0.18971  0.83423  1.0000
  H   H2005     1.0  0.67810  0.23209  0.81240  1.0000
  H   H2006     1.0  0.70793  0.07558  0.82579  1.0000
  C   C1166     1.0  0.62795  0.04159  0.97496  1.0000
  C   C1167     1.0  0.71461  0.22140  0.83115  1.0000
  C   C1168     1.0  0.49771  0.08911  0.93749  1.0000
  C   C1169     1.0  0.50316  0.01129  0.91246  1.0000
  C   C1170     1.0  0.86388  0.15873  0.77811  1.0000
  C   C1171     1.0  0.77189  0.11874  0.77058  1.0000
  S   S346      1.0  0.53878  0.00195  0.92865  1.0000
  S   S347      1.0  0.66636  0.18624  0.81412  1.0000
  H   H2007     1.0  0.65523  0.13495  0.93932  1.0000
  C   C1172     1.0  0.79520  0.14027  0.77268  1.0000
  C   C1173     1.0  0.68232  0.02400  0.85347  1.0000
  H   H2008     1.0  0.90785  0.29493  0.95781  1.0000
  H   H2009     1.0  0.53445  0.10357  0.93036  1.0000
  C   C1174     1.0  0.68318  0.18818  0.75124  1.0000
  H   H2010     1.0  0.54117  0.07340  0.90006  1.0000
  H   H2011     1.0  0.49462  0.10487  0.92659  1.0000
  C   C1175     1.0  0.63242  0.10890  0.93493  1.0000
  H   H2012     1.0  0.78248  0.10264  0.74468  1.0000
  H   H2013     1.0  0.97045  0.28295  0.78460  1.0000
  H   H2014     1.0  0.52120  0.02801  0.96629  1.0000
  H   H2015     1.0  0.90305  0.26876  0.96754  1.0000
  C   C1176     1.0  0.76154  0.27919  0.75315  1.0000
  C   C1177     1.0  0.86804  0.29168  0.95635  1.0000
  C   C1178     1.0  0.96877  0.26904  0.77944  1.0000
  H   H2016     1.0  0.63455  0.14342  0.97070  1.0000
  H   H2017     1.0  0.97418  0.27209  0.76204  1.0000
  C   C1179     1.0  0.66065  0.12335  0.95316  1.0000
  C   C1180     1.0  0.67602  0.08672  0.96795  1.0000
  C   C1181     1.0  0.49181  0.01844  0.89619  1.0000
  H   H2018     1.0  0.93403  0.31910  0.96054  1.0000
  H   H2019     1.0  0.92709  0.27537  0.98567  1.0000
  H   H2020     1.0  0.65233  0.12509  0.98671  1.0000
  H   H2021     1.0  0.85062  0.29705  0.95809  1.0000
  H   H2022     1.0  0.49356  0.99093  0.80812  1.0000
  C   C1182     1.0  0.82132  0.37378  0.09910  1.0000
  Fe  Fe177     1.0  0.90651  0.54588  0.06936  1.0000
  S   S348      1.0  0.94005  0.53125  0.05610  1.0000
  S   S349      1.0  0.89521  0.58062  0.07007  1.0000
  Fe  Fe178     1.0  0.89094  0.50518  0.07743  1.0000
  S   S350      1.0  0.92282  0.48702  0.06468  1.0000
  S   S351      1.0  0.86185  0.49143  0.09199  1.0000
  Fe  Fe179     1.0  0.93496  0.50324  0.08277  1.0000
  H   H2023     1.0  0.86986  0.57305  0.12982  1.0000
  Fe  Fe180     1.0  0.92527  0.51614  0.03907  1.0000
  H   H2024     1.0  0.97133  0.42597  0.13275  1.0000
  S   S352      1.0  0.90278  0.51928  0.09784  1.0000
  S   S353      1.0  0.89196  0.53297  0.05011  1.0000
  H   H2025     1.0  0.95768  0.55705  0.10253  1.0000
  S   S354      1.0  0.83739  0.65648  0.20403  1.0000
  N   N84       1.0  0.83822  0.57939  0.14892  1.0000
  Fe  Fe181     1.0  0.88108  0.62384  0.16833  1.0000
  N   N85       1.0  0.85696  0.46291  0.99997  1.0000
  S   S355      1.0  0.90752  0.60151  0.15187  1.0000
  H   H2026     1.0  0.95397  0.53068  0.15764  1.0000
  Fe  Fe182     1.0  0.83593  0.62817  0.19324  1.0000
  S   S356      1.0  0.85925  0.40639  0.06955  1.0000
  H   H2027     1.0  0.83724  0.32626  0.06535  1.0000
  S   S357      1.0  0.86671  0.60924  0.20147  1.0000
  H   H2028     1.0  0.92708  0.44111  0.05963  1.0000
  H   H2029     1.0  0.84792  0.46910  0.03173  1.0000
  H   H2030     1.0  0.83642  0.37375  0.10312  1.0000
  C   C1183     1.0  0.89849  0.58681  0.09262  1.0000
  C   C1184     1.0  0.88837  0.60646  0.09783  1.0000
  C   C1185     1.0  0.89080  0.61112  0.11621  1.0000
  C   C1186     1.0  0.90374  0.59628  0.12903  1.0000
  C   C1187     1.0  0.91407  0.57684  0.12354  1.0000
  C   C1188     1.0  0.91123  0.57207  0.10551  1.0000
  H   H2031     1.0  0.87849  0.61795  0.08782  1.0000
  H   H2032     1.0  0.88296  0.62626  0.12027  1.0000
  H   H2033     1.0  0.92395  0.56521  0.13344  1.0000
  H   H2034     1.0  0.91881  0.55696  0.10154  1.0000
  Fe  Fe183     1.0  0.86958  0.63870  0.20942  1.0000
  H   H2035     1.0  0.78860  0.34441  0.13544  1.0000
  H   H2036     1.0  0.86202  0.54907  0.11027  1.0000
  C   C1189     1.0  0.98203  0.48023  0.03666  1.0000
  C   C1190     1.0  0.94256  0.61365  0.05590  1.0000
  H   H2037     1.0  0.81626  0.38995  0.08975  1.0000
  H   H2038     1.0  0.78747  0.34580  0.10885  1.0000
  N   N86       1.0  0.96454  0.60160  0.04809  1.0000
  H   H2039     1.0  0.95411  0.43436  0.04716  1.0000
  H   H2040     1.0  0.96796  0.58794  0.08028  1.0000
  C   C1191     1.0  0.86083  0.42988  0.07541  1.0000
  C   C1192     1.0  0.87766  0.44031  0.06502  1.0000
  C   C1193     1.0  0.87795  0.45955  0.06965  1.0000
  C   C1194     1.0  0.86169  0.46801  0.08498  1.0000
  C   C1195     1.0  0.84494  0.45752  0.09523  1.0000
  C   C1196     1.0  0.84446  0.43856  0.09039  1.0000
  H   H2041     1.0  0.89026  0.43369  0.05329  1.0000
  H   H2042     1.0  0.89063  0.46786  0.06133  1.0000
  H   H2043     1.0  0.83230  0.46407  0.10699  1.0000
  H   H2044     1.0  0.83137  0.43058  0.09834  1.0000
  H   H2045     1.0  0.82522  0.59776  0.12148  1.0000
  H   H2046     1.0  0.94273  0.52723  0.10137  1.0000
  H   H2047     1.0  0.82608  0.55024  0.16210  1.0000
  H   H2048     1.0  0.86072  0.54991  0.14525  1.0000
  C   C1197     1.0  0.95872  0.52440  0.10356  1.0000
  C   C1198     1.0  0.98838  0.53767  0.10576  1.0000
  H   H2049     1.0  0.92591  0.39418  0.14016  1.0000
  H   H2050     1.0  0.94054  0.41352  0.06248  1.0000
  C   C1199     1.0  0.96364  0.53725  0.16461  1.0000
  H   H2051     1.0  0.79930  0.58955  0.17942  1.0000
  H   H2052     1.0  0.93149  0.63040  0.02632  1.0000
  H   H2053     1.0  0.96213  0.36660  0.04940  1.0000
  C   C1200     1.0  0.83116  0.60022  0.13448  1.0000
  H   H2054     1.0  0.89486  0.32456  0.02888  1.0000
  H   H2055     1.0  0.79258  0.56426  0.18459  1.0000
  H   H2056     1.0  0.85008  0.57621  0.10308  1.0000
  C   C1201     1.0  0.96214  0.58115  0.04414  1.0000
  H   H2057     1.0  0.97217  0.63185  0.02956  1.0000
  H   H2058     1.0  0.79764  0.61153  0.14806  1.0000
  H   H2059     1.0  0.81167  0.63189  0.13306  1.0000
  H   H2060     1.0  0.84489  0.60819  0.12667  1.0000
  C   C1202     1.0  0.84979  0.56206  0.11630  1.0000
  Fe  Fe184     1.0  0.88756  0.39181  0.04791  1.0000
  C   C1203     1.0  0.85395  0.33104  0.09597  1.0000
  H   H2061     1.0  0.95794  0.39257  0.09873  1.0000
  H   H2062     1.0  0.98459  0.55542  0.05986  1.0000
  C   C1204     1.0  0.98214  0.37107  0.06759  1.0000
  H   H2063     1.0  0.94822  0.60240  0.15844  1.0000
  Fe  Fe185     1.0  0.90000  0.37917  0.00559  1.0000
  H   H2064     1.0  0.87219  0.50016  0.99868  1.0000
  C   C1205     1.0  0.92436  0.51814  0.98926  1.0000
  H   H2065     1.0  0.89651  0.41014  0.12732  1.0000
  C   C1206     1.0  0.98176  0.56286  0.04369  1.0000
  Fe  Fe186     1.0  0.91425  0.34854  0.04360  1.0000
  C   C1207     1.0  0.94968  0.43136  0.08107  1.0000
  H   H2066     1.0  0.82777  0.43523  0.02496  1.0000
  H   H2067     1.0  0.93508  0.60467  0.07145  1.0000
  H   H2068     1.0  0.82442  0.44430  0.04849  1.0000
  H   H2069     1.0  0.89839  0.48604  0.00103  1.0000
  H   H2070     1.0  0.98931  0.62633  0.05690  1.0000
  C   C1208     1.0  0.97663  0.59689  0.06548  1.0000
  H   H2071     1.0  0.93201  0.59083  0.19090  1.0000
  H   H2072     1.0  0.94305  0.56803  0.15828  1.0000
  H   H2073     1.0  0.93597  0.42365  0.13500  1.0000
  C   C1209     1.0  0.87923  0.46656  0.99630  1.0000
  H   H2074     1.0  0.79623  0.33485  0.07637  1.0000
  S   S358      1.0  0.90277  0.40751  0.01569  1.0000
  C   C1210     1.0  0.97269  0.37612  0.05011  1.0000
  H   H2075     1.0  0.97071  0.55369  0.19644  1.0000
  H   H2076     1.0  0.94988  0.44834  0.07951  1.0000
  H   H2077     1.0  0.92985  0.37207  0.12861  1.0000
  C   C1211     1.0  0.79789  0.61733  0.23219  1.0000
  S   S359      1.0  0.94186  0.51112  0.00655  1.0000
  H   H2078     1.0  0.93670  0.57219  0.21451  1.0000
  H   H2079     1.0  0.86118  0.44259  0.03021  1.0000
  C   C1212     1.0  0.96570  0.59661  0.15524  1.0000
  C   C1213     1.0  0.84798  0.58359  0.16496  1.0000
  C   C1214     1.0  0.85955  0.56371  0.17853  1.0000
  H   H2080     1.0  0.83604  0.59264  0.17596  1.0000
  H   H2081     1.0  0.85982  0.59389  0.15699  1.0000
  H   H2082     1.0  0.85062  0.55067  0.18400  1.0000
  H   H2083     1.0  0.87567  0.55796  0.16961  1.0000
  H   H2084     1.0  0.86166  0.56789  0.19270  1.0000
  H   H2085     1.0  0.81598  0.61942  0.15890  1.0000
  C   C1215     1.0  0.81313  0.61642  0.14456  1.0000
  C   C1216     1.0  0.98090  0.61628  0.07087  1.0000
  H   H2086     1.0  0.90826  0.42731  0.09105  1.0000
  C   C1217     1.0  0.84939  0.45616  0.02354  1.0000
  Fe  Fe187     1.0  0.93333  0.38741  0.02378  1.0000
  N   N87       1.0  0.83059  0.33445  0.09585  1.0000
  H   H2087     1.0  0.91164  0.44995  0.09821  1.0000
  C   C1218     1.0  0.89801  0.42697  0.12365  1.0000
  H   H2088     1.0  0.97489  0.49213  0.04663  1.0000
  S   S360      1.0  0.80519  0.61696  0.20517  1.0000
  H   H2089     1.0  0.86371  0.33221  0.07957  1.0000
  H   H2090     1.0  0.96957  0.62073  0.12630  1.0000
  C   C1219     1.0  0.85550  0.56594  0.13566  1.0000
  C   C1220     1.0  0.96827  0.42263  0.11857  1.0000
  C   C1221     1.0  0.96411  0.57008  0.18848  1.0000
  S   S361      1.0  0.96101  0.48454  0.09984  1.0000
  H   H2091     1.0  0.81490  0.56650  0.19316  1.0000
  H   H2092     1.0  0.81452  0.46234  0.02673  1.0000
  H   H2093     1.0  0.92445  0.60457  0.03734  1.0000
  H   H2094     1.0  0.90134  0.54006  0.00632  1.0000
  H   H2095     1.0  0.80901  0.37163  0.11376  1.0000
  C   C1222     1.0  0.84185  0.48278  0.99205  1.0000
  H   H2096     1.0  0.83866  0.49476  0.00189  1.0000
  C   C1223     1.0  0.96724  0.54121  0.10417  1.0000
  H   H2097     1.0  0.80933  0.57079  0.14777  1.0000
  C   C1224     1.0  0.97687  0.39339  0.03368  1.0000
  C   C1225     1.0  0.80613  0.57252  0.18011  1.0000
  H   H2098     1.0  0.76439  0.62713  0.23254  1.0000
  S   S362      1.0  0.91822  0.37415  0.05731  1.0000
  C   C1226     1.0  0.82012  0.56775  0.15891  1.0000
  S   S363      1.0  0.88210  0.36518  0.03713  1.0000
  S   S364      1.0  0.96285  0.40123  0.01324  1.0000
  H   H2099     1.0  0.96614  0.62590  0.07849  1.0000
  H   H2100     1.0  0.90159  0.43114  0.13707  1.0000
  C   C1227     1.0  0.91393  0.43232  0.10279  1.0000
  C   C1228     1.0  0.88147  0.48462  0.00539  1.0000
  H   H2101     1.0  0.82426  0.33449  0.12910  1.0000
  S   S365      1.0  0.93195  0.36025  0.01087  1.0000
  C   C1229     1.0  0.82775  0.44920  0.03096  1.0000
  H   H2102     1.0  0.88204  0.43656  0.12168  1.0000
  H   H2103     1.0  0.93168  0.39426  0.09629  1.0000
  H   H2104     1.0  0.97187  0.60615  0.16273  1.0000
  C   C1230     1.0  0.92676  0.61891  0.04111  1.0000
  H   H2105     1.0  0.83426  0.55722  0.12019  1.0000
  C   C1231     1.0  0.94221  0.42982  0.06168  1.0000
  C   C1232     1.0  0.79398  0.33555  0.12250  1.0000
  S   S366      1.0  0.84983  0.64030  0.15916  1.0000
  H   H2106     1.0  0.96666  0.42313  0.07915  1.0000
  C   C1233     1.0  0.81849  0.32831  0.11819  1.0000
  C   C1234     1.0  0.90526  0.53270  0.99296  1.0000
  C   C1235     1.0  0.93685  0.38560  0.12834  1.0000
  H   H2107     1.0  0.97762  0.43194  0.10466  1.0000
  C   C1236     1.0  0.94103  0.39872  0.10541  1.0000
  C   C1237     1.0  0.85689  0.44500  0.99011  1.0000
  N   N88       1.0  0.93708  0.42254  0.10248  1.0000
  H   H2108     1.0  0.95838  0.53300  0.18200  1.0000
  S   S367      1.0  0.88658  0.65202  0.17692  1.0000
  H   H2109     1.0  0.96592  0.56358  0.13861  1.0000
  H   H2110     1.0  0.94012  0.44707  0.11643  1.0000
  H   H2111     1.0  0.95707  0.58402  0.02890  1.0000
  H   H2112     1.0  0.97041  0.58067  0.19458  1.0000
  C   C1238     1.0  0.94428  0.42943  0.11869  1.0000
  H   H2113     1.0  0.97424  0.40546  0.11899  1.0000
  H   H2114     1.0  0.96436  0.59729  0.12255  1.0000
  C   C1239     1.0  0.97450  0.61517  0.02796  1.0000
  H   H2115     1.0  0.98739  0.48809  0.02002  1.0000
  H   H2116     1.0  0.82591  0.47931  0.99392  1.0000
  H   H2117     1.0  0.94317  0.62912  0.05874  1.0000
  C   C1240     1.0  0.97101  0.50396  0.10512  1.0000
  H   H2118     1.0  0.95211  0.37829  0.13362  1.0000
  H   H2119     1.0  0.88970  0.45188  0.00313  1.0000
  H   H2120     1.0  0.97837  0.35804  0.08056  1.0000
  H   H2121     1.0  0.98039  0.52930  0.15976  1.0000
  H   H2122     1.0  0.94930  0.57450  0.05655  1.0000
  C   C1241     1.0  0.97314  0.60315  0.13107  1.0000
  C   C1242     1.0  0.96038  0.56144  0.15597  1.0000
  C   C1243     1.0  0.93984  0.57435  0.19705  1.0000
  H   H2123     1.0  0.96613  0.61675  0.01511  1.0000
  N   N89       1.0  0.97130  0.57325  0.16480  1.0000
  C   C1244     1.0  0.82368  0.35745  0.08564  1.0000
  H   H2124     1.0  0.85735  0.34358  0.10187  1.0000
  H   H2125     1.0  0.96896  0.47266  0.03675  1.0000
  H   H2126     1.0  0.80839  0.36044  0.08067  1.0000
  H   H2127     1.0  0.91094  0.62644  0.04927  1.0000
  H   H2128     1.0  0.93208  0.56306  0.19379  1.0000
  H   H2129     1.0  0.87722  0.48137  0.02288  1.0000
  H   H2130     1.0  0.97870  0.55040  0.03738  1.0000
  H   H2131     1.0  0.86127  0.42927  0.00068  1.0000
  H   H2132     1.0  0.83515  0.36192  0.07058  1.0000
  H   H2133     1.0  0.84061  0.32591  0.99686  1.0000
  H   H2134     1.0  0.99044  0.59783  0.12565  1.0000
  H   H2135     1.0  0.83009  0.60822  0.23681  1.0000
  H   H2136     1.0  0.80654  0.65255  0.30468  1.0000
  Fe  Fe188     1.0  0.58683  0.50889  0.42277  1.0000
  S   S368      1.0  0.60877  0.51986  0.39218  1.0000
  S   S369      1.0  0.59381  0.48887  0.45383  1.0000
  Fe  Fe189     1.0  0.54717  0.53268  0.40705  1.0000
  S   S370      1.0  0.56482  0.54628  0.37503  1.0000
  S   S371      1.0  0.51246  0.53614  0.42153  1.0000
  Fe  Fe190     1.0  0.58524  0.51361  0.37699  1.0000
  S   S372      1.0  0.59571  0.50082  0.34729  1.0000
  Fe  Fe191     1.0  0.58702  0.55177  0.39223  1.0000
  S   S373      1.0  0.59616  0.58389  0.38338  1.0000
  S   S374      1.0  0.56552  0.49948  0.40752  1.0000
  S   S375      1.0  0.56723  0.54129  0.42419  1.0000
  Fe  Fe192     1.0  0.53429  0.36771  0.39497  1.0000
  S   S376      1.0  0.55478  0.36993  0.36236  1.0000
  C   C1245     1.0  0.65949  0.45603  0.47504  1.0000
  Fe  Fe193     1.0  0.55960  0.39083  0.40941  1.0000
  S   S377      1.0  0.58299  0.39480  0.37861  1.0000
  S   S378      1.0  0.55707  0.40505  0.43689  1.0000
  Fe  Fe194     1.0  0.55425  0.40316  0.36440  1.0000
  S   S379      1.0  0.55229  0.43123  0.33741  1.0000
  Fe  Fe195     1.0  0.58208  0.36133  0.37887  1.0000
  C   C1246     1.0  0.63093  0.59172  0.29993  1.0000
  S   S380      1.0  0.53084  0.40193  0.39513  1.0000
  S   S381      1.0  0.56165  0.35643  0.41139  1.0000
  H   H2137     1.0  0.68835  0.58125  0.40401  1.0000
  C   C1247     1.0  0.53327  0.48660  0.46122  1.0000
  H   H2138     1.0  0.82020  0.61020  0.27445  1.0000
  H   H2139     1.0  0.49606  0.52880  0.33589  1.0000
  H   H2140     1.0  0.58872  0.43111  0.48810  1.0000
  C   C1248     1.0  0.57268  0.38879  0.45461  1.0000
  C   C1249     1.0  0.58797  0.37128  0.44926  1.0000
  S   S382      1.0  0.64558  0.53538  0.48759  1.0000
  H   H2141     1.0  0.51443  0.59167  0.42056  1.0000
  H   H2142     1.0  0.53358  0.33813  0.45071  1.0000
  H   H2143     1.0  0.59039  0.36764  0.43394  1.0000
  H   H2144     1.0  0.65568  0.40901  0.32593  1.0000
  H   H2145     1.0  0.52045  0.45681  0.36581  1.0000
  H   H2146     1.0  0.59719  0.44175  0.46071  1.0000
  H   H2147     1.0  0.52066  0.44320  0.43720  1.0000
  H   H2148     1.0  0.64045  0.57948  0.46432  1.0000
  Fe  Fe196     1.0  0.70341  0.65510  0.29996  1.0000
  H   H2149     1.0  0.67047  0.55243  0.42158  1.0000
  H   H2150     1.0  0.84197  0.62226  0.32650  1.0000
  H   H2151     1.0  0.55778  0.40686  0.47856  1.0000
  C   C1250     1.0  0.58234  0.48210  0.34541  1.0000
  C   C1251     1.0  0.57466  0.46746  0.36321  1.0000
  C   C1252     1.0  0.56545  0.45167  0.36089  1.0000
  C   C1253     1.0  0.56347  0.45089  0.34083  1.0000
  C   C1254     1.0  0.57047  0.46600  0.32321  1.0000
  C   C1255     1.0  0.58023  0.48131  0.32544  1.0000
  H   H2152     1.0  0.57643  0.46786  0.37865  1.0000
  H   H2153     1.0  0.55981  0.44021  0.37464  1.0000
  H   H2154     1.0  0.56867  0.46564  0.30775  1.0000
  H   H2155     1.0  0.58610  0.49265  0.31166  1.0000
  H   H2156     1.0  0.67536  0.38173  0.30954  1.0000
  C   C1256     1.0  0.63900  0.56660  0.37680  1.0000
  H   H2157     1.0  0.63466  0.55128  0.38292  1.0000
  H   H2158     1.0  0.61658  0.59273  0.29391  1.0000
  C   C1257     1.0  0.81762  0.65280  0.35094  1.0000
  H   H2159     1.0  0.60572  0.38859  0.33130  1.0000
  C   C1258     1.0  0.60799  0.50180  0.46339  1.0000
  C   C1259     1.0  0.61949  0.51653  0.44943  1.0000
  C   C1260     1.0  0.63117  0.52655  0.45700  1.0000
  H   H2160     1.0  0.67189  0.39265  0.28255  1.0000
  H   H2161     1.0  0.52944  0.60472  0.42953  1.0000
  H   H2162     1.0  0.61952  0.52015  0.43274  1.0000
  H   H2163     1.0  0.64006  0.53784  0.44610  1.0000
  H   H2164     1.0  0.62920  0.41804  0.33833  1.0000
  H   H2165     1.0  0.63690  0.61574  0.27137  1.0000
  H   H2166     1.0  0.64373  0.59655  0.47838  1.0000
  H   H2167     1.0  0.65659  0.59191  0.27306  1.0000
  H   H2168     1.0  0.77621  0.65313  0.37502  1.0000
  C   C1261     1.0  0.66756  0.38081  0.29720  1.0000
  C   C1262     1.0  0.81272  0.59384  0.36490  1.0000
  C   C1263     1.0  0.50276  0.55127  0.38215  1.0000
  H   H2169     1.0  0.61556  0.63358  0.30463  1.0000
  H   H2170     1.0  0.68701  0.63012  0.41844  1.0000
  H   H2171     1.0  0.51159  0.49079  0.32642  1.0000
  H   H2172     1.0  0.52506  0.43586  0.47202  1.0000
  H   H2173     1.0  0.59241  0.35523  0.33465  1.0000
  H   H2174     1.0  0.81673  0.65151  0.26361  1.0000
  H   H2175     1.0  0.52972  0.57726  0.44053  1.0000
  H   H2176     1.0  0.52816  0.46834  0.43019  1.0000
  C   C1264     1.0  0.65978  0.43339  0.47322  1.0000
  C   C1265     1.0  0.49325  0.48619  0.40056  1.0000
  C   C1266     1.0  0.64643  0.60385  0.28227  1.0000
  H   H2177     1.0  0.64476  0.38865  0.36252  1.0000
  H   H2178     1.0  0.84826  0.64019  0.36115  1.0000
  H   H2179     1.0  0.67593  0.57064  0.29944  1.0000
  H   H2180     1.0  0.81846  0.58130  0.37795  1.0000
  N   N90       1.0  0.81262  0.63335  0.34745  1.0000
  C   C1267     1.0  0.49568  0.54291  0.40358  1.0000
  C   C1268     1.0  0.56972  0.39348  0.47437  1.0000
  C   C1269     1.0  0.49652  0.35688  0.37219  1.0000
  H   H2181     1.0  0.66611  0.57644  0.47050  1.0000
  H   H2182     1.0  0.52004  0.57368  0.48270  1.0000
  C   C1270     1.0  0.51398  0.49549  0.34010  1.0000
  H   H2183     1.0  0.61762  0.61247  0.43941  1.0000
  H   H2184     1.0  0.67505  0.44175  0.43110  1.0000
  Fe  Fe197     1.0  0.70426  0.61912  0.33850  1.0000
  C   C1271     1.0  0.62077  0.33559  0.34437  1.0000
  H   H2185     1.0  0.62222  0.44718  0.31339  1.0000
  H   H2186     1.0  0.64438  0.64664  0.27773  1.0000
  H   H2187     1.0  0.78522  0.62458  0.34270  1.0000
  N   N91       1.0  0.64230  0.43114  0.46396  1.0000
  H   H2188     1.0  0.62227  0.62126  0.41075  1.0000
  H   H2189     1.0  0.75459  0.63045  0.26994  1.0000
  H   H2190     1.0  0.65234  0.63103  0.40924  1.0000
  C   C1272     1.0  0.61526  0.34464  0.30843  1.0000
  C   C1273     1.0  0.64314  0.59105  0.42215  1.0000
  C   C1274     1.0  0.63967  0.40489  0.33094  1.0000
  H   H2191     1.0  0.64004  0.57634  0.43376  1.0000
  C   C1275     1.0  0.63603  0.42226  0.29465  1.0000
  H   H2192     1.0  0.67263  0.55371  0.37258  1.0000
  H   H2193     1.0  0.60540  0.44480  0.29720  1.0000
  H   H2194     1.0  0.66354  0.40663  0.44863  1.0000
  H   H2195     1.0  0.65982  0.64414  0.29655  1.0000
  Fe  Fe198     1.0  0.74518  0.63310  0.31245  1.0000
  C   C1276     1.0  0.67921  0.55759  0.43072  1.0000
  S   S383      1.0  0.73075  0.62799  0.34700  1.0000
  H   H2196     1.0  0.63726  0.38193  0.29121  1.0000
  H   H2197     1.0  0.55521  0.45621  0.48586  1.0000
  N   N92       1.0  0.52529  0.46741  0.47570  1.0000
  H   H2198     1.0  0.49856  0.35084  0.46871  1.0000
  H   H2199     1.0  0.61690  0.61915  0.36639  1.0000
  C   C1277     1.0  0.49197  0.34851  0.39396  1.0000
  C   C1278     1.0  0.63526  0.33244  0.30182  1.0000
  H   H2200     1.0  0.69515  0.54701  0.42961  1.0000
  C   C1279     1.0  0.65213  0.58802  0.46547  1.0000
  H   H2201     1.0  0.79530  0.59523  0.36781  1.0000
  H   H2202     1.0  0.61262  0.34532  0.45943  1.0000
  H   H2203     1.0  0.66280  0.46678  0.45934  1.0000
  H   H2204     1.0  0.58908  0.39040  0.30554  1.0000
  H   H2205     1.0  0.65278  0.42404  0.29185  1.0000
  C   C1280     1.0  0.64754  0.40939  0.45908  1.0000
  H   H2206     1.0  0.77592  0.62510  0.38156  1.0000
  H   H2207     1.0  0.62708  0.44578  0.43733  1.0000
  H   H2208     1.0  0.58414  0.41857  0.30020  1.0000
  C   C1281     1.0  0.81883  0.61474  0.36466  1.0000
  H   H2209     1.0  0.50994  0.36454  0.36528  1.0000
  H   H2210     1.0  0.67415  0.36489  0.29335  1.0000
  H   H2211     1.0  0.60728  0.40422  0.28558  1.0000
  H   H2212     1.0  0.81191  0.61862  0.38051  1.0000
  C   C1282     1.0  0.66635  0.58784  0.36331  1.0000
  S   S384      1.0  0.87911  0.63758  0.23949  1.0000
  H   H2213     1.0  0.49406  0.45723  0.38028  1.0000
  N   N93       1.0  0.52575  0.34008  0.48367  1.0000
  H   H2214     1.0  0.68664  0.63945  0.39105  1.0000
  S   S385      1.0  0.68485  0.65225  0.33340  1.0000
  C   C1283     1.0  0.60848  0.40311  0.31910  1.0000
  H   H2215     1.0  0.83632  0.61100  0.36340  1.0000
  H   H2216     1.0  0.52279  0.48763  0.37776  1.0000
  C   C1284     1.0  0.63101  0.52228  0.47861  1.0000
  H   H2217     1.0  0.64010  0.36916  0.31710  1.0000
  C   C1285     1.0  0.52990  0.45084  0.46269  1.0000
  H   H2218     1.0  0.49451  0.56234  0.35146  1.0000
  H   H2219     1.0  0.65961  0.43600  0.41567  1.0000
  H   H2220     1.0  0.68288  0.57001  0.32367  1.0000
  C   C1286     1.0  0.82307  0.64703  0.30712  1.0000
  C   C1287     1.0  0.77098  0.62504  0.26295  1.0000
  H   H2221     1.0  0.51599  0.51004  0.48098  1.0000
  S   S386      1.0  0.72046  0.62109  0.30449  1.0000
  C   C1288     1.0  0.66051  0.56802  0.37098  1.0000
  H   H2222     1.0  0.61716  0.45101  0.48200  1.0000
  C   C1289     1.0  0.78670  0.62023  0.27484  1.0000
  C   C1290     1.0  0.50549  0.49357  0.37788  1.0000
  C   C1291     1.0  0.65061  0.60629  0.36138  1.0000
  C   C1292     1.0  0.77417  0.63986  0.36925  1.0000
  H   H2223     1.0  0.81926  0.61564  0.32288  1.0000
  C   C1293     1.0  0.60805  0.49723  0.48497  1.0000
  H   H2224     1.0  0.52061  0.52426  0.31727  1.0000
  C   C1294     1.0  0.62202  0.60734  0.42417  1.0000
  H   H2225     1.0  0.67373  0.60766  0.44687  1.0000
  H   H2226     1.0  0.66479  0.62500  0.24416  1.0000
  N   N94       1.0  0.66218  0.59797  0.42435  1.0000
  C   C1295     1.0  0.62323  0.58502  0.37521  1.0000
  C   C1296     1.0  0.64014  0.44748  0.44386  1.0000
  C   C1297     1.0  0.62909  0.60486  0.36750  1.0000
  H   H2227     1.0  0.50714  0.60289  0.46387  1.0000
  C   C1298     1.0  0.59697  0.40417  0.30142  1.0000
  H   H2228     1.0  0.53080  0.48805  0.34097  1.0000
  H   H2229     1.0  0.55119  0.34969  0.45802  1.0000
  H   H2230     1.0  0.67576  0.42721  0.46430  1.0000
  H   H2231     1.0  0.62515  0.59773  0.31466  1.0000
  H   H2232     1.0  0.66582  0.61413  0.39142  1.0000
  H   H2233     1.0  0.65999  0.46301  0.41572  1.0000
  C   C1299     1.0  0.65886  0.60423  0.44515  1.0000
  H   H2234     1.0  0.63500  0.46386  0.44673  1.0000
  S   S387      1.0  0.78026  0.62325  0.30113  1.0000
  H   H2235     1.0  0.63798  0.57451  0.30369  1.0000
  C   C1300     1.0  0.60056  0.35871  0.46365  1.0000
  C   C1301     1.0  0.66560  0.61726  0.40693  1.0000
  H   H2236     1.0  0.62277  0.65458  0.31111  1.0000
  H   H2237     1.0  0.52415  0.49363  0.44841  1.0000
  H   H2238     1.0  0.49411  0.48608  0.47262  1.0000
  H   H2239     1.0  0.70066  0.61330  0.39968  1.0000
  C   C1302     1.0  0.82479  0.62847  0.32639  1.0000
  N   N95       1.0  0.66030  0.61436  0.28914  1.0000
  C   C1303     1.0  0.67987  0.61682  0.27190  1.0000
  C   C1304     1.0  0.66773  0.60156  0.30902  1.0000
  C   C1305     1.0  0.64900  0.63629  0.29244  1.0000
  H   H2240     1.0  0.60499  0.41378  0.47165  1.0000
  C   C1306     1.0  0.62840  0.63783  0.30940  1.0000
  H   H2241     1.0  0.82021  0.58818  0.35005  1.0000
  H   H2242     1.0  0.69083  0.62378  0.27686  1.0000
  H   H2243     1.0  0.68908  0.60113  0.26879  1.0000
  H   H2244     1.0  0.65430  0.59878  0.32241  1.0000
  H   H2245     1.0  0.67665  0.61052  0.31433  1.0000
  C   C1307     1.0  0.81357  0.61273  0.24404  1.0000
  H   H2246     1.0  0.51877  0.55400  0.37640  1.0000
  H   H2247     1.0  0.65382  0.37167  0.34413  1.0000
  H   H2248     1.0  0.63650  0.40796  0.44982  1.0000
  H   H2249     1.0  0.60917  0.59976  0.42362  1.0000
  C   C1308     1.0  0.64100  0.38486  0.34892  1.0000
  H   H2250     1.0  0.54737  0.44610  0.45685  1.0000
  H   H2251     1.0  0.69467  0.58326  0.42746  1.0000
  H   H2252     1.0  0.52261  0.37643  0.44807  1.0000
  H   H2253     1.0  0.65497  0.62164  0.35555  1.0000
  N   N96       1.0  0.63187  0.40339  0.31227  1.0000
  H   H2254     1.0  0.62794  0.45671  0.28540  1.0000
  H   H2255     1.0  0.62585  0.37924  0.35477  1.0000
  H   H2256     1.0  0.64627  0.58671  0.40662  1.0000
  C   C1309     1.0  0.62199  0.44383  0.29815  1.0000
  H   H2257     1.0  0.59985  0.41638  0.32719  1.0000
  H   H2258     1.0  0.64730  0.61953  0.44582  1.0000
  C   C1310     1.0  0.64328  0.38334  0.30465  1.0000
  C   C1311     1.0  0.68623  0.62520  0.40419  1.0000
  C   C1312     1.0  0.65987  0.44677  0.42565  1.0000
  S   S388      1.0  0.69341  0.58896  0.35722  1.0000
  H   H2259     1.0  0.63438  0.42002  0.27934  1.0000
  H   H2260     1.0  0.67122  0.55498  0.44754  1.0000
  S   S389      1.0  0.50691  0.35129  0.41076  1.0000
  C   C1313     1.0  0.51334  0.55949  0.48524  1.0000
  C   C1314     1.0  0.68179  0.58074  0.42119  1.0000
  C   C1315     1.0  0.51263  0.51971  0.33407  1.0000
  H   H2261     1.0  0.50708  0.45826  0.33270  1.0000
  H   H2262     1.0  0.55014  0.48201  0.45317  1.0000
  H   H2263     1.0  0.65943  0.39008  0.48760  1.0000
  C   C1316     1.0  0.53204  0.50506  0.47156  1.0000
  H   H2264     1.0  0.75750  0.64363  0.36722  1.0000
  C   C1317     1.0  0.77654  0.62326  0.24173  1.0000
  C   C1318     1.0  0.51955  0.45750  0.44324  1.0000
  H   H2265     1.0  0.53559  0.51898  0.45886  1.0000
  H   H2266     1.0  0.69141  0.62900  0.23852  1.0000
  H   H2267     1.0  0.60528  0.35275  0.29711  1.0000
  S   S390      1.0  0.61214  0.33741  0.37100  1.0000
  C   C1319     1.0  0.62170  0.43438  0.47984  1.0000
  C   C1320     1.0  0.80796  0.61381  0.26541  1.0000
  C   C1321     1.0  0.50706  0.35686  0.47747  1.0000
  H   H2268     1.0  0.52119  0.52465  0.34353  1.0000
  H   H2269     1.0  0.51924  0.38632  0.47172  1.0000
  H   H2270     1.0  0.49796  0.46886  0.40643  1.0000
  C   C1322     1.0  0.50193  0.47400  0.48476  1.0000
  C   C1323     1.0  0.68204  0.57960  0.30749  1.0000
  C   C1324     1.0  0.51942  0.59254  0.43478  1.0000
  C   C1325     1.0  0.50356  0.46359  0.36478  1.0000
  C   C1326     1.0  0.49822  0.56139  0.47053  1.0000
  H   H2271     1.0  0.50254  0.46503  0.44703  1.0000
  H   H2272     1.0  0.50285  0.51108  0.37543  1.0000
  C   C1327     1.0  0.78919  0.63739  0.34782  1.0000
  C   C1328     1.0  0.60228  0.42993  0.47447  1.0000
  C   C1329     1.0  0.60795  0.34605  0.32969  1.0000
  H   H2273     1.0  0.65193  0.37551  0.47285  1.0000
  S   S391      1.0  0.64383  0.33092  0.27519  1.0000
  N   N97       1.0  0.49943  0.48746  0.36043  1.0000
  C   C1330     1.0  0.51219  0.37821  0.46361  1.0000
  H   H2274     1.0  0.50305  0.43609  0.35368  1.0000
  H   H2275     1.0  0.52737  0.54664  0.48223  1.0000
  H   H2276     1.0  0.49716  0.38905  0.46039  1.0000
  H   H2277     1.0  0.69856  0.58111  0.29936  1.0000
  C   C1331     1.0  0.64761  0.39063  0.47840  1.0000
  H   H2278     1.0  0.50751  0.55361  0.45729  1.0000
  C   C1332     1.0  0.54180  0.33690  0.46365  1.0000
  H   H2279     1.0  0.83291  0.64128  0.29285  1.0000
  C   C1333     1.0  0.49821  0.45363  0.34907  1.0000
  C   C1334     1.0  0.50036  0.59910  0.45224  1.0000
  H   H2280     1.0  0.63072  0.62829  0.32513  1.0000
  C   C1335     1.0  0.67607  0.63039  0.25015  1.0000
  H   H2281     1.0  0.54426  0.50129  0.48124  1.0000
  H   H2282     1.0  0.67070  0.64751  0.25032  1.0000
  H   H2283     1.0  0.85096  0.65064  0.33293  1.0000
  H   H2284     1.0  0.78443  0.65209  0.33617  1.0000
  H   H2285     1.0  0.67215  0.45537  0.48332  1.0000
  H   H2286     1.0  0.49731  0.49400  0.41128  1.0000
  H   H2287     1.0  0.87077  0.65329  0.27780  1.0000
  C   C1336     1.0  0.59779  0.36364  0.48333  1.0000
  H   H2288     1.0  0.64431  0.46299  0.48454  1.0000
  H   H2289     1.0  0.80975  0.65547  0.36706  1.0000
  C   C1337     1.0  0.84134  0.65255  0.34873  1.0000
  Fe  Fe199     1.0  0.61771  0.51862  0.56647  1.0000
  S   S392      1.0  0.64935  0.52469  0.54729  1.0000
  S   S393      1.0  0.61441  0.48682  0.58768  1.0000
  Fe  Fe200     1.0  0.59453  0.56222  0.54886  1.0000
  S   S394      1.0  0.62423  0.57228  0.52806  1.0000
  S   S395      1.0  0.56199  0.58216  0.54763  1.0000
  Fe  Fe201     1.0  0.63205  0.53985  0.52088  1.0000
  Fe  Fe202     1.0  0.63887  0.55640  0.55639  1.0000
  S   S396      1.0  0.66465  0.56724  0.56473  1.0000
  S   S397      1.0  0.60121  0.53114  0.53933  1.0000
  S   S398      1.0  0.60838  0.54906  0.57798  1.0000
  S   S399      1.0  0.59906  0.39605  0.53056  1.0000
  S   S400      1.0  0.63913  0.35773  0.54233  1.0000
  Fe  Fe203     1.0  0.62619  0.39117  0.54633  1.0000
  S   S401      1.0  0.64612  0.41602  0.53403  1.0000
  H   H2290     1.0  0.68422  0.62467  0.55160  1.0000
  H   H2291     1.0  0.67312  0.64191  0.73447  1.0000
  H   H2292     1.0  0.66082  0.48750  0.58892  1.0000
  H   H2293     1.0  0.87243  0.62955  0.64164  1.0000
  H   H2294     1.0  0.78739  0.62665  0.69477  1.0000
  C   C1338     1.0  0.75934  0.60698  0.63965  1.0000
  Fe  Fe204     1.0  0.66947  0.63286  0.64183  1.0000
  H   H2295     1.0  0.53758  0.33473  0.61690  1.0000
  S   S402      1.0  0.64333  0.62228  0.63400  1.0000
  Fe  Fe205     1.0  0.70272  0.62228  0.66852  1.0000
  H   H2296     1.0  0.57184  0.45488  0.60915  1.0000
  H   H2297     1.0  0.61965  0.50379  0.50924  1.0000
  H   H2298     1.0  0.57516  0.33326  0.66534  1.0000
  H   H2299     1.0  0.59913  0.48590  0.49574  1.0000
  C   C1339     1.0  0.85962  0.63421  0.65429  1.0000
  S   S403      1.0  0.66757  0.63508  0.67517  1.0000
  S   S404      1.0  0.70389  0.61722  0.63655  1.0000
  H   H2300     1.0  0.56886  0.48122  0.59382  1.0000
  H   H2301     1.0  0.52232  0.35401  0.51049  1.0000
  C   C1340     1.0  0.58894  0.44970  0.53375  1.0000
  H   H2302     1.0  0.49765  0.43998  0.49694  1.0000
  H   H2303     1.0  0.53573  0.32835  0.65304  1.0000
  H   H2304     1.0  0.49967  0.48214  0.49792  1.0000
  H   H2305     1.0  0.53344  0.35315  0.65943  1.0000
  C   C1341     1.0  0.72582  0.60706  0.70974  1.0000
  C   C1342     1.0  0.71786  0.62839  0.71044  1.0000
  C   C1343     1.0  0.56697  0.49004  0.55093  1.0000
  H   H2306     1.0  0.59741  0.46300  0.52922  1.0000
  H   H2307     1.0  0.58679  0.45407  0.57219  1.0000
  H   H2308     1.0  0.56165  0.49960  0.56324  1.0000
  C   C1344     1.0  0.62476  0.46692  0.57309  1.0000
  C   C1345     1.0  0.62441  0.44570  0.58310  1.0000
  C   C1346     1.0  0.63121  0.42991  0.57120  1.0000
  C   C1347     1.0  0.63883  0.43527  0.54937  1.0000
  C   C1348     1.0  0.63992  0.45637  0.53953  1.0000
  C   C1349     1.0  0.63268  0.47221  0.55134  1.0000
  H   H2309     1.0  0.61842  0.44155  0.59996  1.0000
  H   H2310     1.0  0.63078  0.41359  0.57895  1.0000
  H   H2311     1.0  0.64584  0.46061  0.52267  1.0000
  H   H2312     1.0  0.63308  0.48852  0.54350  1.0000
  C   C1350     1.0  0.64945  0.60635  0.61527  1.0000
  C   C1351     1.0  0.67046  0.59751  0.60709  1.0000
  C   C1352     1.0  0.67489  0.58567  0.59146  1.0000
  C   C1353     1.0  0.65835  0.58225  0.58422  1.0000
  C   C1354     1.0  0.63732  0.59073  0.59266  1.0000
  C   C1355     1.0  0.63291  0.60279  0.60813  1.0000
  H   H2313     1.0  0.68328  0.59983  0.61275  1.0000
  H   H2314     1.0  0.69117  0.57896  0.58509  1.0000
  H   H2315     1.0  0.62448  0.58818  0.58714  1.0000
  H   H2316     1.0  0.61662  0.60955  0.61445  1.0000
  C   C1356     1.0  0.54024  0.38962  0.54193  1.0000
  C   C1357     1.0  0.52738  0.38778  0.52933  1.0000
  H   H2317     1.0  0.55726  0.38573  0.53703  1.0000
  H   H2318     1.0  0.53470  0.38303  0.51452  1.0000
  C   C1358     1.0  0.51349  0.53906  0.57029  1.0000
  H   H2319     1.0  0.52217  0.46421  0.54473  1.0000
  C   C1359     1.0  0.52379  0.57218  0.54992  1.0000
  C   C1360     1.0  0.54315  0.56578  0.55664  1.0000
  C   C1361     1.0  0.54748  0.54616  0.57045  1.0000
  C   C1362     1.0  0.53253  0.53302  0.57751  1.0000
  H   H2320     1.0  0.57965  0.38443  0.50403  1.0000
  H   H2321     1.0  0.52033  0.58742  0.53938  1.0000
  H   H2322     1.0  0.56224  0.54127  0.57596  1.0000
  H   H2323     1.0  0.53577  0.51809  0.58855  1.0000
  H   H2324     1.0  0.55889  0.49719  0.51911  1.0000
  H   H2325     1.0  0.84497  0.65135  0.72444  1.0000
  H   H2326     1.0  0.55772  0.46454  0.52853  1.0000
  H   H2327     1.0  0.74604  0.61617  0.64942  1.0000
  C   C1363     1.0  0.82630  0.64576  0.68696  1.0000
  H   H2328     1.0  0.63064  0.35591  0.61129  1.0000
  H   H2329     1.0  0.67109  0.35215  0.58029  1.0000
  C   C1364     1.0  0.68458  0.34710  0.58860  1.0000
  N   N98       1.0  0.55591  0.34832  0.63046  1.0000
  H   H2330     1.0  0.65155  0.61207  0.72410  1.0000
  H   H2331     1.0  0.66218  0.62900  0.57186  1.0000
  C   C1365     1.0  0.53282  0.43953  0.50947  1.0000
  H   H2332     1.0  0.51688  0.44284  0.51976  1.0000
  C   C1366     1.0  0.57556  0.37193  0.64063  1.0000
  H   H2333     1.0  0.57215  0.51496  0.52279  1.0000
  C   C1367     1.0  0.57641  0.33376  0.62312  1.0000
  H   H2334     1.0  0.82554  0.58979  0.68070  1.0000
  C   C1368     1.0  0.55289  0.33269  0.50791  1.0000
  S   S405      1.0  0.83667  0.60742  0.71438  1.0000
  C   C1369     1.0  0.81056  0.59170  0.67537  1.0000
  H   H2335     1.0  0.75571  0.63836  0.66520  1.0000
  H   H2336     1.0  0.50981  0.36406  0.60917  1.0000
  H   H2337     1.0  0.59127  0.44352  0.51938  1.0000
  C   C1370     1.0  0.78688  0.63709  0.63300  1.0000
  H   H2338     1.0  0.66661  0.64288  0.52442  1.0000
  C   C1371     1.0  0.67498  0.49112  0.59196  1.0000
  Fe  Fe206     1.0  0.61799  0.34903  0.57391  1.0000
  C   C1372     1.0  0.69087  0.64534  0.57880  1.0000
  H   H2339     1.0  0.58422  0.34105  0.60696  1.0000
  H   H2340     1.0  0.55849  0.44156  0.54881  1.0000
  Fe  Fe207     1.0  0.70993  0.65033  0.62497  1.0000
  C   C1373     1.0  0.55997  0.50520  0.53108  1.0000
  C   C1374     1.0  0.73819  0.59414  0.72411  1.0000
  H   H2341     1.0  0.68622  0.49358  0.57646  1.0000
  H   H2342     1.0  0.53536  0.47170  0.50220  1.0000
  H   H2343     1.0  0.76162  0.61581  0.62294  1.0000
  H   H2344     1.0  0.53022  0.48684  0.57555  1.0000
  H   H2345     1.0  0.71595  0.65326  0.72601  1.0000
  C   C1375     1.0  0.71102  0.62796  0.57505  1.0000
  C   C1376     1.0  0.80797  0.61196  0.65781  1.0000
  H   H2346     1.0  0.56862  0.36908  0.65780  1.0000
  H   H2347     1.0  0.59139  0.36157  0.63732  1.0000
  H   H2348     1.0  0.68053  0.54225  0.61521  1.0000
  H   H2349     1.0  0.54623  0.46833  0.60405  1.0000
  H   H2350     1.0  0.64585  0.63259  0.54474  1.0000
  H   H2351     1.0  0.70571  0.64924  0.53414  1.0000
  S   S406      1.0  0.71150  0.65423  0.65653  1.0000
  H   H2352     1.0  0.63599  0.53549  0.63958  1.0000
  C   C1377     1.0  0.63513  0.34173  0.62275  1.0000
  H   H2353     1.0  0.58829  0.33145  0.63280  1.0000
  C   C1378     1.0  0.54513  0.34005  0.65287  1.0000
  H   H2354     1.0  0.56657  0.37663  0.61098  1.0000
  N   N99       1.0  0.55898  0.46952  0.55890  1.0000
  H   H2355     1.0  0.81177  0.65159  0.63652  1.0000
  C   C1379     1.0  0.52100  0.47844  0.55086  1.0000
  H   H2356     1.0  0.81295  0.64978  0.69930  1.0000
  H   H2357     1.0  0.61342  0.50848  0.65051  1.0000
  H   H2358     1.0  0.54464  0.51611  0.53548  1.0000
  C   C1380     1.0  0.61281  0.51350  0.63359  1.0000
  H   H2359     1.0  0.60038  0.50648  0.63123  1.0000
  H   H2360     1.0  0.63587  0.65574  0.58247  1.0000
  S   S407      1.0  0.49595  0.52136  0.57834  1.0000
  C   C1381     1.0  0.56926  0.45658  0.57710  1.0000
  H   H2361     1.0  0.79735  0.59230  0.68937  1.0000
  H   H2362     1.0  0.50181  0.40758  0.58127  1.0000
  H   H2363     1.0  0.49520  0.36089  0.49164  1.0000
  H   H2364     1.0  0.79288  0.59405  0.63641  1.0000
  H   H2365     1.0  0.70950  0.34952  0.61398  1.0000
  C   C1382     1.0  0.55964  0.32858  0.66890  1.0000
  C   C1383     1.0  0.50525  0.39233  0.53566  1.0000
  N   N100      1.0  0.65380  0.51139  0.62150  1.0000
  C   C1384     1.0  0.66965  0.51148  0.60074  1.0000
  C   C1385     1.0  0.84610  0.65404  0.65083  1.0000
  C   C1386     1.0  0.63400  0.50605  0.61898  1.0000
  C   C1387     1.0  0.66353  0.49475  0.63829  1.0000
  H   H2366     1.0  0.67839  0.35233  0.60378  1.0000
  H   H2367     1.0  0.67924  0.61323  0.71888  1.0000
  H   H2368     1.0  0.72370  0.63403  0.56221  1.0000
  C   C1388     1.0  0.65105  0.49342  0.66129  1.0000
  H   H2369     1.0  0.66386  0.52481  0.58823  1.0000
  H   H2370     1.0  0.68507  0.51421  0.60186  1.0000
  C   C1389     1.0  0.56018  0.37011  0.62790  1.0000
  C   C1390     1.0  0.51956  0.36554  0.61967  1.0000
  H   H2371     1.0  0.63126  0.51320  0.60271  1.0000
  H   H2372     1.0  0.63592  0.48861  0.62079  1.0000
  H   H2373     1.0  0.66571  0.47866  0.63524  1.0000
  H   H2374     1.0  0.68003  0.49613  0.63764  1.0000
  H   H2375     1.0  0.68294  0.47718  0.60234  1.0000
  H   H2376     1.0  0.64299  0.54529  0.61225  1.0000
  H   H2377     1.0  0.50536  0.55540  0.50208  1.0000
  C   C1391     1.0  0.64900  0.53343  0.62567  1.0000
  C   C1392     1.0  0.49598  0.39923  0.55457  1.0000
  H   H2378     1.0  0.54923  0.35554  0.59900  1.0000
  H   H2379     1.0  0.52104  0.38240  0.61541  1.0000
  H   H2380     1.0  0.75455  0.59207  0.64011  1.0000
  H   H2381     1.0  0.53044  0.45950  0.57904  1.0000
  H   H2382     1.0  0.63953  0.48280  0.66517  1.0000
  C   C1393     1.0  0.85668  0.62029  0.67398  1.0000
  H   H2383     1.0  0.86991  0.64974  0.73025  1.0000
  C   C1394     1.0  0.56346  0.46607  0.59700  1.0000
  H   H2384     1.0  0.69235  0.34335  0.63887  1.0000
  H   H2385     1.0  0.82004  0.60872  0.64341  1.0000
  S   S408      1.0  0.58996  0.35031  0.56060  1.0000
  C   C1395     1.0  0.53491  0.34800  0.49772  1.0000
  C   C1396     1.0  0.66426  0.61398  0.73096  1.0000
  H   H2386     1.0  0.64269  0.50898  0.66500  1.0000
  C   C1397     1.0  0.66768  0.54059  0.62950  1.0000
  C   C1398     1.0  0.53523  0.47357  0.56709  1.0000
  H   H2387     1.0  0.50417  0.48280  0.55896  1.0000
  S   S409      1.0  0.54776  0.40025  0.57535  1.0000
  H   H2388     1.0  0.86725  0.60496  0.67647  1.0000
  H   H2389     1.0  0.64251  0.35855  0.64243  1.0000
  C   C1399     1.0  0.65688  0.64379  0.54046  1.0000
  H   H2390     1.0  0.52422  0.49196  0.53768  1.0000
  H   H2391     1.0  0.68015  0.63818  0.59312  1.0000
  H   H2392     1.0  0.71769  0.62248  0.58956  1.0000
  C   C1400     1.0  0.50904  0.55875  0.55659  1.0000
  C   C1401     1.0  0.61947  0.50753  0.49261  1.0000
  C   C1402     1.0  0.50896  0.40186  0.56687  1.0000
  H   H2393     1.0  0.67416  0.52990  0.64308  1.0000
  C   C1403     1.0  0.56496  0.45637  0.54236  1.0000
  H   H2394     1.0  0.56540  0.44041  0.58221  1.0000
  C   C1404     1.0  0.67104  0.63743  0.55689  1.0000
  H   H2395     1.0  0.74450  0.57762  0.72352  1.0000
  H   H2396     1.0  0.81307  0.62418  0.66263  1.0000
  H   H2397     1.0  0.51058  0.36167  0.63613  1.0000
  H   H2398     1.0  0.54445  0.43433  0.51995  1.0000
  H   H2399     1.0  0.54528  0.38144  0.63256  1.0000
  N   N101      1.0  0.78611  0.61979  0.65282  1.0000
  C   C1405     1.0  0.77994  0.60151  0.64813  1.0000
  H   H2400     1.0  0.53419  0.42597  0.50238  1.0000
  H   H2401     1.0  0.66183  0.55653  0.63339  1.0000
  C   C1406     1.0  0.76959  0.62727  0.67097  1.0000
  C   C1407     1.0  0.64189  0.34320  0.64035  1.0000
  C   C1408     1.0  0.84010  0.62600  0.69038  1.0000
  H   H2402     1.0  0.57826  0.38846  0.63598  1.0000
  H   H2403     1.0  0.77359  0.33111  0.71405  1.0000
  C   C1409     1.0  0.64877  0.32480  0.65475  1.0000
  H   H2404     1.0  0.77760  0.58874  0.66259  1.0000
  H   H2405     1.0  0.59645  0.43670  0.54535  1.0000
  H   H2406     1.0  0.77075  0.64386  0.62946  1.0000
  H   H2407     1.0  0.70823  0.63832  0.69953  1.0000
  H   H2408     1.0  0.66236  0.48690  0.67212  1.0000
  H   H2409     1.0  0.69715  0.35557  0.57844  1.0000
  S   S410      1.0  0.61409  0.34835  0.50087  1.0000
  C   C1410     1.0  0.72186  0.63674  0.72568  1.0000
  H   H2410     1.0  0.81184  0.57735  0.66937  1.0000
  Fe  Fe208     1.0  0.61028  0.36170  0.52934  1.0000
  S   S411      1.0  0.60744  0.38229  0.57927  1.0000
  H   H2411     1.0  0.58457  0.48735  0.54846  1.0000
  S   S412      1.0  0.72052  0.59675  0.69066  1.0000
  Fe  Fe209     1.0  0.58122  0.38442  0.56311  1.0000
  C   C1411     1.0  0.53113  0.39697  0.56052  1.0000
  H   H2412     1.0  0.60744  0.53099  0.62931  1.0000
  H   H2413     1.0  0.70761  0.61380  0.57198  1.0000
  H   H2414     1.0  0.55134  0.33197  0.68467  1.0000
  H   H2415     1.0  0.79661  0.63041  0.61911  1.0000
  N   N102      1.0  0.67960  0.65470  0.56056  1.0000
  H   H2416     1.0  0.76299  0.61377  0.68212  1.0000
  C   C1412     1.0  0.54133  0.35034  0.61581  1.0000
  C   C1413     1.0  0.77668  0.63812  0.68489  1.0000
  H   H2417     1.0  0.49420  0.56374  0.55131  1.0000
  H   H2418     1.0  0.56863  0.33375  0.49726  1.0000
  C   C1414     1.0  0.70713  0.33695  0.62832  1.0000
  H   H2419     1.0  0.50654  0.32607  0.52712  1.0000
  H   H2420     1.0  0.64919  0.64661  0.72633  1.0000
  H   H2421     1.0  0.72016  0.33458  0.63675  1.0000
  C   C1415     1.0  0.53789  0.45945  0.49291  1.0000
  H   H2422     1.0  0.72739  0.33821  0.58659  1.0000
  S   S413      1.0  0.65971  0.32678  0.67507  1.0000
  H   H2423     1.0  0.62349  0.42451  0.49573  1.0000
  H   H2424     1.0  0.78445  0.65145  0.67577  1.0000
  H   H2425     1.0  0.55281  0.33721  0.52273  1.0000
  H   H2426     1.0  0.76248  0.64460  0.69604  1.0000
  H   H2427     1.0  0.65923  0.42339  0.48942  1.0000
  C   C1416     1.0  0.79586  0.65623  0.63274  1.0000
  S   S414      1.0  0.73665  0.65672  0.59732  1.0000
  H   H2428     1.0  0.54168  0.36216  0.48869  1.0000
  C   C1417     1.0  0.58215  0.38084  0.48877  1.0000
  H   H2429     1.0  0.63175  0.39083  0.48900  1.0000
  C   C1418     1.0  0.65846  0.63546  0.73782  1.0000
  Fe  Fe210     1.0  0.90685  0.37031  0.85591  1.0000
  S   S415      1.0  0.93004  0.36989  0.87496  1.0000
  S   S416      1.0  0.87634  0.39415  0.85484  1.0000
  S   S417      1.0  0.88711  0.38512  0.97646  1.0000
  S   S418      1.0  0.93160  0.36531  0.82696  1.0000
  Fe  Fe211     1.0  0.89066  0.51667  0.91946  1.0000
  S   S419      1.0  0.91756  0.52323  0.89243  1.0000
  Fe  Fe212     1.0  0.88598  0.47851  0.90611  1.0000
  S   S420      1.0  0.91302  0.48131  0.87813  1.0000
  S   S421      1.0  0.86456  0.45509  0.91622  1.0000
  Fe  Fe213     1.0  0.92957  0.48810  0.90004  1.0000
  S   S422      1.0  0.96315  0.47416  0.90431  1.0000
  Fe  Fe214     1.0  0.89846  0.51621  0.87300  1.0000
  S   S423      1.0  0.89706  0.53500  0.83985  1.0000
  S   S424      1.0  0.90378  0.48198  0.92854  1.0000
  S   S425      1.0  0.87024  0.51281  0.89961  1.0000
  H   H2430     1.0  0.88170  0.32538  0.96400  1.0000
  Fe  Fe215     1.0  0.80225  0.60135  0.79054  1.0000
  S   S426      1.0  0.79189  0.59643  0.76322  1.0000
  S   S427      1.0  0.80573  0.57593  0.81991  1.0000
  C   C1419     1.0  0.68241  0.62098  0.77163  1.0000
  C   C1420     1.0  0.86688  0.35181  0.82725  1.0000
  H   H2431     1.0  0.87330  0.33573  0.82387  1.0000
  Fe  Fe216     1.0  0.76899  0.62717  0.76534  1.0000
  Fe  Fe217     1.0  0.93069  0.33497  0.88485  1.0000
  C   C1421     1.0  0.89660  0.52931  0.96125  1.0000
  C   C1422     1.0  0.98543  0.40242  0.94770  1.0000
  H   H2432     1.0  0.95456  0.36498  0.96336  1.0000
  S   S428      1.0  0.82714  0.61939  0.77030  1.0000
  H   H2433     1.0  0.73215  0.65555  0.79369  1.0000
  H   H2434     1.0  0.84231  0.48688  0.95826  1.0000
  H   H2435     1.0  0.95848  0.56370  0.95089  1.0000
  C   C1423     1.0  0.95217  0.55547  0.94216  1.0000
  H   H2436     1.0  0.75112  0.59239  0.75103  1.0000
  C   C1424     1.0  0.97294  0.51216  0.88138  1.0000
  H   H2437     1.0  0.84905  0.34582  0.97420  1.0000
  Fe  Fe218     1.0  0.93188  0.33072  0.84067  1.0000
  C   C1425     1.0  0.91286  0.34768  0.96818  1.0000
  C   C1426     1.0  0.95101  0.38431  0.93164  1.0000
  C   C1427     1.0  0.87789  0.36749  0.80890  1.0000
  C   C1428     1.0  0.86865  0.48878  0.84819  1.0000
  H   H2438     1.0  0.74438  0.65373  0.84934  1.0000
  S   S429      1.0  0.90515  0.33596  0.86827  1.0000
  H   H2439     1.0  0.94587  0.39744  0.96845  1.0000
  H   H2440     1.0  0.84374  0.37242  0.85642  1.0000
  H   H2441     1.0  0.84475  0.48956  0.88664  1.0000
  N   N103      1.0  0.64628  0.63525  0.76018  1.0000
  H   H2442     1.0  0.90290  0.48473  0.83702  1.0000
  C   C1429     1.0  0.92485  0.57282  0.89404  1.0000
  H   H2443     1.0  0.98976  0.45296  0.86351  1.0000
  H   H2444     1.0  0.89078  0.47524  0.82168  1.0000
  C   C1430     1.0  0.87188  0.54836  0.83452  1.0000
  C   C1431     1.0  0.86971  0.55743  0.81359  1.0000
  C   C1432     1.0  0.84951  0.56676  0.80892  1.0000
  C   C1433     1.0  0.83142  0.56688  0.82521  1.0000
  C   C1434     1.0  0.83368  0.55836  0.84612  1.0000
  C   C1435     1.0  0.85384  0.54927  0.85077  1.0000
  H   H2445     1.0  0.88362  0.55691  0.80092  1.0000
  H   H2446     1.0  0.84789  0.57327  0.79271  1.0000
  H   H2447     1.0  0.81976  0.55865  0.85878  1.0000
  H   H2448     1.0  0.85531  0.54293  0.86694  1.0000
  H   H2449     1.0  0.81779  0.37341  0.85341  1.0000
  C   C1436     1.0  0.89402  0.36961  0.94108  1.0000
  C   C1437     1.0  0.92973  0.50939  0.97134  1.0000
  H   H2450     1.0  0.94461  0.49829  0.96829  1.0000
  H   H2451     1.0  0.82753  0.47290  0.88573  1.0000
  C   C1438     1.0  0.97750  0.49456  0.89746  1.0000
  N   N104      1.0  0.84293  0.35614  0.83274  1.0000
  H   H2452     1.0  0.96080  0.51312  0.87298  1.0000
  H   H2453     1.0  0.84022  0.51100  0.96670  1.0000
  C   C1439     1.0  0.87350  0.41100  0.87183  1.0000
  C   C1440     1.0  0.85388  0.41608  0.88522  1.0000
  C   C1441     1.0  0.85146  0.42926  0.89915  1.0000
  C   C1442     1.0  0.86843  0.43799  0.89919  1.0000
  C   C1443     1.0  0.88799  0.43320  0.88557  1.0000
  C   C1444     1.0  0.89061  0.41948  0.87204  1.0000
  H   H2454     1.0  0.84068  0.40946  0.88516  1.0000
  H   H2455     1.0  0.83636  0.43285  0.90978  1.0000
  H   H2456     1.0  0.90117  0.43975  0.88570  1.0000
  H   H2457     1.0  0.90577  0.41566  0.86159  1.0000
  N   N105      1.0  0.95109  0.40614  0.93398  1.0000
  N   N106      1.0  0.84765  0.49060  0.84244  1.0000
  H   H2458     1.0  0.83382  0.34969  0.78574  1.0000
  Fe  Fe219     1.0  0.80114  0.64829  0.77199  1.0000
  H   H2459     1.0  0.97339  0.42713  0.92356  1.0000
  H   H2460     1.0  0.87654  0.54945  0.98199  1.0000
  C   C1445     1.0  0.97348  0.40984  0.92922  1.0000
  H   H2461     1.0  0.88255  0.37918  0.81500  1.0000
  H   H2462     1.0  0.98352  0.40226  0.91604  1.0000
  C   C1446     1.0  0.96199  0.36537  0.94651  1.0000
  C   C1447     1.0  0.99071  0.47004  0.83189  1.0000
  H   H2463     1.0  0.69157  0.61392  0.75793  1.0000
  H   H2464     1.0  0.82924  0.40799  0.84189  1.0000
  C   C1448     1.0  0.93396  0.55941  0.91355  1.0000
  H   H2465     1.0  0.60461  0.64521  0.78706  1.0000
  C   C1449     1.0  0.61033  0.62890  0.78418  1.0000
  H   H2466     1.0  0.92259  0.40606  0.95846  1.0000
  H   H2467     1.0  0.81674  0.49829  0.89211  1.0000
  C   C1450     1.0  0.90386  0.35503  0.92810  1.0000
  H   H2468     1.0  0.90915  0.57514  0.95684  1.0000
  Fe  Fe220     1.0  0.81454  0.61724  0.74316  1.0000
  S   S430      1.0  0.73547  0.63400  0.76121  1.0000
  C   C1451     1.0  0.91593  0.51508  0.95728  1.0000
  H   H2469     1.0  0.94378  0.40684  0.89137  1.0000
  H   H2470     1.0  0.92400  0.44288  0.95249  1.0000
  H   H2471     1.0  0.88869  0.43752  0.97060  1.0000
  S   S431      1.0  0.95755  0.32629  0.85843  1.0000
  H   H2472     1.0  0.97372  0.56270  0.89950  1.0000
  H   H2473     1.0  0.62898  0.61172  0.76054  1.0000
  H   H2474     1.0  0.83067  0.51715  0.85700  1.0000
  H   H2475     1.0  0.85057  0.44522  0.82442  1.0000
  H   H2476     1.0  0.82065  0.49563  0.81385  1.0000
  C   C1452     1.0  0.84317  0.32961  0.86886  1.0000
  H   H2477     1.0  0.95909  0.38199  0.91548  1.0000
  C   C1453     1.0  0.89869  0.36608  0.96103  1.0000
  H   H2478     1.0  0.59610  0.62304  0.78428  1.0000
  H   H2479     1.0  0.90902  0.56947  0.89520  1.0000
  H   H2480     1.0  0.94019  0.43497  0.88462  1.0000
  C   C1454     1.0  0.94783  0.42055  0.89480  1.0000
  H   H2481     1.0  0.97259  0.52593  0.95389  1.0000
  H   H2482     1.0  0.97928  0.36480  0.94346  1.0000
  H   H2483     1.0  0.92235  0.59013  0.89242  1.0000
  C   C1455     1.0  0.97915  0.58599  0.91345  1.0000
  C   C1456     1.0  0.84880  0.32862  0.97996  1.0000
  H   H2484     1.0  0.98684  0.57455  0.92592  1.0000
  C   C1457     1.0  0.92283  0.33316  0.95512  1.0000
  H   H2485     1.0  0.93136  0.43054  0.97730  1.0000
  H   H2486     1.0  0.81547  0.36260  0.81878  1.0000
  C   C1458     1.0  0.65870  0.62009  0.77592  1.0000
  H   H2487     1.0  0.95887  0.58836  0.89245  1.0000
  C   C1459     1.0  0.84666  0.50553  0.82126  1.0000
  H   H2488     1.0  0.98276  0.35213  0.98710  1.0000
  C   C1460     1.0  0.82551  0.51028  0.81391  1.0000
  C   C1461     1.0  0.85887  0.45658  0.82684  1.0000
  H   H2489     1.0  0.81421  0.50047  0.85607  1.0000
  H   H2490     1.0  0.85925  0.49986  0.80840  1.0000
  H   H2491     1.0  0.84984  0.52106  0.82147  1.0000
  H   H2492     1.0  0.82728  0.46962  0.84257  1.0000
  H   H2493     1.0  0.82753  0.51983  0.79746  1.0000
  H   H2494     1.0  0.89989  0.35773  0.91285  1.0000
  H   H2495     1.0  0.81265  0.52017  0.82352  1.0000
  H   H2496     1.0  0.90008  0.60274  0.94704  1.0000
  H   H2497     1.0  0.86319  0.46656  0.81100  1.0000
  H   H2498     1.0  0.87336  0.35114  0.84114  1.0000
  H   H2499     1.0  0.96520  0.41977  0.88992  1.0000
  H   H2500     1.0  0.87349  0.44733  0.83255  1.0000
  H   H2501     1.0  0.61713  0.63795  0.75000  1.0000
  H   H2502     1.0  0.81849  0.33839  0.85095  1.0000
  N   N107      1.0  0.94534  0.57040  0.92280  1.0000
  C   C1462     1.0  0.88861  0.48790  0.83023  1.0000
  S   S432      1.0  0.98359  0.37630  0.83686  1.0000
  H   H2503     1.0  0.93896  0.43853  0.91884  1.0000
  C   C1463     1.0  0.93645  0.43129  0.96003  1.0000
  H   H2504     1.0  0.61750  0.61836  0.79743  1.0000
  H   H2505     1.0  0.94481  0.54518  0.90839  1.0000
  C   C1464     1.0  0.96413  0.57651  0.90622  1.0000
  C   C1465     1.0  0.83611  0.33647  0.84744  1.0000
  C   C1466     1.0  0.93912  0.42200  0.91820  1.0000
  C   C1467     1.0  0.83339  0.39686  0.83105  1.0000
  H   H2506     1.0  0.84877  0.39936  0.82063  1.0000
  C   C1468     1.0  0.98748  0.36120  0.87818  1.0000
  H   H2507     1.0  0.69091  0.64382  0.82415  1.0000
  C   C1469     1.0  0.89134  0.53822  0.97903  1.0000
  H   H2508     1.0  0.98873  0.45532  0.82852  1.0000
  H   H2509     1.0  0.92049  0.50872  0.94320  1.0000
  H   H2510     1.0  0.97519  0.35256  0.88003  1.0000
  H   H2511     1.0  0.84569  0.45838  0.85876  1.0000
  C   C1470     1.0  0.83433  0.37405  0.84439  1.0000
  H   H2512     1.0  0.72183  0.64762  0.82980  1.0000
  H   H2513     1.0  0.92209  0.42063  0.92210  1.0000
  H   H2514     1.0  0.88294  0.38377  0.93554  1.0000
  H   H2515     1.0  0.82079  0.40148  0.82170  1.0000
  H   H2516     1.0  0.93840  0.59604  0.93926  1.0000
  C   C1471     1.0  0.84397  0.46902  0.84319  1.0000
  C   C1472     1.0  0.83307  0.36069  0.81375  1.0000
  C   C1473     1.0  0.93888  0.40912  0.95569  1.0000
  S   S433      1.0  0.87915  0.53647  0.94388  1.0000
  C   C1474     1.0  0.93109  0.59012  0.92938  1.0000
  C   C1475     1.0  0.83006  0.48938  0.88197  1.0000
  H   H2517     1.0  0.97997  0.38951  0.96051  1.0000
  C   C1476     1.0  0.83012  0.50029  0.85860  1.0000
  H   H2518     1.0  0.87175  0.47456  0.86101  1.0000
  H   H2519     1.0  0.88852  0.50343  0.81887  1.0000
  H   H2520     1.0  0.86826  0.50262  0.85471  1.0000
  S   S434      1.0  0.77710  0.63054  0.79447  1.0000
  H   H2521     1.0  0.89902  0.58418  0.93273  1.0000
  H   H2522     1.0  0.66734  0.60009  0.74390  1.0000
  Fe  Fe221     1.0  0.95490  0.36143  0.84723  1.0000
  H   H2523     1.0  0.93552  0.56872  0.87930  1.0000
  H   H2524     1.0  0.93830  0.54996  0.95358  1.0000
  H   H2525     1.0  0.92922  0.60350  0.91555  1.0000
  H   H2526     1.0  0.69910  0.65028  0.79570  1.0000
  C   C1477     1.0  0.87202  0.44343  0.96866  1.0000
  H   H2527     1.0  0.86858  0.37603  0.79670  1.0000
  H   H2528     1.0  0.65782  0.60334  0.77722  1.0000
  C   C1478     1.0  0.68842  0.65596  0.80962  1.0000
  H   H2529     1.0  0.93441  0.38238  0.93370  1.0000
  C   C1479     1.0  0.84092  0.34386  0.80001  1.0000
  C   C1480     1.0  0.96895  0.53533  0.93843  1.0000
  H   H2530     1.0  0.83554  0.37599  0.80294  1.0000
  H   H2531     1.0  0.97093  0.60087  0.91887  1.0000
  H   H2532     1.0  0.87067  0.45857  0.95695  1.0000
  H   H2533     1.0  0.92104  0.55276  0.92564  1.0000
  C   C1481     1.0  0.62578  0.62833  0.76267  1.0000
  C   C1482     1.0  0.90864  0.58761  0.94220  1.0000
  H   H2534     1.0  0.68927  0.61140  0.78546  1.0000
  H   H2535     1.0  0.96036  0.35051  0.94316  1.0000
  H   H2536     1.0  0.86811  0.43167  0.96200  1.0000
  H   H2537     1.0  0.65166  0.62297  0.79213  1.0000
  H   H2538     1.0  0.89266  0.35849  0.80046  1.0000
  C   C1483     1.0  0.91852  0.33695  0.93496  1.0000
  H   H2539     1.0  0.96308  0.52490  0.93182  1.0000
  H   H2540     1.0  0.83633  0.34169  0.87867  1.0000
  H   H2541     1.0  0.97510  0.48123  0.83332  1.0000
  H   H2542     1.0  0.83580  0.32868  0.80829  1.0000
  H   H2543     1.0  0.98412  0.53906  0.92826  1.0000
  C   C1484     1.0  0.73356  0.62377  0.74050  1.0000
  H   H2544     1.0  0.86070  0.32563  0.86684  1.0000
  H   H2545     1.0  0.95136  0.43740  0.95455  1.0000
  H   H2546     1.0  0.85840  0.34092  0.79440  1.0000
  H   H2547     1.0  0.68501  0.63732  0.76894  1.0000
  H   H2548     1.0  0.98511  0.41601  0.95447  1.0000
  H   H2549     1.0  0.86491  0.49390  0.96297  1.0000
  H   H2550     1.0  0.91615  0.34459  0.98375  1.0000
  C   C1485     1.0  0.84781  0.49390  0.96866  1.0000
  C   C1486     1.0  0.98464  0.52824  0.87544  1.0000
  H   H2551     1.0  0.88676  0.47002  0.97930  1.0000
  S   S435      1.0  0.79068  0.64775  0.74303  1.0000
  H   H2552     1.0  0.98099  0.54182  0.86295  1.0000
  C   C1487     1.0  0.74210  0.60252  0.73953  1.0000
  H   H2553     1.0  0.83935  0.32534  0.97035  1.0000
  H   H2554     1.0  0.84066  0.44566  0.98803  1.0000
  H   H2555     1.0  0.72698  0.81167  0.10274  1.0000
  H   H2556     1.0  0.66015  0.76569  0.10003  1.0000
  Fe  Fe222     1.0  0.74693  0.79058  0.19582  1.0000
  S   S436      1.0  0.73752  0.75928  0.21009  1.0000
  S   S437      1.0  0.77640  0.79468  0.20295  1.0000
  Fe  Fe223     1.0  0.71152  0.80674  0.17146  1.0000
  S   S438      1.0  0.69875  0.77669  0.18407  1.0000
  S   S439      1.0  0.70081  0.83414  0.14588  1.0000
  Fe  Fe224     1.0  0.70447  0.77827  0.21507  1.0000
  C   C1488     1.0  0.79701  0.70404  0.22188  1.0000
  Fe  Fe225     1.0  0.73306  0.76031  0.17798  1.0000
  S   S440      1.0  0.74487  0.73084  0.16463  1.0000
  S   S441      1.0  0.71417  0.80994  0.20322  1.0000
  S   S442      1.0  0.74544  0.79010  0.16305  1.0000
  H   H2557     1.0  0.54122  0.88604  0.10287  1.0000
  H   H2558     1.0  0.58254  0.96027  0.00747  1.0000
  H   H2559     1.0  0.79968  0.69292  0.21124  1.0000
  H   H2560     1.0  0.86553  0.80784  0.15297  1.0000
  S   S443      1.0  0.60585  0.84442  0.05269  1.0000
  Fe  Fe226     1.0  0.63213  0.89203  0.04618  1.0000
  S   S444      1.0  0.60668  0.88313  0.07430  1.0000
  S   S445      1.0  0.64818  0.91981  0.03840  1.0000
  Fe  Fe227     1.0  0.62467  0.84975  0.07354  1.0000
  S   S446      1.0  0.62971  0.82582  0.10356  1.0000
  Fe  Fe228     1.0  0.59043  0.87873  0.05080  1.0000
  S   S447      1.0  0.55647  0.89278  0.04785  1.0000
  H   H2561     1.0  0.69497  0.79831  0.10767  1.0000
  S   S448      1.0  0.61441  0.89060  0.02281  1.0000
  H   H2562     1.0  0.61749  0.91239  0.11802  1.0000
  C   C1489     1.0  0.68123  0.89548  0.12590  1.0000
  C   C1490     1.0  0.61990  0.93679  0.07055  1.0000
  C   C1491     1.0  0.63679  0.93950  0.05327  1.0000
  H   H2563     1.0  0.65865  0.95980  0.03513  1.0000
  H   H2564     1.0  0.86745  0.67759  0.21245  1.0000
  H   H2565     1.0  0.67950  0.93100  0.08032  1.0000
  C   C1492     1.0  0.85500  0.70003  0.23253  1.0000
  C   C1493     1.0  0.57756  0.97440  0.05143  1.0000
  C   C1494     1.0  0.60191  0.86253  0.99155  1.0000
  C   C1495     1.0  0.64565  0.95754  0.04856  1.0000
  H   H2566     1.0  0.58445  0.98401  0.05809  1.0000
  C   C1496     1.0  0.52365  0.87953  0.04115  1.0000
  C   C1497     1.0  0.54178  0.87365  0.04992  1.0000
  C   C1498     1.0  0.54754  0.85279  0.06083  1.0000
  C   C1499     1.0  0.53536  0.83781  0.06274  1.0000
  H   H2567     1.0  0.65220  0.87333  0.13010  1.0000
  H   H2568     1.0  0.81104  0.67779  0.16618  1.0000
  H   H2569     1.0  0.56113  0.84824  0.06816  1.0000
  H   H2570     1.0  0.53995  0.82165  0.07113  1.0000
  C   C1500     1.0  0.68165  0.83080  0.13401  1.0000
  C   C1501     1.0  0.66684  0.81815  0.14520  1.0000
  C   C1502     1.0  0.65102  0.81660  0.13567  1.0000
  C   C1503     1.0  0.64979  0.82790  0.11503  1.0000
  C   C1504     1.0  0.66480  0.84031  0.10374  1.0000
  C   C1505     1.0  0.68084  0.84155  0.11315  1.0000
  H   H2571     1.0  0.66725  0.80996  0.16137  1.0000
  H   H2572     1.0  0.63945  0.80695  0.14445  1.0000
  H   H2573     1.0  0.66413  0.84884  0.08774  1.0000
  H   H2574     1.0  0.69264  0.85086  0.10426  1.0000
  C   C1506     1.0  0.77265  0.72276  0.16111  1.0000
  C   C1507     1.0  0.78556  0.73779  0.15532  1.0000
  C   C1508     1.0  0.80767  0.73121  0.15298  1.0000
  C   C1509     1.0  0.81692  0.70959  0.15718  1.0000
  C   C1510     1.0  0.80404  0.69452  0.16295  1.0000
  C   C1511     1.0  0.78198  0.70112  0.16446  1.0000
  H   H2575     1.0  0.77856  0.75451  0.15245  1.0000
  H   H2576     1.0  0.81755  0.74287  0.14833  1.0000
  C   C1512     1.0  0.51129  0.86463  0.04328  1.0000
  H   H2577     1.0  0.77209  0.68941  0.16889  1.0000
  C   C1513     1.0  0.71030  0.78717  0.10394  1.0000
  H   H2578     1.0  0.63187  0.98424  0.00875  1.0000
  C   C1514     1.0  0.61268  0.95145  0.08371  1.0000
  H   H2579     1.0  0.51918  0.89561  0.03268  1.0000
  C   C1515     1.0  0.77352  0.79426  0.22977  1.0000
  H   H2580     1.0  0.65162  0.90849  0.08797  1.0000
  C   C1516     1.0  0.64495  0.89036  0.12988  1.0000
  H   H2581     1.0  0.84559  0.80614  0.17660  1.0000
  H   H2582     1.0  0.64536  0.98612  0.05803  1.0000
  H   H2583     1.0  0.56401  0.84199  0.01612  1.0000
  H   H2584     1.0  0.87932  0.72577  0.19377  1.0000
  S   S449      1.0  0.65132  0.85889  0.04687  1.0000
  C   C1517     1.0  0.69294  0.75909  0.10363  1.0000
  C   C1518     1.0  0.63812  0.97248  0.06146  1.0000
  C   C1519     1.0  0.62198  0.96914  0.07935  1.0000
  H   H2585     1.0  0.53999  0.91175  0.08601  1.0000
  H   H2586     1.0  0.85007  0.71278  0.22000  1.0000
  C   C1520     1.0  0.65275  0.92723  0.11867  1.0000
  C   C1521     1.0  0.57101  0.82566  0.01356  1.0000
  C   C1522     1.0  0.53192  0.78550  0.00409  1.0000
  H   H2587     1.0  0.52158  0.90262  0.98925  1.0000
  H   H2588     1.0  0.76571  0.69546  0.20743  1.0000
  H   H2589     1.0  0.68852  0.87937  0.12266  1.0000
  H   H2590     1.0  0.69318  0.90551  0.11754  1.0000
  H   H2591     1.0  0.82787  0.79153  0.21155  1.0000
  C   C1523     1.0  0.49277  0.94519  0.05082  1.0000
  H   H2592     1.0  0.80249  0.73029  0.19548  1.0000
  N   N108      1.0  0.70791  0.76460  0.11381  1.0000
  C   C1524     1.0  0.72896  0.74933  0.11064  1.0000
  C   C1525     1.0  0.69945  0.76278  0.13721  1.0000
  C   C1526     1.0  0.74157  0.75086  0.08764  1.0000
  C   C1527     1.0  0.69238  0.74181  0.14955  1.0000
  H   H2593     1.0  0.69211  0.74200  0.10919  1.0000
  H   H2594     1.0  0.73955  0.75109  0.12021  1.0000
  H   H2595     1.0  0.72680  0.73264  0.11655  1.0000
  H   H2596     1.0  0.71177  0.76434  0.14480  1.0000
  H   H2597     1.0  0.68585  0.77600  0.14047  1.0000
  H   H2598     1.0  0.73300  0.74697  0.07751  1.0000
  H   H2599     1.0  0.75674  0.73902  0.08760  1.0000
  H   H2600     1.0  0.74584  0.76660  0.08052  1.0000
  H   H2601     1.0  0.67829  0.73983  0.14497  1.0000
  H   H2602     1.0  0.68775  0.74204  0.16665  1.0000
  H   H2603     1.0  0.70537  0.72779  0.14787  1.0000
  H   H2604     1.0  0.69554  0.88600  0.15333  1.0000
  H   H2605     1.0  0.61239  0.88709  0.13347  1.0000
  C   C1528     1.0  0.50604  0.91358  0.99234  1.0000
  H   H2606     1.0  0.54833  0.97590  0.04281  1.0000
  Fe  Fe229     1.0  0.85386  0.66733  0.17078  1.0000
  H   H2607     1.0  0.52395  0.84823  0.00620  1.0000
  H   H2608     1.0  0.87614  0.71244  0.17547  1.0000
  H   H2609     1.0  0.83812  0.77377  0.23300  1.0000
  H   H2610     1.0  0.50801  0.93964  0.10225  1.0000
  H   H2611     1.0  0.74038  0.69210  0.22314  1.0000
  C   C1529     1.0  0.62439  0.89519  0.12146  1.0000
  H   H2612     1.0  0.58360  0.82596  0.99902  1.0000
  S   S450      1.0  0.61453  0.98576  0.09744  1.0000
  C   C1530     1.0  0.67966  0.89365  0.14958  1.0000
  H   H2613     1.0  0.81305  0.70356  0.22427  1.0000
  C   C1531     1.0  0.66592  0.90218  0.09500  1.0000
  H   H2614     1.0  0.50104  0.89243  0.11235  1.0000
  H   H2615     1.0  0.64052  0.94763  0.14134  1.0000
  H   H2616     1.0  0.66617  0.93567  0.11477  1.0000
  H   H2617     1.0  0.58977  0.96778  0.03883  1.0000
  C   C1532     1.0  0.55716  0.98741  0.04382  1.0000
  C   C1533     1.0  0.78976  0.72663  0.20944  1.0000
  C   C1534     1.0  0.75747  0.68900  0.22354  1.0000
  C   C1535     1.0  0.53112  0.90219  0.10006  1.0000
  H   H2618     1.0  0.51494  0.91638  0.05776  1.0000
  H   H2619     1.0  0.88800  0.73520  0.16570  1.0000
  C   C1536     1.0  0.50953  0.90047  0.09683  1.0000
  H   H2620     1.0  0.79947  0.76767  0.23365  1.0000
  H   H2621     1.0  0.83505  0.77161  0.14256  1.0000
  H   H2622     1.0  0.59859  0.86417  0.00770  1.0000
  Fe  Fe230     1.0  0.63090  0.85654  0.02609  1.0000
  H   H2623     1.0  0.72225  0.79482  0.12817  1.0000
  H   H2624     1.0  0.83567  0.79736  0.14574  1.0000
  H   H2625     1.0  0.67082  0.88526  0.09373  1.0000
  H   H2626     1.0  0.87283  0.80244  0.17789  1.0000
  H   H2627     1.0  0.67554  0.90947  0.15360  1.0000
  C   C1537     1.0  0.67004  0.77227  0.10670  1.0000
  H   H2628     1.0  0.76293  0.67155  0.22741  1.0000
  S   S451      1.0  0.50281  0.82446  0.05584  1.0000
  N   N109      1.0  0.66090  0.90409  0.11781  1.0000
  C   C1538     1.0  0.68311  0.91392  0.07991  1.0000
  C   C1539     1.0  0.86465  0.68001  0.22831  1.0000
  H   H2629     1.0  0.71425  0.78990  0.08639  1.0000
  H   H2630     1.0  0.66233  0.77190  0.12352  1.0000
  S   S452      1.0  0.84450  0.70177  0.15568  1.0000
  H   H2631     1.0  0.74304  0.78564  0.10721  1.0000
  H   H2632     1.0  0.64097  0.92055  0.15400  1.0000
  H   H2633     1.0  0.85615  0.78579  0.21160  1.0000
  H   H2634     1.0  0.53407  0.77985  0.02067  1.0000
  H   H2635     1.0  0.56149  0.79695  0.01547  1.0000
  H   H2636     1.0  0.68361  0.91310  0.06346  1.0000
  H   H2637     1.0  0.66945  0.78900  0.09800  1.0000
  H   H2638     1.0  0.69917  0.90632  0.08309  1.0000
  H   H2639     1.0  0.81096  0.78961  0.14996  1.0000
  H   H2640     1.0  0.57355  0.96083  0.06443  1.0000
  H   H2641     1.0  0.63992  0.94212  0.99155  1.0000
  H   H2642     1.0  0.69887  0.76137  0.08625  1.0000
  C   C1540     1.0  0.72670  0.79492  0.11105  1.0000
  N   N110      1.0  0.84813  0.76361  0.18202  1.0000
  C   C1541     1.0  0.85312  0.74210  0.17639  1.0000
  C   C1542     1.0  0.82716  0.77514  0.17604  1.0000
  C   C1543     1.0  0.84546  0.75967  0.20570  1.0000
  C   C1544     1.0  0.86609  0.77495  0.17055  1.0000
  C   C1545     1.0  0.87544  0.72839  0.17811  1.0000
  C   C1546     1.0  0.82761  0.78371  0.15218  1.0000
  C   C1547     1.0  0.84168  0.77909  0.21551  1.0000
  C   C1548     1.0  0.86198  0.79908  0.16965  1.0000
  C   C1549     1.0  0.51724  0.84370  0.05399  1.0000
  H   H2643     1.0  0.85193  0.74353  0.15988  1.0000
  H   H2644     1.0  0.81990  0.78889  0.18354  1.0000
  H   H2645     1.0  0.81524  0.76471  0.18230  1.0000
  H   H2646     1.0  0.84118  0.73244  0.18618  1.0000
  H   H2647     1.0  0.85961  0.74889  0.21112  1.0000
  H   H2648     1.0  0.88029  0.76746  0.17772  1.0000
  H   H2649     1.0  0.87121  0.77287  0.15390  1.0000
  S   S453      1.0  0.64185  0.84248  0.99719  1.0000
  H   H2650     1.0  0.61284  0.92309  0.07420  1.0000
  H   H2651     1.0  0.69936  0.73690  0.22147  1.0000
  H   H2652     1.0  0.77546  0.72786  0.20336  1.0000
  H   H2653     1.0  0.83199  0.75137  0.21366  1.0000
  H   H2654     1.0  0.78701  0.73898  0.21862  1.0000
  H   H2655     1.0  0.62118  0.93549  0.13849  1.0000
  H   H2656     1.0  0.64331  0.93519  0.10631  1.0000
  C   C1550     1.0  0.63814  0.93239  0.13949  1.0000
  H   H2657     1.0  0.60007  0.94896  0.09746  1.0000
  H   H2658     1.0  0.51341  0.88905  0.08629  1.0000
  H   H2659     1.0  0.51944  0.93752  0.06614  1.0000
  H   H2660     1.0  0.66870  0.88330  0.15984  1.0000
  C   C1551     1.0  0.55383  0.81407  0.01332  1.0000
  H   H2661     1.0  0.62727  0.88879  0.10709  1.0000
  C   C1552     1.0  0.53519  0.84483  0.99143  1.0000
  H   H2662     1.0  0.50128  0.95803  0.04127  1.0000
  H   H2663     1.0  0.64002  0.89112  0.14677  1.0000
  H   H2664     1.0  0.49181  0.96065  0.99293  1.0000
  H   H2665     1.0  0.52918  0.90871  0.11418  1.0000
  N   N111      1.0  0.49563  0.92101  0.08800  1.0000
  H   H2666     1.0  0.54145  0.81544  0.02788  1.0000
  C   C1553     1.0  0.52595  0.80992  0.99836  1.0000
  H   H2667     1.0  0.57877  0.81718  0.02711  1.0000
  H   H2668     1.0  0.74707  0.82076  0.23091  1.0000
  H   H2669     1.0  0.51328  0.81497  0.01169  1.0000
  H   H2670     1.0  0.51868  0.77881  0.00299  1.0000
  C   C1554     1.0  0.50670  0.92963  0.06582  1.0000
  H   H2671     1.0  0.75276  0.71696  0.23585  1.0000
  H   H2672     1.0  0.50602  0.92260  0.00402  1.0000
  H   H2673     1.0  0.70131  0.69801  0.23084  1.0000
  N   N112      1.0  0.54404  0.82131  0.99399  1.0000
  H   H2674     1.0  0.54644  0.77906  0.99335  1.0000
  H   H2675     1.0  0.55420  0.96969  0.01180  1.0000
  H   H2676     1.0  0.66736  0.93730  0.99159  1.0000
  H   H2677     1.0  0.54799  0.85371  0.98876  1.0000
  C   C1555     1.0  0.56959  0.97374  0.00295  1.0000
  C   C1556     1.0  0.69389  0.72922  0.23765  1.0000
  C   C1557     1.0  0.49256  0.93617  0.10218  1.0000
  H   H2678     1.0  0.51165  0.97351  0.99422  1.0000
  H   H2679     1.0  0.49728  0.86928  0.03652  1.0000
  H   H2680     1.0  0.49383  0.90366  0.99979  1.0000
  H   H2681     1.0  0.65661  0.90549  0.98970  1.0000
  H   H2682     1.0  0.98097  0.88436  0.41670  1.0000
  S   S454      1.0  0.79710  0.73679  0.30674  1.0000
  Fe  Fe231     1.0  0.84174  0.75527  0.32052  1.0000
  S   S455      1.0  0.84450  0.72133  0.31883  1.0000
  S   S456      1.0  0.86893  0.76763  0.32418  1.0000
  Fe  Fe232     1.0  0.83090  0.73519  0.28961  1.0000
  H   H2683     1.0  0.84275  0.66808  0.35083  1.0000
  Fe  Fe233     1.0  0.81031  0.72630  0.33597  1.0000
  S   S457      1.0  0.79649  0.70282  0.36346  1.0000
  S   S458      1.0  0.83139  0.76853  0.28962  1.0000
  S   S459      1.0  0.80833  0.75934  0.33961  1.0000
  H   H2684     1.0  0.93292  0.93789  0.36583  1.0000
  H   H2685     1.0  0.75800  0.70018  0.39421  1.0000
  H   H2686     1.0  0.91587  0.84049  0.46790  1.0000
  H   H2687     1.0  0.87985  0.90610  0.35656  1.0000
  H   H2688     1.0  0.88727  0.79022  0.46426  1.0000
  C   C1558     1.0  0.92888  0.83055  0.47501  1.0000
  C   C1559     1.0  0.77244  0.79539  0.27162  1.0000
  H   H2689     1.0  0.83943  0.84845  0.32087  1.0000
  H   H2690     1.0  0.88660  0.92563  0.33369  1.0000
  H   H2691     1.0  0.77539  0.87720  0.31670  1.0000
  H   H2692     1.0  0.79222  0.66433  0.23952  1.0000
  Fe  Fe234     1.0  0.88385  0.83099  0.39916  1.0000
  S   S460      1.0  0.91798  0.81428  0.39733  1.0000
  S   S461      1.0  0.85711  0.81762  0.39596  1.0000
  Fe  Fe235     1.0  0.89083  0.86867  0.41236  1.0000
  S   S462      1.0  0.92513  0.85485  0.41216  1.0000
  S   S463      1.0  0.87563  0.90115  0.41890  1.0000
  Fe  Fe236     1.0  0.92552  0.84654  0.38190  1.0000
  S   S464      1.0  0.95280  0.85546  0.35578  1.0000
  Fe  Fe237     1.0  0.91462  0.82417  0.42772  1.0000
  S   S465      1.0  0.92830  0.80042  0.45394  1.0000
  S   S466      1.0  0.89165  0.86250  0.38089  1.0000
  S   S467      1.0  0.88000  0.83865  0.43080  1.0000
  C   C1560     1.0  0.89369  0.91767  0.41467  1.0000
  C   C1561     1.0  0.91418  0.90941  0.41858  1.0000
  C   C1562     1.0  0.92870  0.92280  0.41401  1.0000
  C   C1563     1.0  0.92274  0.94448  0.40553  1.0000
  C   C1564     1.0  0.92494  0.94387  0.46342  1.0000
  C   C1565     1.0  0.88772  0.93937  0.40638  1.0000
  H   H2693     1.0  0.91871  0.89280  0.42550  1.0000
  H   H2694     1.0  0.94449  0.91635  0.41713  1.0000
  H   H2695     1.0  0.87197  0.94578  0.40308  1.0000
  H   H2696     1.0  0.96277  0.82317  0.39162  1.0000
  H   H2697     1.0  0.96149  0.78198  0.47658  1.0000
  H   H2698     1.0  0.82119  0.83541  0.36855  1.0000
  C   C1566     1.0  0.97604  0.83110  0.38484  1.0000
  C   C1567     1.0  0.93778  0.81035  0.47068  1.0000
  H   H2699     1.0  0.73218  0.75587  0.25662  1.0000
  S   S468      1.0  0.68402  0.76875  0.24693  1.0000
  C   C1568     1.0  0.91167  0.96566  0.46697  1.0000
  H   H2700     1.0  0.89349  0.95817  0.35907  1.0000
  N   N113      1.0  0.81361  0.83164  0.32786  1.0000
  Fe  Fe238     1.0  0.79830  0.76942  0.30838  1.0000
  C   C1569     1.0  0.77961  0.81609  0.34303  1.0000
  C   C1570     1.0  0.86626  0.77989  0.34525  1.0000
  C   C1571     1.0  0.84829  0.78016  0.36163  1.0000
  C   C1572     1.0  0.84591  0.79139  0.37738  1.0000
  C   C1573     1.0  0.86155  0.80226  0.37696  1.0000
  C   C1574     1.0  0.87975  0.80158  0.36086  1.0000
  C   C1575     1.0  0.88207  0.79044  0.34505  1.0000
  H   H2701     1.0  0.83619  0.77180  0.36212  1.0000
  H   H2702     1.0  0.83186  0.79175  0.38989  1.0000
  H   H2703     1.0  0.89189  0.80989  0.36042  1.0000
  H   H2704     1.0  0.89606  0.79020  0.33246  1.0000
  C   C1576     1.0  0.77200  0.69885  0.36173  1.0000
  C   C1577     1.0  0.75573  0.69761  0.37976  1.0000
  H   H2705     1.0  0.92161  0.93099  0.47733  1.0000
  C   C1578     1.0  0.73374  0.68891  0.36087  1.0000
  C   C1579     1.0  0.75010  0.68993  0.34281  1.0000
  C   C1580     1.0  0.76904  0.69538  0.34309  1.0000
  N   N114      1.0  0.88792  0.96909  0.46941  1.0000
  H   H2706     1.0  0.82946  0.79949  0.32497  1.0000
  H   H2707     1.0  0.74806  0.68676  0.32858  1.0000
  H   H2708     1.0  0.78165  0.69610  0.32917  1.0000
  H   H2709     1.0  0.96350  0.83370  0.43712  1.0000
  H   H2710     1.0  0.67446  0.70128  0.29570  1.0000
  H   H2711     1.0  0.94211  0.89705  0.37505  1.0000
  H   H2712     1.0  0.92953  0.95669  0.31920  1.0000
  C   C1581     1.0  0.90845  0.91609  0.35677  1.0000
  C   C1582     1.0  0.85704  0.68670  0.26934  1.0000
  H   H2713     1.0  0.84379  0.82304  0.33766  1.0000
  H   H2714     1.0  0.96938  0.86611  0.47349  1.0000
  C   C1583     1.0  0.79886  0.82197  0.34718  1.0000
  H   H2715     1.0  0.74619  0.82187  0.26794  1.0000
  C   C1584     1.0  0.81270  0.66870  0.25689  1.0000
  C   C1585     1.0  0.83129  0.83738  0.33418  1.0000
  H   H2716     1.0  0.89142  0.97303  0.43584  1.0000
  H   H2717     1.0  0.75079  0.75301  0.27250  1.0000
  C   C1586     1.0  0.73405  0.75969  0.27107  1.0000
  H   H2718     1.0  0.77897  0.68749  0.28833  1.0000
  H   H2719     1.0  0.80779  0.80735  0.35612  1.0000
  C   C1587     1.0  0.85339  0.79582  0.46667  1.0000
  N   N115      1.0  0.92530  0.92717  0.34144  1.0000
  C   C1588     1.0  0.97562  0.84721  0.36665  1.0000
  H   H2720     1.0  0.75421  0.70399  0.28225  1.0000
  H   H2721     1.0  0.90529  0.94990  0.32097  1.0000
  H   H2722     1.0  0.89619  0.97957  0.33657  1.0000
  H   H2723     1.0  0.85413  0.68934  0.28516  1.0000
  S   S469      1.0  0.77247  0.79614  0.29766  1.0000
  C   C1589     1.0  0.92455  0.91073  0.31078  1.0000
  C   C1590     1.0  0.84223  0.81983  0.29635  1.0000
  H   H2724     1.0  0.84940  0.96223  0.46501  1.0000
  H   H2725     1.0  0.91434  0.89857  0.35995  1.0000
  H   H2726     1.0  0.88997  0.92561  0.47917  1.0000
  H   H2727     1.0  0.84766  0.80660  0.28786  1.0000
  C   C1591     1.0  0.78780  0.77950  0.24103  1.0000
  H   H2728     1.0  0.79175  0.84580  0.30639  1.0000
  H   H2729     1.0  0.76915  0.83012  0.33525  1.0000
  C   C1592     1.0  0.82348  0.81491  0.31484  1.0000
  H   H2730     1.0  0.94513  0.89844  0.33228  1.0000
  H   H2731     1.0  0.74990  0.69337  0.25520  1.0000
  C   C1593     1.0  0.67994  0.70903  0.27953  1.0000
  H   H2732     1.0  0.79867  0.76871  0.27001  1.0000
  H   H2733     1.0  0.83768  0.83445  0.28465  1.0000
  H   H2734     1.0  0.72389  0.69239  0.39316  1.0000
  H   H2735     1.0  0.82516  0.67189  0.24269  1.0000
  H   H2736     1.0  0.85318  0.98631  0.44524  1.0000
  H   H2737     1.0  0.77438  0.72723  0.25223  1.0000
  S   S470      1.0  0.70960  0.68280  0.36086  1.0000
  H   H2738     1.0  0.79846  0.88055  0.32380  1.0000
  C   C1594     1.0  0.80208  0.85056  0.31426  1.0000
  C   C1595     1.0  0.85928  0.96899  0.44989  1.0000
  H   H2739     1.0  0.81349  0.67721  0.26864  1.0000
  N   N116      1.0  0.71693  0.75444  0.31133  1.0000
  C   C1596     1.0  0.70758  0.73739  0.32831  1.0000
  C   C1597     1.0  0.73885  0.75310  0.31460  1.0000
  C   C1598     1.0  0.71832  0.74973  0.29013  1.0000
  C   C1599     1.0  0.70235  0.77548  0.31360  1.0000
  C   C1600     1.0  0.68700  0.73269  0.32575  1.0000
  C   C1601     1.0  0.73983  0.75724  0.33583  1.0000
  H   H2740     1.0  0.91820  0.97769  0.45339  1.0000
  C   C1602     1.0  0.70994  0.79570  0.29980  1.0000
  H   H2741     1.0  0.71918  0.72207  0.32920  1.0000
  H   H2742     1.0  0.70409  0.74117  0.34420  1.0000
  H   H2743     1.0  0.74751  0.76422  0.30211  1.0000
  H   H2744     1.0  0.74880  0.73712  0.31336  1.0000
  H   H2745     1.0  0.72302  0.73231  0.29088  1.0000
  H   H2746     1.0  0.70247  0.75472  0.28578  1.0000
  H   H2747     1.0  0.68686  0.77632  0.30972  1.0000
  H   H2748     1.0  0.69786  0.77724  0.33032  1.0000
  H   H2749     1.0  0.67453  0.74708  0.32291  1.0000
  H   H2750     1.0  0.69040  0.72389  0.31300  1.0000
  H   H2751     1.0  0.68037  0.72209  0.34050  1.0000
  H   H2752     1.0  0.75657  0.75713  0.33576  1.0000
  H   H2753     1.0  0.73048  0.77304  0.33825  1.0000
  H   H2754     1.0  0.73481  0.74459  0.34939  1.0000
  H   H2755     1.0  0.79224  0.83247  0.35861  1.0000
  C   C1603     1.0  0.96723  0.84952  0.43500  1.0000
  C   C1604     1.0  0.73648  0.69312  0.37919  1.0000
  H   H2756     1.0  0.70476  0.80027  0.28447  1.0000
  H   H2757     1.0  0.72722  0.79453  0.29690  1.0000
  H   H2758     1.0  0.70298  0.80896  0.30818  1.0000
  H   H2759     1.0  0.95059  0.92224  0.31434  1.0000
  H   H2760     1.0  0.96158  0.91098  0.37530  1.0000
  C   C1605     1.0  0.78870  0.86891  0.32489  1.0000
  C   C1606     1.0  0.91654  0.94949  0.33070  1.0000
  H   H2761     1.0  0.91622  0.92562  0.30189  1.0000
  C   C1607     1.0  0.79070  0.67398  0.25123  1.0000
  H   H2762     1.0  0.73106  0.77714  0.26827  1.0000
  H   H2763     1.0  0.85038  0.81337  0.46288  1.0000
  C   C1608     1.0  0.86999  0.66307  0.24466  1.0000
  S   S471      1.0  0.72954  0.66735  0.30512  1.0000
  N   N117      1.0  0.78255  0.69711  0.24268  1.0000
  H   H2764     1.0  0.77930  0.66747  0.26538  1.0000
  C   C1609     1.0  0.93745  0.91458  0.32489  1.0000
  H   H2765     1.0  0.91330  0.90024  0.32006  1.0000
  C   C1610     1.0  0.95462  0.79761  0.47987  1.0000
  H   H2766     1.0  0.90518  0.92053  0.37227  1.0000
  H   H2767     1.0  0.93564  0.90211  0.29887  1.0000
  C   C1611     1.0  0.68842  0.69705  0.26396  1.0000
  H   H2768     1.0  0.77230  0.71463  0.28993  1.0000
  C   C1612     1.0  0.95294  0.90760  0.36485  1.0000
  S   S472      1.0  0.83822  0.72873  0.25711  1.0000
  C   C1613     1.0  0.90232  0.95268  0.40152  1.0000
  H   H2769     1.0  0.85733  0.96177  0.43755  1.0000
  C   C1614     1.0  0.94100  0.92875  0.35338  1.0000
  C   C1615     1.0  0.86654  0.66642  0.26516  1.0000
  H   H2770     1.0  0.88906  0.94730  0.44975  1.0000
  H   H2771     1.0  0.96509  0.89908  0.35357  1.0000
  C   C1616     1.0  0.67784  0.73118  0.27401  1.0000
  H   H2772     1.0  0.76993  0.80936  0.35837  1.0000
  C   C1617     1.0  0.88652  0.92073  0.35075  1.0000
  C   C1618     1.0  0.88299  0.96412  0.45077  1.0000
  C   C1619     1.0  0.85112  0.70342  0.25296  1.0000
  H   H2773     1.0  0.83975  0.85197  0.35536  1.0000
  H   H2774     1.0  0.81154  0.81172  0.30777  1.0000
  S   S473      1.0  0.94110  0.96102  0.39963  1.0000
  C   C1620     1.0  0.69505  0.70720  0.24297  1.0000
  H   H2775     1.0  0.81273  0.86150  0.35294  1.0000
  H   H2776     1.0  0.87498  0.93252  0.35923  1.0000
  H   H2777     1.0  0.78096  0.86373  0.34153  1.0000
  H   H2778     1.0  0.91655  0.97019  0.35145  1.0000
  C   C1621     1.0  0.98159  0.89409  0.46899  1.0000
  C   C1622     1.0  0.77128  0.70349  0.28075  1.0000
  H   H2779     1.0  0.96210  0.88624  0.45204  1.0000
  C   C1623     1.0  0.90508  0.96499  0.34551  1.0000
  C   C1624     1.0  0.82549  0.84721  0.35382  1.0000
  H   H2780     1.0  0.81354  0.85782  0.30073  1.0000
  H   H2781     1.0  0.82927  0.66061  0.30797  1.0000
  H   H2782     1.0  0.89778  0.96921  0.39434  1.0000
  C   C1625     1.0  0.78724  0.78004  0.26184  1.0000
  H   H2783     1.0  0.95318  0.93768  0.34270  1.0000
  H   H2784     1.0  0.67051  0.74056  0.28584  1.0000
  H   H2785     1.0  0.83904  0.79031  0.47701  1.0000
  H   H2786     1.0  0.95313  0.85935  0.44327  1.0000
  H   H2787     1.0  0.85620  0.82071  0.30195  1.0000
  C   C1626     1.0  0.78244  0.71057  0.25756  1.0000
  H   H2788     1.0  0.81108  0.66734  0.34006  1.0000
  H   H2789     1.0  0.78445  0.80374  0.33357  1.0000
  H   H2790     1.0  0.79889  0.71167  0.25748  1.0000
  C   C1627     1.0  0.87325  0.78573  0.47636  1.0000
  H   H2791     1.0  0.91568  0.96799  0.48115  1.0000
  H   H2792     1.0  0.96988  0.85618  0.41776  1.0000
  H   H2793     1.0  0.85597  0.79090  0.45146  1.0000
  C   C1628     1.0  0.76011  0.69985  0.24006  1.0000
  H   H2794     1.0  0.98970  0.94877  0.40563  1.0000
  H   H2795     1.0  0.92318  0.94008  0.44901  1.0000
  Fe  Fe239     1.0  0.71287  0.66135  0.33907  1.0000
  H   H2796     1.0  0.97989  0.98630  0.38567  1.0000
  C   C1629     1.0  0.68523  0.74125  0.25318  1.0000
  C   C1630     1.0  0.75771  0.80993  0.26053  1.0000
  H   H2797     1.0  0.94197  0.94424  0.46116  1.0000
  S   S474      1.0  0.69053  0.66944  0.27053  1.0000
  H   H2798     1.0  0.98123  0.88797  0.48617  1.0000
  H   H2799     1.0  0.88608  0.81861  0.47850  1.0000
  C   C1631     1.0  0.98717  0.84657  0.44391  1.0000
  H   H2800     1.0  0.96920  0.90886  0.46781  1.0000
  H   H2801     1.0  0.98238  0.96628  0.37227  1.0000
  H   H2802     1.0  0.87545  0.76842  0.47783  1.0000
  H   H2803     1.0  0.98415  0.83631  0.45995  1.0000
  C   C1632     1.0  0.97583  0.87788  0.45969  1.0000
  H   H2804     1.0  0.97015  0.98573  0.34452  1.0000
  H   H2805     1.0  0.98914  0.91266  0.42730  1.0000
  C   C1633     1.0  0.75814  0.80926  0.23963  1.0000
  H   H2806     1.0  0.90833  0.75542  0.48642  1.0000
  H   H2807     1.0  0.85809  0.82451  0.48730  1.0000
  Fe  Fe240     1.0  0.81426  0.74366  0.63793  1.0000
  H   H2808     1.0  0.98038  0.79197  0.57097  1.0000
  S   S475      1.0  0.80757  0.75506  0.66813  1.0000
  S   S476      1.0  0.86519  0.76212  0.56852  1.0000
  S   S477      1.0  0.80744  0.76410  0.60707  1.0000
  H   H2809     1.0  0.86813  0.71983  0.67945  1.0000
  C   C1634     1.0  0.66219  0.67289  0.56664  1.0000
  S   S478      1.0  0.70888  0.78922  0.69285  1.0000
  H   H2810     1.0  0.83135  0.79841  0.57487  1.0000
  Fe  Fe241     1.0  0.79609  0.73608  0.60443  1.0000
  C   C1635     1.0  0.73314  0.70181  0.69189  1.0000
  H   H2811     1.0  0.83060  0.76610  0.52445  1.0000
  H   H2812     1.0  0.74675  0.67943  0.66117  1.0000
  H   H2813     1.0  0.68456  0.67038  0.70279  1.0000
  H   H2814     1.0  0.69563  0.72279  0.69737  1.0000
  H   H2815     1.0  0.64642  0.65961  0.54016  1.0000
  H   H2816     1.0  0.94425  0.92936  0.55262  1.0000
  S   S479      1.0  0.65968  0.69666  0.67218  1.0000
  S   S480      1.0  0.95033  0.86299  0.60354  1.0000
  H   H2817     1.0  0.70699  0.66944  0.54623  1.0000
  H   H2818     1.0  0.85088  0.72302  0.71311  1.0000
  C   C1636     1.0  0.77243  0.69958  0.59113  1.0000
  H   H2819     1.0  0.74324  0.69584  0.72156  1.0000
  S   S481      1.0  0.84988  0.67021  0.62541  1.0000
  H   H2820     1.0  0.94384  0.95549  0.55525  1.0000
  C   C1637     1.0  0.76601  0.68109  0.59118  1.0000
  Fe  Fe242     1.0  0.89922  0.86448  0.55976  1.0000
  S   S482      1.0  0.91259  0.87679  0.52554  1.0000
  S   S483      1.0  0.86680  0.85598  0.56980  1.0000
  Fe  Fe243     1.0  0.93749  0.86868  0.57421  1.0000
  S   S484      1.0  0.95407  0.88095  0.54132  1.0000
  Fe  Fe244     1.0  0.92210  0.90073  0.53731  1.0000
  S   S485      1.0  0.92171  0.93422  0.51881  1.0000
  Fe  Fe245     1.0  0.94312  0.85591  0.53272  1.0000
  H   H2821     1.0  0.97641  0.79538  0.49944  1.0000
  S   S486      1.0  0.90611  0.89038  0.57107  1.0000
  S   S487      1.0  0.92921  0.84171  0.56614  1.0000
  H   H2822     1.0  0.91018  0.96094  0.60082  1.0000
  H   H2823     1.0  0.88854  0.74630  0.50910  1.0000
  C   C1638     1.0  0.88776  0.96481  0.56541  1.0000
  C   C1639     1.0  0.89589  0.94940  0.55310  1.0000
  C   C1640     1.0  0.90970  0.95383  0.53358  1.0000
  H   H2824     1.0  0.63399  0.67738  0.73438  1.0000
  H   H2825     1.0  0.78477  0.66662  0.64293  1.0000
  H   H2826     1.0  0.87750  0.96116  0.58074  1.0000
  H   H2827     1.0  0.89148  0.93411  0.55877  1.0000
  H   H2828     1.0  0.78282  0.70285  0.71628  1.0000
  C   C1641     1.0  0.98799  0.80407  0.55856  1.0000
  H   H2829     1.0  0.73373  0.74427  0.63268  1.0000
  S   S488      1.0  0.96617  0.83475  0.51242  1.0000
  H   H2830     1.0  0.98610  0.97943  0.49072  1.0000
  C   C1642     1.0  0.94033  0.93129  0.58520  1.0000
  C   C1643     1.0  0.97557  0.87465  0.62257  1.0000
  H   H2831     1.0  0.73618  0.68643  0.63815  1.0000
  H   H2832     1.0  0.85343  0.79066  0.52839  1.0000
  H   H2833     1.0  0.74484  0.74000  0.67566  1.0000
  H   H2834     1.0  0.74975  0.69372  0.68632  1.0000
  H   H2835     1.0  0.70813  0.74483  0.69035  1.0000
  H   H2836     1.0  0.71517  0.71986  0.64563  1.0000
  H   H2837     1.0  0.89084  0.81589  0.51529  1.0000
  C   C1644     1.0  0.64411  0.66685  0.58537  1.0000
  H   H2838     1.0  0.67575  0.75498  0.67769  1.0000
  H   H2839     1.0  0.86078  0.96390  0.49469  1.0000
  H   H2840     1.0  0.81839  0.67504  0.71351  1.0000
  C   C1645     1.0  0.65137  0.71831  0.70361  1.0000
  N   N118      1.0  0.87270  0.79129  0.49692  1.0000
  H   H2841     1.0  0.94048  0.93968  0.63339  1.0000
  H   H2842     1.0  0.64108  0.73025  0.69432  1.0000
  H   H2843     1.0  0.88019  0.69184  0.68599  1.0000
  C   C1646     1.0  0.86534  0.78857  0.56771  1.0000
  C   C1647     1.0  0.84639  0.80325  0.57164  1.0000
  C   C1648     1.0  0.84691  0.82426  0.57133  1.0000
  C   C1649     1.0  0.86640  0.83055  0.56722  1.0000
  C   C1650     1.0  0.88529  0.81608  0.56233  1.0000
  C   C1651     1.0  0.88475  0.79516  0.56250  1.0000
  H   H2844     1.0  0.88967  0.77915  0.52268  1.0000
  H   H2845     1.0  0.83223  0.83553  0.57464  1.0000
  H   H2846     1.0  0.90036  0.82086  0.55867  1.0000
  H   H2847     1.0  0.89945  0.78394  0.55899  1.0000
  C   C1652     1.0  0.78058  0.76648  0.67524  1.0000
  C   C1653     1.0  0.77046  0.76446  0.69658  1.0000
  C   C1654     1.0  0.74846  0.77189  0.70221  1.0000
  C   C1655     1.0  0.73669  0.78196  0.68651  1.0000
  C   C1656     1.0  0.74714  0.78536  0.66528  1.0000
  C   C1657     1.0  0.76894  0.77721  0.65963  1.0000
  H   H2848     1.0  0.77944  0.75667  0.70879  1.0000
  H   H2849     1.0  0.78915  0.69983  0.58815  1.0000
  H   H2850     1.0  0.73817  0.79354  0.65312  1.0000
  H   H2851     1.0  0.77664  0.77910  0.64315  1.0000
  C   C1658     1.0  0.96505  0.94868  0.59294  1.0000
  H   H2852     1.0  0.75751  0.72183  0.65923  1.0000
  C   C1659     1.0  0.73787  0.74988  0.64487  1.0000
  H   H2853     1.0  0.75254  0.75623  0.63719  1.0000
  C   C1660     1.0  0.93940  0.93106  0.62180  1.0000
  S   S489      1.0  0.80028  0.71696  0.63662  1.0000
  N   N119      1.0  0.83728  0.69777  0.71068  1.0000
  H   H2854     1.0  0.92345  0.97280  0.62773  1.0000
  H   H2855     1.0  0.96699  0.93438  0.55775  1.0000
  H   H2856     1.0  0.64494  0.73582  0.72814  1.0000
  H   H2857     1.0  0.72530  0.76323  0.64955  1.0000
  C   C1661     1.0  0.92637  0.96442  0.59720  1.0000
  C   C1662     1.0  0.89228  0.77927  0.50557  1.0000
  Fe  Fe246     1.0  0.69474  0.77696  0.72682  1.0000
  C   C1663     1.0  0.72133  0.70833  0.65902  1.0000
  C   C1664     1.0  0.74207  0.73219  0.66420  1.0000
  C   C1665     1.0  0.85282  0.78753  0.51313  1.0000
  H   H2858     1.0  0.86219  0.82166  0.52415  1.0000
  S   S490      1.0  0.84752  0.72908  0.62417  1.0000
  S   S491      1.0  0.82775  0.72108  0.58745  1.0000
  C   C1666     1.0  0.70477  0.73264  0.68376  1.0000
  H   H2859     1.0  0.86708  0.68798  0.72151  1.0000
  Fe  Fe247     1.0  0.83295  0.70421  0.61997  1.0000
  H   H2860     1.0  0.88496  0.95759  0.50317  1.0000
  H   H2861     1.0  0.73985  0.72322  0.70863  1.0000
  C   C1667     1.0  0.83501  0.71956  0.71458  1.0000
  S   S492      1.0  0.76488  0.74102  0.59494  1.0000
  N   N120      1.0  0.94282  0.94415  0.59955  1.0000
  C   C1668     1.0  0.79846  0.70508  0.70600  1.0000
  H   H2862     1.0  0.98314  0.97119  0.53045  1.0000
  H   H2863     1.0  0.69563  0.75379  0.65417  1.0000
  H   H2864     1.0  0.70860  0.69904  0.66694  1.0000
  H   H2865     1.0  0.95229  0.91665  0.62311  1.0000
  C   C1669     1.0  0.91459  0.97404  0.52593  1.0000
  H   H2866     1.0  0.91759  0.91418  0.64653  1.0000
  H   H2867     1.0  0.87386  0.77108  0.62127  1.0000
  C   C1670     1.0  0.65363  0.72154  0.72268  1.0000
  C   C1671     1.0  0.68878  0.74413  0.66929  1.0000
  C   C1672     1.0  0.84560  0.69836  0.68744  1.0000
  H   H2868     1.0  0.68138  0.73271  0.66576  1.0000
  N   N121      1.0  0.83283  0.81335  0.63532  1.0000
  C   C1673     1.0  0.85460  0.80174  0.62621  1.0000
  C   C1674     1.0  0.83261  0.83680  0.62784  1.0000
  C   C1675     1.0  0.81649  0.80752  0.62706  1.0000
  C   C1676     1.0  0.82938  0.80635  0.65903  1.0000
  C   C1677     1.0  0.85695  0.77786  0.62732  1.0000
  C   C1678     1.0  0.84966  0.84480  0.63365  1.0000
  C   C1679     1.0  0.79499  0.82318  0.62652  1.0000
  C   C1680     1.0  0.80836  0.81651  0.67204  1.0000
  H   H2869     1.0  0.85979  0.80910  0.60929  1.0000
  H   H2870     1.0  0.86681  0.80297  0.63419  1.0000
  H   H2871     1.0  0.81711  0.84655  0.63375  1.0000
  H   H2872     1.0  0.83476  0.84132  0.61029  1.0000
  H   H2873     1.0  0.82280  0.80581  0.61047  1.0000
  H   H2874     1.0  0.81305  0.79178  0.63605  1.0000
  H   H2875     1.0  0.82978  0.78902  0.66390  1.0000
  H   H2876     1.0  0.84271  0.80806  0.66517  1.0000
  H   H2877     1.0  0.85235  0.76876  0.64362  1.0000
  H   H2878     1.0  0.84780  0.77517  0.61698  1.0000
  H   H2879     1.0  0.84716  0.86233  0.62810  1.0000
  H   H2880     1.0  0.84861  0.84127  0.65093  1.0000
  H   H2881     1.0  0.86590  0.83841  0.62546  1.0000
  H   H2882     1.0  0.78445  0.81596  0.62135  1.0000
  H   H2883     1.0  0.79687  0.83816  0.61473  1.0000
  H   H2884     1.0  0.78655  0.82670  0.64207  1.0000
  H   H2885     1.0  0.79563  0.80776  0.67381  1.0000
  H   H2886     1.0  0.80299  0.83354  0.66557  1.0000
  H   H2887     1.0  0.81067  0.81579  0.68803  1.0000
  N   N122      1.0  0.72520  0.71914  0.67436  1.0000
  Fe  Fe248     1.0  0.83969  0.74732  0.59294  1.0000
  C   C1681     1.0  0.73562  0.71754  0.59794  1.0000
  C   C1682     1.0  0.86787  0.70362  0.67836  1.0000
  H   H2888     1.0  0.72383  0.73167  0.60044  1.0000
  C   C1683     1.0  0.89345  0.98468  0.55817  1.0000
  C   C1684     1.0  0.74085  0.69315  0.64922  1.0000
  C   C1685     1.0  0.66250  0.69983  0.69640  1.0000
  S   S493      1.0  0.67557  0.66580  0.62754  1.0000
  C   C1686     1.0  0.73325  0.70875  0.71198  1.0000
  C   C1687     1.0  0.90644  0.98945  0.53820  1.0000
  C   C1688     1.0  0.87551  0.82335  0.51032  1.0000
  C   C1689     1.0  0.95420  0.82527  0.49729  1.0000
  H   H2889     1.0  0.92517  0.97764  0.51079  1.0000
  H   H2890     1.0  0.79836  0.72206  0.70361  1.0000
  C   C1690     1.0  0.75725  0.71784  0.59450  1.0000
  H   H2891     1.0  0.72345  0.68924  0.69710  1.0000
  H   H2892     1.0  0.87230  0.70315  0.66131  1.0000
  H   H2893     1.0  0.93028  0.85362  0.49159  1.0000
  C   C1691     1.0  0.94943  0.93837  0.56141  1.0000
  C   C1692     1.0  0.92562  0.98006  0.61065  1.0000
  C   C1693     1.0  0.67585  0.68453  0.70839  1.0000
  H   H2894     1.0  0.75383  0.70147  0.63984  1.0000
  C   C1694     1.0  0.67776  0.68760  0.72769  1.0000
  C   C1695     1.0  0.91817  0.92334  0.63001  1.0000
  H   H2895     1.0  0.79973  0.70134  0.69049  1.0000
  H   H2896     1.0  0.84594  0.68306  0.68364  1.0000
  H   H2897     1.0  0.94788  0.91437  0.58989  1.0000
  C   C1696     1.0  0.74439  0.68053  0.59547  1.0000
  H   H2898     1.0  0.91672  0.91236  0.62083  1.0000
  H   H2899     1.0  0.90428  0.93669  0.63029  1.0000
  H   H2900     1.0  0.85614  0.75454  0.53124  1.0000
  C   C1697     1.0  0.84798  0.76507  0.51864  1.0000
  H   H2901     1.0  0.85203  0.75750  0.50496  1.0000
  H   H2902     1.0  0.70058  0.68246  0.50985  1.0000
  H   H2903     1.0  0.74063  0.76979  0.71868  1.0000
  H   H2904     1.0  0.83852  0.79916  0.50879  1.0000
  C   C1698     1.0  0.72917  0.69882  0.59876  1.0000
  H   H2905     1.0  0.93989  0.98727  0.60521  1.0000
  H   H2906     1.0  0.96596  0.96277  0.57959  1.0000
  H   H2907     1.0  0.97518  0.81813  0.55557  1.0000
  H   H2908     1.0  0.71244  0.69854  0.60197  1.0000
  H   H2909     1.0  0.82796  0.73215  0.70233  1.0000
  H   H2910     1.0  0.81852  0.67497  0.66437  1.0000
  H   H2911     1.0  0.92327  0.93122  0.58666  1.0000
  H   H2912     1.0  0.97657  0.93521  0.58696  1.0000
  H   H2913     1.0  0.91344  0.74874  0.51242  1.0000
  C   C1699     1.0  0.68725  0.68008  0.52364  1.0000
  H   H2914     1.0  0.96644  0.86702  0.63718  1.0000
  H   H2915     1.0  0.66902  0.68464  0.57055  1.0000
  H   H2916     1.0  0.63201  0.68140  0.58779  1.0000
  H   H2917     1.0  0.92864  0.97339  0.58056  1.0000
  C   C1700     1.0  0.82933  0.65987  0.66717  1.0000
  H   H2918     1.0  0.83473  0.71036  0.67797  1.0000
  C   C1701     1.0  0.93696  0.83792  0.48853  1.0000
  H   H2919     1.0  0.96443  0.96348  0.61937  1.0000
  H   H2920     1.0  0.71700  0.71114  0.72188  1.0000
  H   H2921     1.0  0.88341  0.92341  0.50690  1.0000
  C   C1702     1.0  0.81633  0.69078  0.71705  1.0000
  C   C1703     1.0  0.97122  0.87474  0.60325  1.0000
  H   H2922     1.0  0.86269  0.93018  0.49273  1.0000
  H   H2923     1.0  0.97923  0.93660  0.62111  1.0000
  C   C1704     1.0  0.85221  0.68221  0.72377  1.0000
  C   C1705     1.0  0.87875  0.93280  0.49185  1.0000
  H   H2924     1.0  0.68116  0.69553  0.52857  1.0000
  C   C1706     1.0  0.82187  0.72342  0.73630  1.0000
  C   C1707     1.0  0.98307  0.88468  0.58441  1.0000
  C   C1708     1.0  0.97480  0.95191  0.61011  1.0000
  C   C1709     1.0  0.90081  0.75610  0.50314  1.0000
  H   H2925     1.0  0.97946  0.88525  0.56949  1.0000
  H   H2926     1.0  0.90592  0.78733  0.49776  1.0000
  H   H2927     1.0  0.65431  0.68199  0.55340  1.0000
  H   H2928     1.0  0.87548  0.84059  0.50474  1.0000
  H   H2929     1.0  0.81029  0.68800  0.73441  1.0000
  C   C1710     1.0  0.69572  0.66263  0.54147  1.0000
  H   H2930     1.0  0.67487  0.67604  0.51809  1.0000
  H   H2931     1.0  0.98970  0.95785  0.60238  1.0000
  H   H2932     1.0  0.69578  0.65799  0.58335  1.0000
  Fe  Fe249     1.0  0.67646  0.66679  0.66049  1.0000
  C   C1711     1.0  0.66667  0.70605  0.73484  1.0000
  C   C1712     1.0  0.96304  0.80518  0.49283  1.0000
  C   C1713     1.0  0.87295  0.81469  0.49212  1.0000
  C   C1714     1.0  0.87790  0.95658  0.49028  1.0000
  H   H2933     1.0  0.86699  0.65861  0.70349  1.0000
  H   H2934     1.0  0.64970  0.66009  0.60037  1.0000
  H   H2935     1.0  0.77781  0.66709  0.58827  1.0000
  C   C1715     1.0  0.85867  0.65935  0.71997  1.0000
  H   H2936     1.0  0.79803  0.66613  0.61649  1.0000
  H   H2937     1.0  0.68769  0.67574  0.73729  1.0000
  S   S494      1.0  0.66108  0.77230  0.73812  1.0000
  H   H2938     1.0  0.80491  0.72309  0.73813  1.0000
  H   H2939     1.0  0.82236  0.73948  0.73771  1.0000
  H   H2940     1.0  0.70289  0.70114  0.84544  1.0000
  H   H2941     1.0  0.52511  0.81097  0.85134  1.0000
  Fe  Fe250     1.0  0.54554  0.88407  0.88190  1.0000
  S   S495      1.0  0.57178  0.87670  0.85485  1.0000
  S   S496      1.0  0.51186  0.89541  0.87821  1.0000
  Fe  Fe251     1.0  0.57488  0.87629  0.91164  1.0000
  S   S497      1.0  0.60443  0.86790  0.88755  1.0000
  S   S498      1.0  0.56915  0.87913  0.94529  1.0000
  Fe  Fe252     1.0  0.58887  0.89553  0.86543  1.0000
  S   S499      1.0  0.60695  0.91721  0.83970  1.0000
  Fe  Fe253     1.0  0.58537  0.84956  0.87858  1.0000
  S   S500      1.0  0.59902  0.81678  0.87186  1.0000
  S   S501      1.0  0.56112  0.90572  0.89018  1.0000
  S   S502      1.0  0.55725  0.85525  0.90500  1.0000
  Fe  Fe254     1.0  0.70517  0.75975  0.77031  1.0000
  S   S503      1.0  0.73037  0.75390  0.78908  1.0000
  C   C1716     1.0  0.75261  0.73342  0.78444  1.0000
  C   C1717     1.0  0.76832  0.72892  0.79624  1.0000
  H   H2942     1.0  0.57307  0.79187  0.84932  1.0000
  H   H2943     1.0  0.56631  0.92565  0.92709  1.0000
  C   C1718     1.0  0.62666  0.79429  0.81855  1.0000
  C   C1719     1.0  0.75431  0.72074  0.77023  1.0000
  H   H2944     1.0  0.76721  0.73864  0.80722  1.0000
  H   H2945     1.0  0.63358  0.77902  0.81446  1.0000
  H   H2946     1.0  0.74261  0.72425  0.76079  1.0000
  C   C1720     1.0  0.61506  0.93619  0.84789  1.0000
  C   C1721     1.0  0.63083  0.94651  0.83414  1.0000
  H   H2947     1.0  0.63792  0.94254  0.81888  1.0000
  C   C1722     1.0  0.60916  0.81540  0.84518  1.0000
  C   C1723     1.0  0.60852  0.83380  0.82923  1.0000
  C   C1724     1.0  0.61645  0.83246  0.80803  1.0000
  C   C1725     1.0  0.61831  0.79563  0.83980  1.0000
  H   H2948     1.0  0.60209  0.84912  0.83314  1.0000
  H   H2949     1.0  0.61567  0.84678  0.79576  1.0000
  C   C1726     1.0  0.55661  0.79766  0.85735  1.0000
  C   C1727     1.0  0.69107  0.67783  0.81103  1.0000
  C   C1728     1.0  0.52934  0.82905  0.81024  1.0000
  H   H2950     1.0  0.65732  0.66265  0.76133  1.0000
  C   C1729     1.0  0.58976  0.86845  0.95906  1.0000
  C   C1730     1.0  0.60931  0.85706  0.95016  1.0000
  C   C1731     1.0  0.62528  0.84855  0.96203  1.0000
  H   H2951     1.0  0.53112  0.93013  0.81944  1.0000
  H   H2952     1.0  0.57100  0.87988  0.98673  1.0000
  H   H2953     1.0  0.61212  0.85483  0.93421  1.0000
  H   H2954     1.0  0.64051  0.83994  0.95514  1.0000
  C   C1732     1.0  0.50327  0.83781  0.87803  1.0000
  C   C1733     1.0  0.60955  0.92586  0.95187  1.0000
  C   C1734     1.0  0.51152  0.85397  0.88073  1.0000
  C   C1735     1.0  0.77111  0.70316  0.76847  1.0000
  H   H2955     1.0  0.52458  0.84992  0.88869  1.0000
  H   H2956     1.0  0.73645  0.67926  0.75809  1.0000
  H   H2957     1.0  0.67464  0.91920  0.93337  1.0000
  H   H2958     1.0  0.75427  0.66405  0.82217  1.0000
  H   H2959     1.0  0.53918  0.86681  0.80336  1.0000
  H   H2960     1.0  0.70159  0.83790  0.82476  1.0000
  H   H2961     1.0  0.53282  0.97436  0.88567  1.0000
  S   S504      1.0  0.63491  0.81193  0.77582  1.0000
  H   H2962     1.0  0.53531  0.83726  0.79377  1.0000
  H   H2963     1.0  0.55045  0.87432  0.82084  1.0000
  H   H2964     1.0  0.53171  0.94155  0.98356  1.0000
  H   H2965     1.0  0.50931  0.93365  0.92291  1.0000
  H   H2966     1.0  0.58651  0.96119  0.81868  1.0000
  C   C1736     1.0  0.55150  0.86123  0.81306  1.0000
  H   H2967     1.0  0.66934  0.95487  0.93231  1.0000
  H   H2968     1.0  0.51003  0.82139  0.88399  1.0000
  S   S505      1.0  0.59880  0.98096  0.92335  1.0000
  H   H2969     1.0  0.70930  0.67786  0.76868  1.0000
  C   C1737     1.0  0.61239  0.95710  0.87343  1.0000
  C   C1738     1.0  0.72887  0.67300  0.79229  1.0000
  C   C1739     1.0  0.51588  0.93666  0.82919  1.0000
  H   H2970     1.0  0.54530  0.94462  0.91678  1.0000
  N   N123      1.0  0.71317  0.67931  0.81135  1.0000
  H   H2971     1.0  0.63536  0.65721  0.78140  1.0000
  H   H2972     1.0  0.50335  0.95209  0.85558  1.0000
  H   H2973     1.0  0.51012  0.84841  0.97374  1.0000
  H   H2974     1.0  0.55412  0.95847  0.87084  1.0000
  C   C1740     1.0  0.72252  0.82020  0.80269  1.0000
  H   H2975     1.0  0.52742  0.93385  0.85694  1.0000
  S   S506      1.0  0.67242  0.75372  0.78582  1.0000
  H   H2976     1.0  0.73655  0.82047  0.80858  1.0000
  C   C1741     1.0  0.50659  0.95760  0.94162  1.0000
  C   C1742     1.0  0.52365  0.85552  0.97301  1.0000
  H   H2977     1.0  0.65733  0.84526  0.80173  1.0000
  H   H2978     1.0  0.82831  0.71190  0.74951  1.0000
  N   N124      1.0  0.53147  0.96466  0.83725  1.0000
  H   H2979     1.0  0.56529  0.79853  0.78611  1.0000
  H   H2980     1.0  0.69573  0.80008  0.79433  1.0000
  H   H2981     1.0  0.53941  0.79088  0.83797  1.0000
  C   C1743     1.0  0.78658  0.69855  0.78056  1.0000
  H   H2982     1.0  0.62595  0.68999  0.75617  1.0000
  C   C1744     1.0  0.54108  0.80527  0.84211  1.0000
  C   C1745     1.0  0.54796  0.84115  0.83033  1.0000
  H   H2983     1.0  0.70806  0.71291  0.79691  1.0000
  H   H2984     1.0  0.69914  0.83223  0.77112  1.0000
  C   C1746     1.0  0.78540  0.71172  0.79409  1.0000
  H   H2985     1.0  0.65013  0.96942  0.82956  1.0000
  S   S507      1.0  0.69389  0.79260  0.75268  1.0000
  H   H2986     1.0  0.65066  0.81860  0.83393  1.0000
  H   H2987     1.0  0.84505  0.68074  0.74092  1.0000
  S   S508      1.0  0.62092  0.98524  0.96962  1.0000
  H   H2988     1.0  0.56518  0.81876  0.94143  1.0000
  H   H2989     1.0  0.53314  0.84592  0.84172  1.0000
  H   H2990     1.0  0.67472  0.77931  0.83906  1.0000
  C   C1747     1.0  0.71332  0.70193  0.81107  1.0000
  H   H2991     1.0  0.65131  0.92092  0.92517  1.0000
  H   H2992     1.0  0.68084  0.88427  0.94237  1.0000
  C   C1748     1.0  0.71967  0.66444  0.83089  1.0000
  N   N125      1.0  0.64748  0.91647  0.95922  1.0000
  H   H2993     1.0  0.67892  0.85514  0.76551  1.0000
  H   H2994     1.0  0.50850  0.80584  0.82417  1.0000
  H   H2995     1.0  0.65858  0.95205  0.96812  1.0000
  H   H2996     1.0  0.68205  0.71282  0.83043  1.0000
  H   H2997     1.0  0.77213  0.69322  0.75774  1.0000
  C   C1749     1.0  0.53663  0.96398  0.87417  1.0000
  Fe  Fe255     1.0  0.67498  0.74114  0.75714  1.0000
  H   H2998     1.0  0.65430  0.95556  0.91332  1.0000
  H   H2999     1.0  0.70696  0.66632  0.84517  1.0000
  C   C1750     1.0  0.52309  0.95298  0.97166  1.0000
  H   H3000     1.0  0.56683  0.98332  0.81046  1.0000
  C   C1751     1.0  0.65529  0.95015  0.93027  1.0000
  C   C1752     1.0  0.50021  0.92853  0.97193  1.0000
  H   H3001     1.0  0.51724  0.96858  0.93206  1.0000
  N   N126      1.0  0.51640  0.94152  0.95866  1.0000
  C   C1753     1.0  0.52833  0.97680  0.85415  1.0000
  C   C1754     1.0  0.62851  0.96710  0.85978  1.0000
  C   C1755     1.0  0.74059  0.66635  0.83549  1.0000
  H   H3002     1.0  0.54497  0.91748  0.96180  1.0000
  C   C1756     1.0  0.64218  0.65720  0.76440  1.0000
  H   H3003     1.0  0.57099  0.97660  0.83733  1.0000
  S   S509      1.0  0.66859  0.70902  0.75945  1.0000
  C   C1757     1.0  0.51865  0.81167  0.80874  1.0000
  C   C1758     1.0  0.55188  0.93774  0.93125  1.0000
  H   H3004     1.0  0.51599  0.84083  0.81722  1.0000
  H   H3005     1.0  0.79748  0.70833  0.80330  1.0000
  H   H3006     1.0  0.74453  0.67660  0.79126  1.0000
  H   H3007     1.0  0.64081  0.95924  0.93861  1.0000
  C   C1759     1.0  0.55383  0.81350  0.95616  1.0000
  C   C1760     1.0  0.68212  0.83912  0.77584  1.0000
  H   H3008     1.0  0.70316  0.77874  0.83006  1.0000
  H   H3009     1.0  0.55159  0.78416  0.86986  1.0000
  H   H3010     1.0  0.64630  0.84110  0.85857  1.0000
  H   H3011     1.0  0.56755  0.85889  0.80279  1.0000
  H   H3012     1.0  0.61896  0.78133  0.85209  1.0000
  H   H3013     1.0  0.72593  0.80483  0.79782  1.0000
  C   C1761     1.0  0.62559  0.81275  0.80263  1.0000
  C   C1762     1.0  0.68799  0.78079  0.82513  1.0000
  H   H3014     1.0  0.56018  0.94168  0.84324  1.0000
  H   H3015     1.0  0.58852  0.78791  0.79754  1.0000
  H   H3016     1.0  0.68958  0.76732  0.81769  1.0000
  H   H3017     1.0  0.58111  0.81319  0.81736  1.0000
  H   H3018     1.0  0.67209  0.84710  0.84792  1.0000
  H   H3019     1.0  0.67056  0.80960  0.84919  1.0000
  H   H3020     1.0  0.70619  0.81008  0.83453  1.0000
  H   H3021     1.0  0.71876  0.70105  0.76795  1.0000
  H   H3022     1.0  0.53481  0.85562  0.95754  1.0000
  H   H3023     1.0  0.56111  0.83735  0.83895  1.0000
  C   C1763     1.0  0.65998  0.91743  0.97468  1.0000
  H   H3024     1.0  0.72140  0.83360  0.78890  1.0000
  H   H3025     1.0  0.65149  0.85668  0.83255  1.0000
  H   H3026     1.0  0.67997  0.85525  0.80055  1.0000
  H   H3027     1.0  0.67263  0.82951  0.77236  1.0000
  H   H3028     1.0  0.66829  0.80205  0.80441  1.0000
  C   C1764     1.0  0.60582  0.94145  0.86759  1.0000
  H   H3029     1.0  0.55628  0.81013  0.86563  1.0000
  Fe  Fe256     1.0  0.66123  0.78540  0.76571  1.0000
  H   H3030     1.0  0.61535  0.93224  0.93487  1.0000
  N   N127      1.0  0.68201  0.82183  0.81572  1.0000
  C   C1765     1.0  0.66533  0.82217  0.83586  1.0000
  C   C1766     1.0  0.68338  0.80167  0.80883  1.0000
  C   C1767     1.0  0.67501  0.84103  0.79920  1.0000
  C   C1768     1.0  0.70268  0.82262  0.82048  1.0000
  C   C1769     1.0  0.65872  0.84309  0.84386  1.0000
  C   C1770     1.0  0.53591  0.92690  0.94940  1.0000
  C   C1771     1.0  0.51924  0.94693  0.84582  1.0000
  C   C1772     1.0  0.57123  0.79484  0.80094  1.0000
  N   N128      1.0  0.54671  0.82217  0.82280  1.0000
  C   C1773     1.0  0.49891  0.94857  0.92665  1.0000
  C   C1774     1.0  0.55461  0.95492  0.83053  1.0000
  H   H3031     1.0  0.53011  0.79815  0.80310  1.0000
  C   C1775     1.0  0.56798  0.81508  0.80926  1.0000
  H   H3032     1.0  0.55497  0.79641  0.95703  1.0000
  C   C1776     1.0  0.63772  0.96173  0.84017  1.0000
  H   H3033     1.0  0.50537  0.94786  0.81896  1.0000
  C   C1777     1.0  0.52391  0.97992  0.81842  1.0000
  H   H3034     1.0  0.55700  0.94743  0.81691  1.0000
  H   H3035     1.0  0.59372  0.93578  0.95674  1.0000
  H   H3036     1.0  0.52803  0.97240  0.80454  1.0000
  H   H3037     1.0  0.57142  0.82764  0.79490  1.0000
  C   C1778     1.0  0.69916  0.71084  0.83019  1.0000
  C   C1779     1.0  0.72270  0.68359  0.77072  1.0000
  H   H3038     1.0  0.60518  0.96118  0.88856  1.0000
  H   H3039     1.0  0.53166  0.91476  0.94352  1.0000
  C   C1780     1.0  0.50252  0.87521  0.87356  1.0000
  H   H3040     1.0  0.68507  0.68994  0.79778  1.0000
  H   H3041     1.0  0.56408  0.78209  0.81253  1.0000
  S   S510      1.0  0.80795  0.67693  0.77854  1.0000
  H   H3042     1.0  0.49939  0.98271  0.97199  1.0000
  H   H3043     1.0  0.59358  0.93358  0.87824  1.0000
  H   H3044     1.0  0.60697  0.90953  0.95420  1.0000
  H   H3045     1.0  0.52888  0.95024  0.88195  1.0000
  H   H3046     1.0  0.72972  0.70391  0.80971  1.0000
  C   C1781     1.0  0.58613  0.87120  0.97970  1.0000
  H   H3047     1.0  0.53467  0.96282  0.96158  1.0000
  H   H3048     1.0  0.55717  0.95015  0.93559  1.0000
  S   S511      1.0  0.70856  0.74471  0.74336  1.0000
  C   C1782     1.0  0.62447  0.92672  0.96565  1.0000
  H   H3049     1.0  0.70203  0.72690  0.82873  1.0000
  C   C1783     1.0  0.57028  0.97017  0.82396  1.0000
  C   C1784     1.0  0.65731  0.92584  0.93680  1.0000
  H   H3050     1.0  0.50765  0.92327  0.83742  1.0000
  H   H3051     1.0  0.73932  0.68173  0.83957  1.0000
  H   H3052     1.0  0.51702  0.87241  0.97379  1.0000
  H   H3053     1.0  0.49230  0.96831  0.94864  1.0000
  H   H3054     1.0  0.49900  0.96014  0.91131  1.0000
  H   H3055     1.0  0.53789  0.82251  0.95393  1.0000
  H   H3056     1.0  0.62244  0.94356  0.96606  1.0000
  H   H3057     1.0  0.49721  0.91841  0.96265  1.0000
  H   H3058     1.0  0.64042  0.89136  0.94867  1.0000
  S   S512      1.0  0.63771  0.98615  0.86680  1.0000
  H   H3059     1.0  0.67973  0.68161  0.82557  1.0000
  H   H3060     1.0  0.51119  0.98341  0.85941  1.0000
  H   H3061     1.0  0.67735  0.91321  0.96832  1.0000
  C   C1785     1.0  0.56112  0.81657  0.97505  1.0000
  H   H3062     1.0  0.61793  0.91926  0.98220  1.0000
  C   C1786     1.0  0.50520  0.96819  0.98328  1.0000
  C   C1787     1.0  0.64818  0.89335  0.96064  1.0000
  H   H3063     1.0  0.67835  0.87719  0.97090  1.0000
  C   C1788     1.0  0.67047  0.87890  0.95770  1.0000
  H   H3064     1.0  0.66874  0.86272  0.95791  1.0000
  H   H3065     1.0  0.57070  0.82923  0.96896  1.0000
  C   C1789     1.0  0.49999  0.99030  0.82201  1.0000
  H   H3066     1.0  0.50789  0.81865  0.79739  1.0000
  C   C1790     1.0  0.65601  0.93860  0.98154  1.0000
  H   H3067     1.0  0.57251  0.80161  0.97979  1.0000
  H   H3068     1.0  0.63905  0.88644  0.97629  1.0000
  H   H3069     1.0  0.51782  0.81412  0.98494  1.0000
  C   C1791     1.0  0.62159  0.85140  0.98273  1.0000
  H   H3070     1.0  0.61119  0.67169  0.75496  1.0000
  C   C1792     1.0  0.62745  0.67475  0.75161  1.0000
  H   H3071     1.0  0.67191  0.65730  0.80802  1.0000
  H   H3072     1.0  0.57033  0.97464  0.98600  1.0000
