data_image0
_chemical_formula_structural       H2SHFeSH3FeS2FeS2FeSFeS4HSHFeSFeSH3SH3C6H4CHCH2CH3C6H5C2HSH3C2NC4HC3H10FeC2H6CSHCH2C2HCH3NHFeHC2H2CHCHCH3CHC2HCFeHCSCH3SHCHCH2CSH2NC5HC2H13C2H5CSHCH2C2H2CHC2HFeHFeS2FeSCSHFeS2FeS2FeSFeS3FeHSFeSHCHS2CH2CH2C7H4C6H4C3H3CHCHC2H2SCHCHNCH3C2HCH3FeSH6CH6C2NH4CSH17C2H2CNC4H10C3H2CH2C4H2CH5CHC2NC2H4CH4C3H2NHC3H3SCH2CHC2H7CHFeS2FeS2FeSFeS3HSCH2C2NH2C6H4C6H4CH2NC8H20CHCHCH6CHCHCH5FeSHC2HCHSH2NCHFeS2FeS2FeSFeS3CHSC6H4C7H4CHSCH3C2H2FeHCH6CHC2SH7NH2CH2CHCNC8H16CH5CSCHCH4NH3CH7CH6C2HNC4HCHCHC3H4CH6FeS2FeSHFeS2FeS2FeSFeS3FeSH2SFeSFeS2HCH2C3SCH2C6H4CSH7CNHC7H4C3H3FeC2NC2H6CFeH3NCHCHCH4CHSC2H2CHCH2CHCH4CH4CH2CHCHNH2CH3C2H8C2HCH2C2HC2H3CHCH3C3H2CH4CH3CH6CNSH6C2H2CH3FeHFeCSHS3FeS2FeS2FeSFeS3FeS2FeS2Fe2CS2HCHC3H2C6H11CHC7H4C2H2CHCH2NHCSH6NC3H2CH3CHCH2CHCNC8H23C3H5CHCHC3H2NH2CHCH4CH4CHC3H2SHFeS2FeS2FeSFeS3FeCSFeSH2S2H4C2HC2HC6H5CHCH2C6H5C2FeHC2N2C8H24C2H4CH5CHC2H3CH7CHNHCHCH3C2HCH3CSHCH4CHNCH3C2HCH11CHNHCHC2HCNC3HCHCFeH2SH2CSCHSFeS2FeS2FeSFeS3FeCSFeSHCHS2C5H2C4HC6H4C6H4C3H2C2H4CNH3C2H10CH2CHCHCHCH2CHNHCH2CNH6CHCFeH5CH3CH2C2H4CHFeH2CSCH3NC2HCHCHCH2CHCHCH10CH3FeHCH4CHCH2CFeS2FeS2FeSFeS3H2CSCH2CH4C4H2C7H4C6H4CH2CH4NH3C2HCHCH2NHCH3CH2NC5H8FeH10CH3CNC7H11C2HC2HCHSCH11CH5C2HCHCH3SH3C2H3FeS2FeS2FeSFeS3HS2C3HCH2C6H4C6H4CHC2HNC5H12CH3C2H4CH5C2H5CSHCHCHCHNC2HCH9CH4C2NH14CHC2H2C2H3CHS2HSCHCFeS2FeS2FeSFeS3FeSHFeSFeSFeS3CNHCHC3H2C6H4C2H5CHC3H3C6H3CH5C3H5NH2C2H4CHC3H2C2H8CH6CH2CHCHNC5HCH10SCH6CH12C3H6CH2CH2C2HCFeHC3SFeS2FeS2FeSFeS3FeS2FeHSFeH2S2C2H2C2HC3H2C6H6CH2C6H4C3SH2SH2CHNH6CH2CFeH3SH2CH2CSH3NCH3C4H2C2H7CH6FeHC2HC2H2C2H4FeHCHNH6C2H7CH3CH3NCHCHCHCHCSH3
_chemical_formula_sum              "H1152 S192 Fe96 C672 N48"
_cell_length_a       52.3539
_cell_length_b       52.4011
_cell_length_c       41.3025
_cell_angle_alpha    88.1723
_cell_angle_beta     89.4515
_cell_angle_gamma    89.6179

_space_group_name_H-M_alt    "P 1"
_space_group_IT_number       1

loop_
  _space_group_symop_operation_xyz
  'x, y, z'

loop_
  _atom_site_type_symbol
  _atom_site_label
  _atom_site_symmetry_multiplicity
  _atom_site_fract_x
  _atom_site_fract_y
  _atom_site_fract_z
  _atom_site_occupancy
  H   H1        1.0  0.42560  0.02416  0.30322  1.0000
  H   H2        1.0  0.20380  0.22807  0.24040  1.0000
  S   S1        1.0  0.45186  0.12181  0.19768  1.0000
  H   H3        1.0  0.01032  0.33153  0.44049  1.0000
  Fe  Fe1       1.0  0.46035  0.15847  0.22197  1.0000
  S   S2        1.0  0.43060  0.18355  0.24580  1.0000
  H   H4        1.0  0.21177  0.23849  0.31237  1.0000
  H   H5        1.0  0.39311  0.03329  0.29714  1.0000
  H   H6        1.0  0.45442  0.10674  0.30654  1.0000
  Fe  Fe2       1.0  0.27255  0.10555  0.37921  1.0000
  S   S3        1.0  0.31117  0.12392  0.37888  1.0000
  S   S4        1.0  0.26829  0.06460  0.39826  1.0000
  Fe  Fe3       1.0  0.24545  0.15572  0.35728  1.0000
  S   S5        1.0  0.28226  0.17746  0.35445  1.0000
  S   S6        1.0  0.20633  0.17144  0.34279  1.0000
  Fe  Fe4       1.0  0.29915  0.14258  0.33163  1.0000
  S   S7        1.0  0.32133  0.13887  0.28436  1.0000
  Fe  Fe5       1.0  0.29092  0.15683  0.40195  1.0000
  S   S8        1.0  0.30584  0.17819  0.44447  1.0000
  S   S9        1.0  0.26141  0.12215  0.33072  1.0000
  S   S10       1.0  0.25307  0.13719  0.40598  1.0000
  S   S11       1.0  0.10471  0.31600  0.32990  1.0000
  H   H7        1.0  0.40472  0.10390  0.07891  1.0000
  S   S12       1.0  0.09151  0.27917  0.39404  1.0000
  H   H8        1.0  0.47107  0.07096  0.18776  1.0000
  Fe  Fe6       1.0  0.12569  0.30007  0.37372  1.0000
  S   S13       1.0  0.16623  0.28322  0.37404  1.0000
  Fe  Fe7       1.0  0.06984  0.29804  0.35308  1.0000
  S   S14       1.0  0.04210  0.27735  0.32184  1.0000
  H   H9        1.0  0.29163  0.20382  0.29038  1.0000
  H   H10       1.0  0.15240  0.08872  0.32568  1.0000
  H   H11       1.0  0.03118  0.30632  0.21110  1.0000
  S   S15       1.0  0.48981  0.17119  0.18442  1.0000
  H   H12       1.0  0.17055  0.14580  0.39143  1.0000
  H   H13       1.0  0.46975  0.19480  0.03731  1.0000
  H   H14       1.0  0.27873  0.17820  0.26876  1.0000
  C   C1        1.0  0.19409  0.20128  0.35536  1.0000
  C   C2        1.0  0.20863  0.21771  0.37372  1.0000
  C   C3        1.0  0.19949  0.24248  0.37996  1.0000
  C   C4        1.0  0.17546  0.25088  0.36873  1.0000
  C   C5        1.0  0.16047  0.23403  0.35155  1.0000
  C   C6        1.0  0.16982  0.20943  0.34475  1.0000
  H   H15       1.0  0.22723  0.21164  0.38233  1.0000
  H   H16       1.0  0.21121  0.25534  0.39332  1.0000
  H   H17       1.0  0.14200  0.24025  0.34266  1.0000
  H   H18       1.0  0.15839  0.19687  0.33058  1.0000
  C   C7        1.0  0.30023  0.16299  0.48258  1.0000
  H   H19       1.0  0.23147  0.25865  0.21627  1.0000
  C   C8        1.0  0.28932  0.13874  0.48463  1.0000
  H   H20       1.0  0.25416  0.27271  0.26044  1.0000
  H   H21       1.0  0.28472  0.12897  0.46283  1.0000
  C   C9        1.0  0.08050  0.32317  0.50467  1.0000
  H   H22       1.0  0.18414  0.03626  0.41483  1.0000
  H   H23       1.0  0.43579  0.12095  0.33871  1.0000
  H   H24       1.0  0.35800  0.01140  0.26930  1.0000
  C   C10       1.0  0.40014  0.17130  0.25634  1.0000
  C   C11       1.0  0.38828  0.15334  0.23730  1.0000
  C   C12       1.0  0.36388  0.14414  0.24593  1.0000
  C   C13       1.0  0.35140  0.15222  0.27411  1.0000
  C   C14       1.0  0.36326  0.17011  0.29329  1.0000
  C   C15       1.0  0.38740  0.17989  0.28413  1.0000
  H   H25       1.0  0.39772  0.14689  0.21561  1.0000
  H   H26       1.0  0.35469  0.13054  0.23077  1.0000
  H   H27       1.0  0.35380  0.17653  0.31500  1.0000
  H   H28       1.0  0.39640  0.19391  0.29887  1.0000
  H   H29       1.0  0.06356  0.33127  0.22469  1.0000
  C   C16       1.0  0.26800  0.03822  0.34079  1.0000
  C   C17       1.0  0.26858  0.03693  0.37469  1.0000
  H   H30       1.0  0.17981  0.23574  0.26964  1.0000
  S   S16       1.0  0.11849  0.33552  0.40276  1.0000
  H   H31       1.0  0.26819  0.05661  0.32813  1.0000
  H   H32       1.0  0.21451  0.26281  0.28218  1.0000
  H   H33       1.0  0.18555  0.06628  0.30911  1.0000
  C   C18       1.0  0.46617  0.05208  0.19694  1.0000
  C   C19       1.0  0.45796  0.03379  0.17542  1.0000
  N   N1        1.0  0.40170  0.08672  0.30736  1.0000
  C   C20       1.0  0.42025  0.06529  0.30112  1.0000
  C   C21       1.0  0.41349  0.11144  0.29524  1.0000
  C   C22       1.0  0.37692  0.08290  0.28979  1.0000
  C   C23       1.0  0.39605  0.08732  0.34321  1.0000
  H   H34       1.0  0.50329  0.10639  0.04761  1.0000
  C   C24       1.0  0.43813  0.11956  0.31217  1.0000
  C   C25       1.0  0.37928  0.07752  0.25331  1.0000
  C   C26       1.0  0.38128  0.11116  0.35466  1.0000
  H   H35       1.0  0.42639  0.06562  0.27524  1.0000
  H   H36       1.0  0.43817  0.06773  0.31493  1.0000
  H   H37       1.0  0.39965  0.12742  0.29722  1.0000
  H   H38       1.0  0.41848  0.11070  0.26906  1.0000
  H   H39       1.0  0.36559  0.06716  0.30142  1.0000
  H   H40       1.0  0.39287  0.13188  0.05670  1.0000
  H   H41       1.0  0.38469  0.07035  0.35127  1.0000
  H   H42       1.0  0.41418  0.08608  0.35707  1.0000
  H   H43       1.0  0.26481  0.27078  0.35056  1.0000
  H   H44       1.0  0.24355  0.19632  0.29974  1.0000
  Fe  Fe8       1.0  0.48307  0.10583  0.22926  1.0000
  C   C27       1.0  0.42933  0.11559  0.03775  1.0000
  C   C28       1.0  0.21821  0.24207  0.28700  1.0000
  H   H45       1.0  0.44342  0.13894  0.30272  1.0000
  H   H46       1.0  0.38882  0.05901  0.24882  1.0000
  H   H47       1.0  0.38933  0.09298  0.23955  1.0000
  H   H48       1.0  0.36886  0.10554  0.37563  1.0000
  H   H49       1.0  0.36864  0.12026  0.33627  1.0000
  H   H50       1.0  0.39461  0.12553  0.36399  1.0000
  C   C29       1.0  0.06317  0.33559  0.25087  1.0000
  S   S17       1.0  0.48571  0.11997  0.11036  1.0000
  H   H51       1.0  0.23903  0.20065  0.25788  1.0000
  C   C30       1.0  0.25480  0.26913  0.32711  1.0000
  H   H52       1.0  0.20644  0.04454  0.44528  1.0000
  H   H53       1.0  0.33091  0.02303  0.24890  1.0000
  C   C31       1.0  0.24906  0.24744  0.22183  1.0000
  C   C32       1.0  0.19917  0.22725  0.26656  1.0000
  H   H54       1.0  0.46460  0.01605  0.26687  1.0000
  C   C33       1.0  0.41068  0.03818  0.31018  1.0000
  H   H55       1.0  0.35978  0.07650  0.24307  1.0000
  H   H56       1.0  0.06692  0.31705  0.26414  1.0000
  H   H57       1.0  0.37083  0.06333  0.02170  1.0000
  N   N2        1.0  0.24635  0.23584  0.28326  1.0000
  H   H58       1.0  0.13753  0.10375  0.35965  1.0000
  Fe  Fe9       1.0  0.08310  0.31521  0.42041  1.0000
  H   H59       1.0  0.41937  0.13470  0.08204  1.0000
  C   C34       1.0  0.47729  0.17555  0.03956  1.0000
  C   C35       1.0  0.01522  0.31897  0.21851  1.0000
  H   H60       1.0  0.01454  0.28333  0.48115  1.0000
  H   H61       1.0  0.15632  0.11687  0.40731  1.0000
  C   C36       1.0  0.46269  0.02103  0.24139  1.0000
  H   H62       1.0  0.26857  0.01174  0.41696  1.0000
  C   C37       1.0  0.41017  0.12158  0.06506  1.0000
  H   H63       1.0  0.18685  0.12742  0.42198  1.0000
  C   C38       1.0  0.17468  0.12594  0.40023  1.0000
  H   H64       1.0  0.41582  0.06986  0.02279  1.0000
  H   H65       1.0  0.47092  0.17254  0.09148  1.0000
  H   H66       1.0  0.02752  0.26252  0.43289  1.0000
  C   C39       1.0  0.49610  0.12576  0.04549  1.0000
  H   H67       1.0  0.01394  0.32760  0.48272  1.0000
  C   C40       1.0  0.48715  0.13791  0.07331  1.0000
  C   C41       1.0  0.26827  0.01292  0.39077  1.0000
  H   H68       1.0  0.22519  0.20635  0.49417  1.0000
  C   C42       1.0  0.25044  0.20768  0.27816  1.0000
  Fe  Fe10      1.0  0.48368  0.13283  0.16267  1.0000
  H   H69       1.0  0.35637  0.00874  0.22579  1.0000
  C   C43       1.0  0.47805  0.16303  0.07032  1.0000
  S   S18       1.0  0.06550  0.31055  0.47063  1.0000
  C   C44       1.0  0.26678  0.01558  0.32326  1.0000
  H   H70       1.0  0.21884  0.07057  0.30278  1.0000
  H   H71       1.0  0.45641  0.03873  0.14986  1.0000
  H   H72       1.0  0.26433  0.25334  0.20432  1.0000
  S   S19       1.0  0.48962  0.14156  0.25600  1.0000
  H   H73       1.0  0.12694  0.07334  0.34739  1.0000
  C   C45       1.0  0.46855  0.04571  0.22990  1.0000
  H   H74       1.0  0.19777  0.20705  0.27542  1.0000
  C   C46       1.0  0.25936  0.24196  0.31459  1.0000
  H   H75       1.0  0.36437  0.09998  0.29151  1.0000
  H   H76       1.0  0.19992  0.09793  0.31093  1.0000
  C   C47       1.0  0.27819  0.19930  0.27088  1.0000
  S   S20       1.0  0.47928  0.06840  0.25667  1.0000
  H   H77       1.0  0.25318  0.22838  0.33443  1.0000
  H   H78       1.0  0.40753  0.03559  0.33666  1.0000
  N   N3        1.0  0.18897  0.08273  0.37734  1.0000
  C   C48       1.0  0.19887  0.07587  0.41079  1.0000
  C   C49       1.0  0.18894  0.11146  0.37347  1.0000
  C   C50       1.0  0.20764  0.07189  0.35324  1.0000
  C   C51       1.0  0.16273  0.07135  0.37380  1.0000
  C   C52       1.0  0.20185  0.04705  0.41915  1.0000
  H   H79       1.0  0.44283  0.13177  0.03544  1.0000
  C   C53       1.0  0.20219  0.07732  0.31714  1.0000
  C   C54       1.0  0.14420  0.08527  0.35015  1.0000
  H   H80       1.0  0.21774  0.08501  0.41470  1.0000
  H   H81       1.0  0.18592  0.08330  0.42985  1.0000
  H   H82       1.0  0.18076  0.11810  0.34998  1.0000
  H   H83       1.0  0.20886  0.11871  0.37265  1.0000
  H   H84       1.0  0.22717  0.07913  0.35776  1.0000
  H   H85       1.0  0.20897  0.05075  0.35596  1.0000
  H   H86       1.0  0.16431  0.05118  0.36621  1.0000
  H   H87       1.0  0.15242  0.07030  0.39754  1.0000
  H   H88       1.0  0.21803  0.03839  0.40584  1.0000
  H   H89       1.0  0.44136  0.09966  0.04761  1.0000
  H   H90       1.0  0.26278  0.28409  0.31043  1.0000
  H   H91       1.0  0.24575  0.22709  0.21716  1.0000
  H   H92       1.0  0.02219  0.30851  0.26834  1.0000
  C   C55       1.0  0.01415  0.27896  0.42983  1.0000
  C   C56       1.0  0.25815  0.25216  0.25650  1.0000
  H   H93       1.0  0.28530  0.20758  0.24748  1.0000
  H   H94       1.0  0.28043  0.23959  0.31255  1.0000
  H   H95       1.0  0.26601  0.01667  0.29709  1.0000
  H   H96       1.0  0.23433  0.27320  0.33209  1.0000
  H   H97       1.0  0.27941  0.25105  0.25679  1.0000
  C   C57       1.0  0.37710  0.08348  0.01838  1.0000
  S   S21       1.0  0.05882  0.33222  0.38071  1.0000
  H   H98       1.0  0.37410  0.09269  0.04179  1.0000
  C   C58       1.0  0.45270  0.00895  0.18672  1.0000
  H   H99       1.0  0.02594  0.29564  0.42254  1.0000
  H   H100      1.0  0.50336  0.01593  0.03471  1.0000
  C   C59       1.0  0.01779  0.32640  0.25418  1.0000
  C   C60       1.0  0.00841  0.27943  0.32415  1.0000
  H   H101      1.0  0.01408  0.33577  0.20162  1.0000
  H   H102      1.0  0.31536  0.19385  0.50971  1.0000
  C   C61       1.0  0.30671  0.17516  0.51120  1.0000
  H   H103      1.0  0.04357  0.33256  0.30988  1.0000
  C   C62       1.0  0.28472  0.12678  0.51494  1.0000
  C   C63       1.0  0.34536  0.00739  0.24890  1.0000
  H   H104      1.0  0.27631  0.10796  0.51622  1.0000
  Fe  Fe11      1.0  0.48250  0.15867  0.92473  1.0000
  H   H105      1.0  0.04408  0.19103  0.69264  1.0000
  Fe  Fe12      1.0  0.45676  0.15819  0.85725  1.0000
  S   S22       1.0  0.47725  0.12229  0.84327  1.0000
  S   S23       1.0  0.42300  0.17639  0.83059  1.0000
  Fe  Fe13      1.0  0.46830  0.10889  0.89415  1.0000
  S   S24       1.0  0.45077  0.07079  0.90554  1.0000
  C   C64       1.0  0.38813  0.22585  0.74685  1.0000
  S   S25       1.0  0.44557  0.14328  0.90680  1.0000
  H   H106      1.0  0.39730  0.17063  0.98090  1.0000
  Fe  Fe14      1.0  0.27841  0.17250  0.68408  1.0000
  S   S26       1.0  0.31186  0.17098  0.64925  1.0000
  S   S27       1.0  0.26347  0.21298  0.69135  1.0000
  Fe  Fe15      1.0  0.28124  0.11461  0.69828  1.0000
  S   S28       1.0  0.31418  0.11014  0.66424  1.0000
  S   S29       1.0  0.26911  0.07847  0.72580  1.0000
  Fe  Fe16      1.0  0.33002  0.14476  0.68694  1.0000
  S   S30       1.0  0.37215  0.14249  0.69995  1.0000
  Fe  Fe17      1.0  0.29247  0.13642  0.63073  1.0000
  S   S31       1.0  0.28474  0.12256  0.58065  1.0000
  S   S32       1.0  0.29807  0.14836  0.72291  1.0000
  S   S33       1.0  0.25810  0.13910  0.66353  1.0000
  Fe  Fe18      1.0  0.13034  0.29127  0.68454  1.0000
  H   H107      1.0  0.09278  0.24415  0.66967  1.0000
  S   S34       1.0  0.14733  0.25093  0.68221  1.0000
  Fe  Fe19      1.0  0.07771  0.31527  0.69763  1.0000
  S   S35       1.0  0.03898  0.30709  0.72042  1.0000
  H   H108      1.0  0.17743  0.22020  0.57860  1.0000
  C   C65       1.0  0.23782  0.20680  0.54417  1.0000
  H   H109      1.0  0.36378  0.19489  0.67501  1.0000
  S   S36       1.0  0.09529  0.29768  0.65372  1.0000
  S   S37       1.0  0.11151  0.30641  0.72942  1.0000
  C   C66       1.0  0.30881  0.20816  0.77617  1.0000
  H   H110      1.0  0.26690  0.23524  0.61542  1.0000
  H   H111      1.0  0.37412  0.22564  0.68506  1.0000
  C   C67       1.0  0.40521  0.08374  0.00685  1.0000
  H   H112      1.0  0.20817  0.14035  0.57591  1.0000
  H   H113      1.0  0.48913  0.09718  0.77845  1.0000
  C   C68       1.0  0.01470  0.24269  0.69348  1.0000
  C   C69       1.0  0.23110  0.22315  0.68812  1.0000
  C   C70       1.0  0.22526  0.24932  0.68998  1.0000
  C   C71       1.0  0.19980  0.25822  0.68793  1.0000
  C   C72       1.0  0.17985  0.24098  0.68408  1.0000
  C   C73       1.0  0.18575  0.21483  0.68180  1.0000
  C   C74       1.0  0.21121  0.20593  0.68380  1.0000
  H   H114      1.0  0.24048  0.26282  0.69327  1.0000
  H   H115      1.0  0.19558  0.27837  0.68968  1.0000
  H   H116      1.0  0.17048  0.20131  0.67886  1.0000
  H   H117      1.0  0.21536  0.18574  0.68245  1.0000
  C   C75       1.0  0.40884  0.16275  0.79646  1.0000
  C   C76       1.0  0.42374  0.15377  0.77090  1.0000
  C   C77       1.0  0.41211  0.14705  0.74178  1.0000
  C   C78       1.0  0.38550  0.14886  0.73810  1.0000
  C   C79       1.0  0.37046  0.15638  0.76433  1.0000
  C   C80       1.0  0.38214  0.16366  0.79320  1.0000
  H   H118      1.0  0.44432  0.15326  0.77296  1.0000
  H   H119      1.0  0.42390  0.14112  0.72168  1.0000
  H   H120      1.0  0.34992  0.15719  0.76216  1.0000
  H   H121      1.0  0.37049  0.17047  0.81294  1.0000
  C   C81       1.0  0.27345  0.02608  0.72137  1.0000
  C   C82       1.0  0.27458  0.04995  0.70486  1.0000
  C   C83       1.0  0.28084  0.05091  0.67190  1.0000
  H   H122      1.0  0.26838  0.02514  0.74682  1.0000
  H   H123      1.0  0.28081  0.06895  0.65854  1.0000
  H   H124      1.0  0.31339  0.24887  0.77073  1.0000
  C   C84       1.0  0.47322  0.04676  0.89883  1.0000
  H   H125      1.0  0.34311  0.03468  0.78631  1.0000
  C   C85       1.0  0.40108  0.12990  0.99191  1.0000
  H   H126      1.0  0.50199  0.12857  0.99355  1.0000
  C   C86       1.0  0.30229  0.16304  0.54169  1.0000
  C   C87       1.0  0.29123  0.13879  0.54352  1.0000
  H   H127      1.0  0.04907  0.19394  0.76400  1.0000
  H   H128      1.0  0.30765  0.17229  0.56362  1.0000
  S   S38       1.0  0.14746  0.32930  0.67065  1.0000
  C   C88       1.0  0.33901  0.21110  0.71184  1.0000
  H   H129      1.0  0.09028  0.24993  0.76893  1.0000
  C   C89       1.0  0.32104  0.26665  0.69711  1.0000
  H   H130      1.0  0.34334  0.19229  0.72377  1.0000
  N   N4        1.0  0.35545  0.06066  0.74752  1.0000
  C   C90       1.0  0.35266  0.08266  0.77016  1.0000
  H   H131      1.0  0.48155  0.06687  0.79788  1.0000
  H   H132      1.0  0.02274  0.18532  0.74023  1.0000
  H   H133      1.0  0.30369  0.03482  0.55604  1.0000
  C   C91       1.0  0.32537  0.09324  0.77500  1.0000
  C   C92       1.0  0.21229  0.18092  0.58529  1.0000
  H   H134      1.0  0.43348  0.10483  0.95660  1.0000
  C   C93       1.0  0.40269  0.07295  0.73827  1.0000
  H   H135      1.0  0.36020  0.07733  0.79463  1.0000
  H   H136      1.0  0.36412  0.09931  0.76128  1.0000
  H   H137      1.0  0.29167  0.21248  0.60952  1.0000
  Fe  Fe20      1.0  0.11130  0.33668  0.64289  1.0000
  S   S39       1.0  0.48229  0.17878  0.97309  1.0000
  H   H138      1.0  0.46954  0.01016  0.99101  1.0000
  H   H139      1.0  0.27769  0.22772  0.57475  1.0000
  H   H140      1.0  0.35318  0.08970  0.70939  1.0000
  H   H141      1.0  0.31629  0.09857  0.75165  1.0000
  H   H142      1.0  0.31301  0.07971  0.78902  1.0000
  H   H143      1.0  0.32632  0.11090  0.78911  1.0000
  C   C94       1.0  0.22375  0.15438  0.57854  1.0000
  H   H144      1.0  0.07653  0.31942  0.58735  1.0000
  H   H145      1.0  0.45234  0.12470  0.98067  1.0000
  H   H146      1.0  0.07253  0.21944  0.62802  1.0000
  H   H147      1.0  0.03773  0.22796  0.65618  1.0000
  H   H148      1.0  0.31260  0.19028  0.76342  1.0000
  H   H149      1.0  0.24868  0.19305  0.62491  1.0000
  C   C95       1.0  0.50497  0.02328  0.00931  1.0000
  C   C96       1.0  0.19207  0.23534  0.57731  1.0000
  N   N5        1.0  0.33963  0.23204  0.73616  1.0000
  H   H150      1.0  0.19477  0.18294  0.57053  1.0000
  H   H151      1.0  0.29817  0.23427  0.73792  1.0000
  H   H152      1.0  0.34607  0.22150  0.66044  1.0000
  H   H153      1.0  0.05693  0.30157  0.53855  1.0000
  C   C97       1.0  0.44070  0.10704  0.98163  1.0000
  S   S40       1.0  0.49227  0.17718  0.87596  1.0000
  H   H154      1.0  0.36035  0.24257  0.77884  1.0000
  H   H155      1.0  0.39394  0.24332  0.73298  1.0000
  H   H156      1.0  0.31597  0.25162  0.68006  1.0000
  H   H157      1.0  0.31937  0.20937  0.70209  1.0000
  H   H158      1.0  0.44578  0.02180  0.87802  1.0000
  H   H159      1.0  0.23568  0.15431  0.55621  1.0000
  H   H160      1.0  0.49291  0.01522  0.96091  1.0000
  H   H161      1.0  0.29184  0.02958  0.63035  1.0000
  H   H162      1.0  0.36086  0.26024  0.70688  1.0000
  H   H163      1.0  0.31976  0.20810  0.79905  1.0000
  H   H164      1.0  0.40527  0.08698  0.75755  1.0000
  H   H165      1.0  0.10271  0.20558  0.63740  1.0000
  H   H166      1.0  0.18422  0.25137  0.59145  1.0000
  H   H167      1.0  0.41790  0.16377  0.01425  1.0000
  H   H168      1.0  0.08796  0.21742  0.75720  1.0000
  H   H169      1.0  0.49811  0.06915  0.75923  1.0000
  H   H170      1.0  0.03036  0.31302  0.65101  1.0000
  C   C98       1.0  0.49528  0.13824  0.01480  1.0000
  C   C99       1.0  0.45959  0.08470  0.98807  1.0000
  H   H171      1.0  0.39086  0.20862  0.73221  1.0000
  H   H172      1.0  0.25509  0.19515  0.53839  1.0000
  C   C100      1.0  0.34263  0.25825  0.72046  1.0000
  N   N6        1.0  0.06189  0.22769  0.69869  1.0000
  C   C101      1.0  0.27341  0.21981  0.59940  1.0000
  C   C102      1.0  0.06831  0.24587  0.72498  1.0000
  C   C103      1.0  0.04125  0.23955  0.67770  1.0000
  C   C104      1.0  0.05429  0.20152  0.71161  1.0000
  H   H173      1.0  0.38691  0.03564  0.73350  1.0000
  H   H174      1.0  0.26438  0.18094  0.59029  1.0000
  H   H175      1.0  0.35794  0.20916  0.77407  1.0000
  H   H176      1.0  0.32590  0.06992  0.71287  1.0000
  H   H177      1.0  0.21465  0.22487  0.61884  1.0000
  H   H178      1.0  0.49682  0.04291  0.00856  1.0000
  H   H179      1.0  0.05160  0.25047  0.74038  1.0000
  H   H180      1.0  0.07398  0.26470  0.71401  1.0000
  H   H181      1.0  0.04731  0.25876  0.66815  1.0000
  H   H182      1.0  0.19464  0.24298  0.55217  1.0000
  C   C105      1.0  0.46549  0.02415  0.88498  1.0000
  C   C106      1.0  0.33861  0.03932  0.76044  1.0000
  C   C107      1.0  0.08565  0.22506  0.67793  1.0000
  H   H183      1.0  0.19920  0.20945  0.52201  1.0000
  H   H184      1.0  0.20538  0.18032  0.61096  1.0000
  C   C108      1.0  0.36071  0.22749  0.76039  1.0000
  H   H185      1.0  0.39486  0.12524  0.96703  1.0000
  H   H186      1.0  0.07170  0.18989  0.71728  1.0000
  C   C109      1.0  0.34712  0.06958  0.71415  1.0000
  C   C110      1.0  0.07207  0.31544  0.53581  1.0000
  C   C111      1.0  0.09012  0.23730  0.74782  1.0000
  C   C112      1.0  0.28674  0.02844  0.65578  1.0000
  H   H187      1.0  0.10904  0.23949  0.73572  1.0000
  H   H188      1.0  0.23557  0.14741  0.59915  1.0000
  C   C113      1.0  0.38306  0.05228  0.74863  1.0000
  H   H189      1.0  0.10151  0.21612  0.69213  1.0000
  H   H190      1.0  0.40153  0.22353  0.76750  1.0000
  H   H191      1.0  0.40500  0.07519  0.98242  1.0000
  H   H192      1.0  0.27585  0.02042  0.57329  1.0000
  H   H193      1.0  0.30357  0.27229  0.71064  1.0000
  C   C114      1.0  0.31459  0.23214  0.75474  1.0000
  H   H194      1.0  0.47524  0.08602  0.96972  1.0000
  C   C115      1.0  0.21776  0.22698  0.59217  1.0000
  C   C116      1.0  0.35686  0.21409  0.68181  1.0000
  N   N7        1.0  0.23010  0.20312  0.57941  1.0000
  C   C117      1.0  0.08324  0.20901  0.64742  1.0000
  C   C118      1.0  0.29030  0.01863  0.55359  1.0000
  H   H195      1.0  0.37179  0.06566  0.67122  1.0000
  H   H196      1.0  0.28823  0.20822  0.78305  1.0000
  H   H197      1.0  0.32725  0.28370  0.68249  1.0000
  H   H198      1.0  0.34374  0.27295  0.73932  1.0000
  C   C119      1.0  0.25382  0.19790  0.59917  1.0000
  H   H199      1.0  0.38808  0.04542  0.77362  1.0000
  H   H200      1.0  0.07458  0.19009  0.65270  1.0000
  H   H201      1.0  0.42854  0.15893  0.97305  1.0000
  H   H202      1.0  0.23047  0.24377  0.58848  1.0000
  C   C120      1.0  0.01104  0.30787  0.69698  1.0000
  C   C121      1.0  0.03751  0.20025  0.74276  1.0000
  C   C122      1.0  0.48541  0.16305  0.01156  1.0000
  H   H203      1.0  0.39740  0.08327  0.71544  1.0000
  H   H204      1.0  0.45047  0.06587  0.98521  1.0000
  N   N8        1.0  0.41863  0.10921  0.00525  1.0000
  H   H205      1.0  0.28104  0.02116  0.52979  1.0000
  C   C123      1.0  0.35709  0.05445  0.68493  1.0000
  C   C124      1.0  0.41219  0.15714  0.99015  1.0000
  C   C125      1.0  0.49628  0.07743  0.78336  1.0000
  H   H206      1.0  0.42161  0.06379  0.73429  1.0000
  H   H207      1.0  0.50480  0.06743  0.91805  1.0000
  H   H208      1.0  0.24364  0.22692  0.53887  1.0000
  S   S41       1.0  0.50455  0.12293  0.91526  1.0000
  C   C126      1.0  0.01211  0.31074  0.66324  1.0000
  H   H209      1.0  0.01508  0.25417  0.71550  1.0000
  H   H210      1.0  0.31814  0.04522  0.75995  1.0000
  C   C127      1.0  0.49879  0.05003  0.90716  1.0000
  H   H211      1.0  0.46871  0.08546  0.01206  1.0000
  C   C128      1.0  0.08321  0.32547  0.56350  1.0000
  C   C129      1.0  0.33957  0.01410  0.74231  1.0000
  H   H212      1.0  0.36464  0.03513  0.69057  1.0000
  H   H213      1.0  0.49665  0.02712  0.78207  1.0000
  H   H214      1.0  0.36440  0.09246  0.99982  1.0000
  H   H215      1.0  0.38314  0.13131  0.00616  1.0000
  H   H216      1.0  0.02718  0.21798  0.74852  1.0000
  H   H217      1.0  0.33182  0.01651  0.71752  1.0000
  H   H218      1.0  0.34114  0.05199  0.66774  1.0000
  C   C130      1.0  0.21790  0.20003  0.51848  1.0000
  H   H219      1.0  0.21506  0.17913  0.51750  1.0000
  Fe  Fe21      1.0  0.08778  0.53883  0.19679  1.0000
  S   S42       1.0  0.12714  0.52540  0.18260  1.0000
  S   S43       1.0  0.07527  0.56909  0.23255  1.0000
  Fe  Fe22      1.0  0.06285  0.49744  0.15718  1.0000
  S   S44       1.0  0.09994  0.48083  0.14054  1.0000
  S   S45       1.0  0.02624  0.48103  0.14010  1.0000
  Fe  Fe23      1.0  0.11177  0.48553  0.19237  1.0000
  S   S46       1.0  0.13309  0.45394  0.22043  1.0000
  Fe  Fe24      1.0  0.11130  0.52173  0.13194  1.0000
  S   S47       1.0  0.12825  0.53871  0.08489  1.0000
  S   S48       1.0  0.07350  0.49918  0.20929  1.0000
  S   S49       1.0  0.07309  0.53812  0.14577  1.0000
  H   H220      1.0  0.01139  0.62270  0.24870  1.0000
  S   S50       1.0  0.08699  0.39052  0.34154  1.0000
  C   C131      1.0  0.03312  0.37130  0.24195  1.0000
  H   H221      1.0  0.04419  0.38692  0.25290  1.0000
  H   H222      1.0  0.04398  0.58341  0.04426  1.0000
  C   C132      1.0  0.12487  0.52606  0.04568  1.0000
  C   C133      1.0  0.11885  0.50043  0.04132  1.0000
  N   N9        1.0  0.03830  0.53035  0.03983  1.0000
  H   H223      1.0  0.11674  0.48762  0.06222  1.0000
  H   H224      1.0  0.01391  0.47411  0.22381  1.0000
  C   C134      1.0  0.09349  0.59397  0.24908  1.0000
  C   C135      1.0  0.08213  0.60924  0.27272  1.0000
  C   C136      1.0  0.09612  0.62847  0.28767  1.0000
  C   C137      1.0  0.12171  0.63264  0.27915  1.0000
  C   C138      1.0  0.13309  0.61735  0.25550  1.0000
  C   C139      1.0  0.11908  0.59815  0.24048  1.0000
  H   H225      1.0  0.06240  0.60613  0.27967  1.0000
  H   H226      1.0  0.08710  0.64006  0.30582  1.0000
  H   H227      1.0  0.15285  0.62046  0.24865  1.0000
  H   H228      1.0  0.12804  0.58666  0.22222  1.0000
  C   C140      1.0  0.11925  0.43525  0.25259  1.0000
  C   C141      1.0  0.13309  0.41456  0.26627  1.0000
  C   C142      1.0  0.12320  0.40010  0.29289  1.0000
  C   C143      1.0  0.09954  0.40656  0.30646  1.0000
  C   C144      1.0  0.08562  0.42712  0.29262  1.0000
  C   C145      1.0  0.09525  0.44116  0.26559  1.0000
  H   H229      1.0  0.15170  0.40983  0.25642  1.0000
  H   H230      1.0  0.13420  0.38444  0.30345  1.0000
  H   H231      1.0  0.06733  0.43229  0.30299  1.0000
  H   H232      1.0  0.08428  0.45678  0.25514  1.0000
  C   C146      1.0  0.01971  0.52699  0.06788  1.0000
  H   H233      1.0  0.06877  0.49382  0.07452  1.0000
  H   H234      1.0  0.02504  0.52372  0.18199  1.0000
  N   N10       1.0  0.13431  0.52560  0.29584  1.0000
  C   C147      1.0  0.12377  0.54910  0.31176  1.0000
  C   C148      1.0  0.11266  0.51404  0.27757  1.0000
  C   C149      1.0  0.15478  0.53425  0.27205  1.0000
  C   C150      1.0  0.14506  0.50766  0.32174  1.0000
  C   C151      1.0  0.14337  0.56655  0.32763  1.0000
  C   C152      1.0  0.08864  0.50740  0.29802  1.0000
  C   C153      1.0  0.16827  0.51339  0.25272  1.0000
  C   C154      1.0  0.14667  0.47896  0.31385  1.0000
  H   H235      1.0  0.11295  0.56124  0.29402  1.0000
  H   H236      1.0  0.10973  0.54381  0.33119  1.0000
  H   H237      1.0  0.11848  0.49649  0.26518  1.0000
  H   H238      1.0  0.10647  0.52733  0.25755  1.0000
  H   H239      1.0  0.14676  0.54852  0.25421  1.0000
  H   H240      1.0  0.17049  0.54406  0.28449  1.0000
  H   H241      1.0  0.16450  0.51387  0.32874  1.0000
  H   H242      1.0  0.13308  0.50848  0.34413  1.0000
  H   H243      1.0  0.15414  0.57806  0.30910  1.0000
  H   H244      1.0  0.13301  0.58055  0.34270  1.0000
  H   H245      1.0  0.15675  0.55572  0.34361  1.0000
  H   H246      1.0  0.07766  0.52489  0.30384  1.0000
  H   H247      1.0  0.07570  0.49553  0.28372  1.0000
  H   H248      1.0  0.09328  0.49643  0.32059  1.0000
  H   H249      1.0  0.18046  0.50101  0.26853  1.0000
  H   H250      1.0  0.18120  0.52265  0.23444  1.0000
  H   H251      1.0  0.15484  0.50174  0.23907  1.0000
  H   H252      1.0  0.16337  0.47024  0.32650  1.0000
  H   H253      1.0  0.14917  0.47474  0.28799  1.0000
  H   H254      1.0  0.12980  0.46847  0.32378  1.0000
  C   C155      1.0  0.05790  0.57269  0.05941  1.0000
  H   H255      1.0  0.03854  0.47785  0.07121  1.0000
  C   C156      1.0  0.03839  0.35066  0.29659  1.0000
  H   H256      1.0  0.01140  0.59431  0.22624  1.0000
  C   C157      1.0  0.06162  0.54476  0.04978  1.0000
  H   H257      1.0  0.10815  0.65068  0.51052  1.0000
  H   H258      1.0  0.10652  0.34739  0.47744  1.0000
  H   H259      1.0  0.07085  0.53510  0.07098  1.0000
  H   H260      1.0  0.05345  0.36453  0.30223  1.0000
  H   H261      1.0  0.08474  0.37176  0.24321  1.0000
  H   H262      1.0  0.01738  0.36207  0.33915  1.0000
  C   C158      1.0  0.12802  0.54230  0.01813  1.0000
  H   H263      1.0  0.05251  0.57375  0.08541  1.0000
  C   C159      1.0  0.12077  0.63384  0.51516  1.0000
  H   H264      1.0  0.00996  0.38105  0.30415  1.0000
  C   C160      1.0  0.09999  0.34122  0.50133  1.0000
  H   H265      1.0  0.07678  0.54437  0.03085  1.0000
  H   H266      1.0  0.13279  0.63207  0.49298  1.0000
  H   H267      1.0  0.04083  0.36984  0.21681  1.0000
  H   H268      1.0  0.10380  0.34344  0.24551  1.0000
  H   H269      1.0  0.13278  0.56214  0.02118  1.0000
  Fe  Fe25      1.0  0.09493  0.34969  0.36017  1.0000
  S   S51       1.0  0.10268  0.67190  0.38000  1.0000
  H   H270      1.0  0.03019  0.52342  0.09096  1.0000
  C   C161      1.0  0.05530  0.48537  0.05745  1.0000
  C   C162      1.0  0.04705  0.50416  0.02981  1.0000
  H   H271      1.0  0.06511  0.46869  0.04686  1.0000
  C   C163      1.0  0.08658  0.35282  0.25577  1.0000
  H   H272      1.0  0.07624  0.58296  0.05548  1.0000
  S   S52       1.0  0.14020  0.65652  0.29744  1.0000
  H   H273      1.0  0.00956  0.56763  0.07593  1.0000
  H   H274      1.0  0.09064  0.35538  0.28170  1.0000
  N   N11       1.0  0.03750  0.34645  0.26067  1.0000
  C   C164      1.0  0.01404  0.36119  0.31267  1.0000
  H   H275      1.0  0.00764  0.50979  0.06478  1.0000
  Fe  Fe26      1.0  0.09599  0.50474  0.82488  1.0000
  S   S53       1.0  0.08829  0.54603  0.81144  1.0000
  S   S54       1.0  0.08504  0.47475  0.78867  1.0000
  Fe  Fe27      1.0  0.11011  0.51680  0.89513  1.0000
  S   S55       1.0  0.10437  0.55896  0.88685  1.0000
  S   S56       1.0  0.11601  0.49459  0.94316  1.0000
  Fe  Fe28      1.0  0.06936  0.54842  0.85991  1.0000
  S   S57       1.0  0.03333  0.57095  0.86725  1.0000
  Fe  Fe29      1.0  0.12397  0.55403  0.83856  1.0000
  S   S58       1.0  0.14929  0.58622  0.81944  1.0000
  S   S59       1.0  0.07325  0.50660  0.87126  1.0000
  S   S60       1.0  0.13346  0.51232  0.84900  1.0000
  C   C165      1.0  0.12471  0.53320  0.98663  1.0000
  H   H276      1.0  0.18092  0.65967  0.61661  1.0000
  S   S61       1.0  0.14373  0.37434  0.74523  1.0000
  C   C166      1.0  0.10193  0.44705  0.77720  1.0000
  C   C167      1.0  0.12798  0.44358  0.78326  1.0000
  C   C168      1.0  0.14049  0.42106  0.77374  1.0000
  C   C169      1.0  0.12713  0.40197  0.75786  1.0000
  C   C170      1.0  0.10110  0.40551  0.75183  1.0000
  C   C171      1.0  0.08862  0.42795  0.76138  1.0000
  H   H277      1.0  0.13851  0.45837  0.79490  1.0000
  H   H278      1.0  0.16067  0.41854  0.77838  1.0000
  H   H279      1.0  0.09053  0.39094  0.73985  1.0000
  H   H280      1.0  0.06846  0.43050  0.75658  1.0000
  C   C172      1.0  0.12411  0.63085  0.72740  1.0000
  C   C173      1.0  0.13836  0.64283  0.75096  1.0000
  C   C174      1.0  0.14667  0.62880  0.77865  1.0000
  C   C175      1.0  0.14020  0.60294  0.78338  1.0000
  C   C176      1.0  0.12640  0.59092  0.75945  1.0000
  C   C177      1.0  0.11845  0.60480  0.73159  1.0000
  C   C178      1.0  0.06215  0.61216  0.78913  1.0000
  H   H281      1.0  0.15768  0.63815  0.79683  1.0000
  H   H282      1.0  0.12190  0.57088  0.76236  1.0000
  H   H283      1.0  0.10761  0.59533  0.71338  1.0000
  H   H284      1.0  0.08866  0.60128  0.56759  1.0000
  C   C179      1.0  0.09879  0.41569  0.64727  1.0000
  H   H285      1.0  0.03179  0.53395  0.81715  1.0000
  S   S62       1.0  0.11231  0.64760  0.69275  1.0000
  C   C180      1.0  0.11906  0.50748  0.98228  1.0000
  H   H286      1.0  0.08370  0.65430  0.76027  1.0000
  H   H287      1.0  0.05881  0.55931  0.98464  1.0000
  H   H288      1.0  0.12713  0.54595  0.96573  1.0000
  C   C181      1.0  0.18153  0.39603  0.67725  1.0000
  C   C182      1.0  0.10253  0.34369  0.56018  1.0000
  H   H289      1.0  0.10245  0.64217  0.80946  1.0000
  H   H290      1.0  0.10074  0.57775  0.59450  1.0000
  Fe  Fe30      1.0  0.12544  0.34526  0.71281  1.0000
  H   H291      1.0  0.18236  0.43700  0.67839  1.0000
  C   C183      1.0  0.14102  0.43019  0.59260  1.0000
  H   H292      1.0  0.09819  0.43189  0.62961  1.0000
  H   H293      1.0  0.05343  0.59869  0.80746  1.0000
  H   H294      1.0  0.12275  0.40436  0.68710  1.0000
  H   H295      1.0  0.19494  0.39589  0.65630  1.0000
  H   H296      1.0  0.09897  0.36509  0.87534  1.0000
  H   H297      1.0  0.03531  0.62916  0.83986  1.0000
  C   C184      1.0  0.08539  0.65274  0.60836  1.0000
  H   H298      1.0  0.07322  0.37827  0.85066  1.0000
  C   C185      1.0  0.16747  0.42187  0.67966  1.0000
  C   C186      1.0  0.01238  0.64432  0.80163  1.0000
  S   S63       1.0  0.11611  0.35749  0.59444  1.0000
  H   H299      1.0  0.15376  0.62331  0.54344  1.0000
  H   H300      1.0  0.11216  0.47119  0.00676  1.0000
  H   H301      1.0  0.17553  0.43719  0.61888  1.0000
  H   H302      1.0  0.15254  0.42846  0.57003  1.0000
  H   H303      1.0  0.04885  0.58647  0.75277  1.0000
  H   H304      1.0  0.10406  0.62584  0.86538  1.0000
  H   H305      1.0  0.03066  0.55671  0.96104  1.0000
  N   N12       1.0  0.06177  0.63916  0.80106  1.0000
  H   H306      1.0  0.12569  0.36575  0.52629  1.0000
  H   H307      1.0  0.16540  0.40476  0.61848  1.0000
  C   C187      1.0  0.10673  0.59262  0.57625  1.0000
  H   H308      1.0  0.17366  0.62684  0.61238  1.0000
  H   H309      1.0  0.11666  0.58319  0.55592  1.0000
  C   C188      1.0  0.08708  0.62139  0.85070  1.0000
  H   H310      1.0  0.11811  0.47988  0.69213  1.0000
  C   C189      1.0  0.08417  0.64207  0.82344  1.0000
  N   N13       1.0  0.09930  0.41974  0.88172  1.0000
  C   C190      1.0  0.07070  0.42327  0.88390  1.0000
  C   C191      1.0  0.10807  0.40683  0.91293  1.0000
  C   C192      1.0  0.10679  0.40339  0.85379  1.0000
  C   C193      1.0  0.11145  0.44551  0.87635  1.0000
  C   C194      1.0  0.05745  0.43384  0.85304  1.0000
  C   C195      1.0  0.10884  0.42395  0.94266  1.0000
  C   C196      1.0  0.09423  0.37688  0.85344  1.0000
  C   C197      1.0  0.14101  0.44586  0.87598  1.0000
  H   H311      1.0  0.06110  0.40504  0.89110  1.0000
  H   H312      1.0  0.06562  0.43668  0.90334  1.0000
  H   H313      1.0  0.12734  0.39803  0.91020  1.0000
  H   H314      1.0  0.09548  0.39044  0.91974  1.0000
  H   H315      1.0  0.10259  0.41328  0.83029  1.0000
  H   H316      1.0  0.12783  0.40015  0.85319  1.0000
  H   H317      1.0  0.10550  0.45430  0.85272  1.0000
  H   H318      1.0  0.10435  0.45933  0.89429  1.0000
  H   H319      1.0  0.06311  0.45378  0.84725  1.0000
  H   H320      1.0  0.06082  0.42193  0.83171  1.0000
  H   H321      1.0  0.03648  0.43430  0.85738  1.0000
  H   H322      1.0  0.11267  0.41192  0.96473  1.0000
  H   H323      1.0  0.12453  0.43805  0.94051  1.0000
  H   H324      1.0  0.09056  0.43420  0.94670  1.0000
  H   H325      1.0  0.04877  0.52862  0.97025  1.0000
  H   H326      1.0  0.06648  0.66183  0.60373  1.0000
  C   C198      1.0  0.04934  0.60739  0.75642  1.0000
  H   H327      1.0  0.14848  0.44664  0.85073  1.0000
  H   H328      1.0  0.14997  0.42929  0.88868  1.0000
  H   H329      1.0  0.14775  0.46300  0.88852  1.0000
  H   H330      1.0  0.13540  0.65319  0.62450  1.0000
  H   H331      1.0  0.08188  0.63371  0.61997  1.0000
  C   C199      1.0  0.13832  0.45464  0.65939  1.0000
  S   S64       1.0  0.09045  0.35496  0.68410  1.0000
  C   C200      1.0  0.12551  0.40836  0.66068  1.0000
  H   H332      1.0  0.13289  0.44974  0.59206  1.0000
  C   C201      1.0  0.17101  0.64607  0.60093  1.0000
  H   H333      1.0  0.11970  0.61181  0.61885  1.0000
  H   H334      1.0  0.09067  0.60221  0.84097  1.0000
  H   H335      1.0  0.15473  0.46783  0.65519  1.0000
  H   H336      1.0  0.09083  0.39915  0.63460  1.0000
  N   N14       1.0  0.14676  0.42735  0.65505  1.0000
  H   H337      1.0  0.14374  0.60233  0.59222  1.0000
  H   H338      1.0  0.07041  0.62062  0.86742  1.0000
  H   H339      1.0  0.18078  0.64721  0.57700  1.0000
  C   C202      1.0  0.01254  0.53732  0.82575  1.0000
  H   H340      1.0  0.12573  0.41571  0.59121  1.0000
  H   H341      1.0  0.11146  0.44693  0.70031  1.0000
  H   H342      1.0  0.08706  0.64173  0.55912  1.0000
  H   H343      1.0  0.19313  0.39262  0.69939  1.0000
  H   H344      1.0  0.12413  0.46111  0.64123  1.0000
  H   H345      1.0  0.02948  0.61452  0.75522  1.0000
  H   H346      1.0  0.16809  0.37991  0.67609  1.0000
  C   C203      1.0  0.13830  0.63798  0.54432  1.0000
  H   H347      1.0  0.08214  0.60535  0.78603  1.0000
  H   H348      1.0  0.14303  0.66285  0.74785  1.0000
  H   H349      1.0  0.13092  0.38960  0.65057  1.0000
  H   H350      1.0  0.15954  0.42211  0.70474  1.0000
  H   H351      1.0  0.14789  0.65653  0.53859  1.0000
  H   H352      1.0  0.14156  0.46045  0.71199  1.0000
  C   C204      1.0  0.12676  0.46045  0.69294  1.0000
  C   C205      1.0  0.15849  0.42465  0.62181  1.0000
  H   H353      1.0  0.10169  0.36660  0.83214  1.0000
  N   N15       1.0  0.12596  0.63815  0.57762  1.0000
  C   C206      1.0  0.14253  0.65386  0.59902  1.0000
  C   C207      1.0  0.10010  0.65103  0.57601  1.0000
  C   C208      1.0  0.11079  0.35162  0.52903  1.0000
  C   C209      1.0  0.12456  0.61157  0.59250  1.0000
  H   H354      1.0  0.08528  0.41947  0.66750  1.0000
  C   C210      1.0  0.02534  0.54299  0.01098  1.0000
  H   H355      1.0  0.06071  0.61589  0.73598  1.0000
  C   C211      1.0  0.04216  0.54694  0.98029  1.0000
  H   H356      1.0  0.08333  0.66067  0.83568  1.0000
  C   C212      1.0  0.00796  0.55458  0.85031  1.0000
  C   C213      1.0  0.11629  0.49115  0.00981  1.0000
  C   C214      1.0  0.03772  0.64407  0.82027  1.0000
  H   H357      1.0  0.09526  0.66509  0.62543  1.0000
  H   H358      1.0  0.05062  0.65630  0.75425  1.0000
  H   H359      1.0  0.10211  0.67079  0.56585  1.0000
  H   H360      1.0  0.03891  0.66205  0.83383  1.0000
  C   C215      1.0  0.06533  0.65815  0.77310  1.0000
  H   H361      1.0  0.01377  0.65323  0.77709  1.0000
  H   H362      1.0  0.06359  0.50561  0.01269  1.0000
  H   H363      1.0  0.00841  0.53163  0.00407  1.0000
  H   H364      1.0  0.10916  0.61637  0.51785  1.0000
  H   H365      1.0  0.01748  0.56204  0.01659  1.0000
  H   H366      1.0  0.03171  0.49443  0.01641  1.0000
  Fe  Fe31      1.0  0.46408  0.94883  0.17181  1.0000
  S   S65       1.0  0.45126  0.91278  0.14954  1.0000
  S   S66       1.0  0.44443  0.98579  0.15917  1.0000
  Fe  Fe32      1.0  0.45692  0.89556  0.19962  1.0000
  S   S67       1.0  0.42668  0.86910  0.22123  1.0000
  H   H367      1.0  0.13266  0.77068  0.24151  1.0000
  Fe  Fe33      1.0  0.31979  0.89319  0.35689  1.0000
  S   S68       1.0  0.29072  0.89286  0.31745  1.0000
  S   S69       1.0  0.36248  0.89820  0.34676  1.0000
  Fe  Fe34      1.0  0.27792  0.89821  0.40966  1.0000
  S   S70       1.0  0.24645  0.89965  0.37294  1.0000
  S   S71       1.0  0.26240  0.90050  0.46078  1.0000
  Fe  Fe35      1.0  0.26745  0.86682  0.35099  1.0000
  S   S72       1.0  0.25139  0.82736  0.34042  1.0000
  Fe  Fe36      1.0  0.27272  0.92561  0.34384  1.0000
  S   S73       1.0  0.26454  0.96336  0.31698  1.0000
  S   S74       1.0  0.29832  0.86468  0.38882  1.0000
  S   S75       1.0  0.30237  0.92659  0.38229  1.0000
  Fe  Fe37      1.0  0.12735  0.69868  0.40698  1.0000
  S   S76       1.0  0.10155  0.73262  0.39925  1.0000
  H   H368      1.0  0.43971  0.87220  0.09582  1.0000
  H   H369      1.0  0.37272  0.93058  0.25195  1.0000
  S   S77       1.0  0.09972  0.71718  0.32273  1.0000
  Fe  Fe38      1.0  0.12564  0.74011  0.35437  1.0000
  S   S78       1.0  0.13895  0.78062  0.34053  1.0000
  Fe  Fe39      1.0  0.07832  0.70667  0.36873  1.0000
  S   S79       1.0  0.03636  0.69593  0.37247  1.0000
  S   S80       1.0  0.15260  0.70740  0.36374  1.0000
  H   H370      1.0  0.25948  0.81051  0.48483  1.0000
  C   C216      1.0  0.12868  0.70260  0.48872  1.0000
  H   H371      1.0  0.19742  0.84690  0.48286  1.0000
  H   H372      1.0  0.27047  0.97063  0.47051  1.0000
  C   C217      1.0  0.42578  0.80095  0.14844  1.0000
  C   C218      1.0  0.30662  0.88590  0.49263  1.0000
  C   C219      1.0  0.11524  0.73422  0.23727  1.0000
  S   S81       1.0  0.50559  0.94306  0.16062  1.0000
  C   C220      1.0  0.16371  0.71709  0.27048  1.0000
  H   H373      1.0  0.02680  0.75147  0.36874  1.0000
  H   H374      1.0  0.17885  0.78241  0.45955  1.0000
  C   C221      1.0  0.21970  0.81533  0.34412  1.0000
  C   C222      1.0  0.19817  0.83094  0.33950  1.0000
  C   C223      1.0  0.17353  0.82012  0.33964  1.0000
  C   C224      1.0  0.17001  0.79372  0.34514  1.0000
  C   C225      1.0  0.19146  0.77833  0.35147  1.0000
  C   C226      1.0  0.21615  0.78903  0.35041  1.0000
  H   H375      1.0  0.20056  0.85118  0.33453  1.0000
  H   H376      1.0  0.15711  0.83223  0.33471  1.0000
  H   H377      1.0  0.18913  0.75802  0.35588  1.0000
  H   H378      1.0  0.23264  0.77677  0.35412  1.0000
  C   C227      1.0  0.33570  0.97571  0.32530  1.0000
  S   S82       1.0  0.46664  0.93233  0.22221  1.0000
  H   H379      1.0  0.42083  0.81744  0.16334  1.0000
  H   H380      1.0  0.30755  0.93899  0.22582  1.0000
  H   H381      1.0  0.31639  0.88796  0.46950  1.0000
  H   H382      1.0  0.44111  0.81186  0.04731  1.0000
  H   H383      1.0  0.26540  0.78905  0.43368  1.0000
  H   H384      1.0  0.26677  0.97203  0.38609  1.0000
  H   H385      1.0  0.17841  0.75808  0.29424  1.0000
  C   C228      1.0  0.17984  0.76075  0.26746  1.0000
  N   N16       1.0  0.16246  0.74216  0.25137  1.0000
  H   H386      1.0  0.20168  0.70264  0.25501  1.0000
  C   C229      1.0  0.08906  0.71602  0.51420  1.0000
  C   C230      1.0  0.40761  0.87896  0.25441  1.0000
  C   C231      1.0  0.41588  0.89799  0.27479  1.0000
  C   C232      1.0  0.40175  0.90369  0.30283  1.0000
  C   C233      1.0  0.37868  0.89115  0.31023  1.0000
  C   C234      1.0  0.36976  0.87293  0.28910  1.0000
  C   C235      1.0  0.38440  0.86659  0.26159  1.0000
  H   H387      1.0  0.43364  0.90766  0.26961  1.0000
  H   H388      1.0  0.40876  0.91783  0.31902  1.0000
  H   H389      1.0  0.35208  0.86304  0.29461  1.0000
  H   H390      1.0  0.37781  0.85180  0.24606  1.0000
  C   C236      1.0  0.47362  0.90045  0.04838  1.0000
  C   C237      1.0  0.18611  0.80134  0.45091  1.0000
  C   C238      1.0  0.44794  0.85522  0.34722  1.0000
  H   H391      1.0  0.22646  0.83096  0.40490  1.0000
  H   H392      1.0  0.18874  0.68757  0.29072  1.0000
  H   H393      1.0  0.45250  0.86249  0.29585  1.0000
  Fe  Fe40      1.0  0.12510  0.68366  0.33561  1.0000
  C   C239      1.0  0.43630  0.80747  0.11397  1.0000
  C   C240      1.0  0.35588  0.96577  0.30124  1.0000
  N   N17       1.0  0.44912  0.83304  0.10885  1.0000
  C   C241      1.0  0.49943  0.87593  0.28424  1.0000
  C   C242      1.0  0.46786  0.96890  0.03673  1.0000
  H   H394      1.0  0.36509  0.94858  0.31278  1.0000
  H   H395      1.0  0.36212  0.95196  0.22064  1.0000
  H   H396      1.0  0.45000  0.79180  0.10841  1.0000
  H   H397      1.0  0.48535  0.88438  0.26680  1.0000
  H   H398      1.0  0.47308  0.85991  0.13275  1.0000
  H   H399      1.0  0.17502  0.79503  0.23483  1.0000
  C   C243      1.0  0.16880  0.75939  0.19200  1.0000
  Fe  Fe41      1.0  0.49306  0.90546  0.14163  1.0000
  H   H400      1.0  0.16594  0.75139  0.16771  1.0000
  H   H401      1.0  0.49743  0.94537  0.01824  1.0000
  H   H402      1.0  0.20119  0.87611  0.43861  1.0000
  N   N18       1.0  0.22799  0.82721  0.45722  1.0000
  C   C244      1.0  0.25618  0.82267  0.46270  1.0000
  H   H403      1.0  0.06869  0.71937  0.51279  1.0000
  C   C245      1.0  0.40938  0.85888  0.12739  1.0000
  H   H404      1.0  0.43184  0.84206  0.34286  1.0000
  C   C246      1.0  0.27085  0.80938  0.43522  1.0000
  H   H405      1.0  0.45451  0.95384  0.02928  1.0000
  H   H406      1.0  0.47742  0.90118  0.35486  1.0000
  H   H407      1.0  0.47899  0.84912  0.07778  1.0000
  H   H408      1.0  0.39150  0.98620  0.24539  1.0000
  C   C247      1.0  0.21783  0.84170  0.48565  1.0000
  H   H409      1.0  0.11379  0.71524  0.24981  1.0000
  S   S83       1.0  0.49806  0.88463  0.19019  1.0000
  C   C248      1.0  0.42980  0.85382  0.10127  1.0000
  C   C249      1.0  0.48733  0.82255  0.14612  1.0000
  H   H410      1.0  0.22264  0.79212  0.43203  1.0000
  H   H411      1.0  0.28791  0.99810  0.48315  1.0000
  C   C250      1.0  0.46484  0.84058  0.13741  1.0000
  H   H412      1.0  0.49791  0.86317  0.36719  1.0000
  C   C251      1.0  0.39348  0.96529  0.24862  1.0000
  H   H413      1.0  0.46099  0.90540  0.06807  1.0000
  H   H414      1.0  0.49302  0.83757  0.26515  1.0000
  C   C252      1.0  0.22525  0.84318  0.42630  1.0000
  H   H415      1.0  0.26832  0.81911  0.41126  1.0000
  C   C253      1.0  0.20082  0.85959  0.42242  1.0000
  H   H416      1.0  0.43913  0.87386  0.35300  1.0000
  H   H417      1.0  0.47069  0.96674  0.06333  1.0000
  H   H418      1.0  0.41876  0.84956  0.07925  1.0000
  H   H419      1.0  0.32094  0.96126  0.33121  1.0000
  C   C254      1.0  0.32793  0.93747  0.27264  1.0000
  H   H420      1.0  0.45835  0.84735  0.36857  1.0000
  H   H421      1.0  0.33677  0.92184  0.28770  1.0000
  H   H422      1.0  0.31042  0.94326  0.28604  1.0000
  H   H423      1.0  0.30519  0.90952  0.24815  1.0000
  C   C255      1.0  0.31848  0.92529  0.24136  1.0000
  H   H424      1.0  0.18309  0.84863  0.42657  1.0000
  H   H425      1.0  0.26602  0.84109  0.46686  1.0000
  C   C256      1.0  0.47852  0.90026  0.32796  1.0000
  H   H426      1.0  0.22095  0.78796  0.47408  1.0000
  C   C257      1.0  0.28029  0.89025  0.49467  1.0000
  H   H427      1.0  0.45881  0.98786  0.03324  1.0000
  N   N19       1.0  0.34613  0.95959  0.26813  1.0000
  H   H428      1.0  0.33428  0.91662  0.22731  1.0000
  H   H429      1.0  0.16176  0.72021  0.20748  1.0000
  C   C258      1.0  0.17130  0.73724  0.21728  1.0000
  H   H430      1.0  0.18039  0.80448  0.42522  1.0000
  H   H431      1.0  0.40641  0.95878  0.22896  1.0000
  H   H432      1.0  0.09240  0.70441  0.46465  1.0000
  C   C259      1.0  0.26732  0.99035  0.37328  1.0000
  C   C260      1.0  0.17502  0.78952  0.26081  1.0000
  H   H433      1.0  0.41761  0.86356  0.15102  1.0000
  H   H434      1.0  0.32581  0.97682  0.22755  1.0000
  H   H435      1.0  0.25834  0.98830  0.50269  1.0000
  H   H436      1.0  0.40797  0.78972  0.14634  1.0000
  H   H437      1.0  0.45047  0.98358  0.22868  1.0000
  H   H438      1.0  0.20175  0.71866  0.29344  1.0000
  H   H439      1.0  0.18642  0.77111  0.19107  1.0000
  H   H440      1.0  0.19185  0.73176  0.21705  1.0000
  C   C261      1.0  0.13514  0.75144  0.25294  1.0000
  C   C262      1.0  0.21542  0.80159  0.45410  1.0000
  H   H441      1.0  0.28673  0.94360  0.50994  1.0000
  C   C263      1.0  0.27640  0.98148  0.49187  1.0000
  H   H442      1.0  0.29161  0.80969  0.44051  1.0000
  H   H443      1.0  0.45321  0.84262  0.15972  1.0000
  C   C264      1.0  0.29216  0.96368  0.51458  1.0000
  C   C265      1.0  0.19071  0.70626  0.27747  1.0000
  H   H444      1.0  0.42030  0.80558  0.09663  1.0000
  C   C266      1.0  0.46720  0.83159  0.08015  1.0000
  C   C267      1.0  0.46505  0.85676  0.31651  1.0000
  H   H445      1.0  0.31210  0.96479  0.50513  1.0000
  H   H446      1.0  0.15696  0.79592  0.27241  1.0000
  H   H447      1.0  0.19055  0.80041  0.27216  1.0000
  C   C268      1.0  0.10247  0.70762  0.48689  1.0000
  H   H448      1.0  0.15339  0.70183  0.25793  1.0000
  C   C269      1.0  0.50626  0.86289  0.34235  1.0000
  H   H449      1.0  0.12922  0.75396  0.27866  1.0000
  H   H450      1.0  0.15205  0.77188  0.19577  1.0000
  H   H451      1.0  0.15396  0.71880  0.29438  1.0000
  C   C270      1.0  0.26642  0.99154  0.33945  1.0000
  C   C271      1.0  0.33153  0.98155  0.25250  1.0000
  C   C272      1.0  0.36788  0.95103  0.24655  1.0000
  H   H452      1.0  0.39781  0.87577  0.11949  1.0000
  H   H453      1.0  0.17614  0.81518  0.46626  1.0000
  C   C273      1.0  0.00901  0.74155  0.36535  1.0000
  H   H454      1.0  0.20021  0.75691  0.26114  1.0000
  H   H455      1.0  0.43926  0.78821  0.16199  1.0000
  H   H456      1.0  0.11916  0.73188  0.21111  1.0000
  H   H457      1.0  0.22781  0.86034  0.48697  1.0000
  C   C274      1.0  0.49921  0.89444  0.05469  1.0000
  H   H458      1.0  0.39590  0.84271  0.13022  1.0000
  H   H459      1.0  0.20009  0.86759  0.39721  1.0000
  H   H460      1.0  0.48113  0.81562  0.08361  1.0000
  C   C275      1.0  0.00885  0.71484  0.36511  1.0000
  H   H461      1.0  0.01819  0.71914  0.45121  1.0000
  H   H462      1.0  0.37115  0.98027  0.30007  1.0000
  H   H463      1.0  0.48971  0.92764  0.28911  1.0000
  H   H464      1.0  0.24136  0.85688  0.42336  1.0000
  H   H465      1.0  0.09610  0.74334  0.23941  1.0000
  H   H466      1.0  0.47111  0.83678  0.31196  1.0000
  C   C276      1.0  0.49394  0.96626  0.01947  1.0000
  N   N20       1.0  0.48786  0.87423  0.31784  1.0000
  S   S84       1.0  0.14530  0.68978  0.45569  1.0000
  H   H467      1.0  0.48179  0.80218  0.14675  1.0000
  H   H468      1.0  0.31284  0.98477  0.26500  1.0000
  H   H469      1.0  0.45866  0.90391  0.31949  1.0000
  H   H470      1.0  0.40327  0.96052  0.27179  1.0000
  H   H471      1.0  0.49448  0.82704  0.17052  1.0000
  H   H472      1.0  0.34515  0.97987  0.34850  1.0000
  C   C277      1.0  0.49350  0.92387  0.31521  1.0000
  C   C278      1.0  0.45492  0.82780  0.04682  1.0000
  H   H473      1.0  0.48681  0.94098  0.32812  1.0000
  H   H474      1.0  0.32642  0.99364  0.31641  1.0000
  C   C279      1.0  0.45489  0.00261  0.21976  1.0000
  H   H475      1.0  0.44567  0.84564  0.03742  1.0000
  H   H476      1.0  0.47019  0.82324  0.02899  1.0000
  H   H477      1.0  0.50357  0.82556  0.12893  1.0000
  Fe  Fe42      1.0  0.48627  0.90060  0.90249  1.0000
  H   H478      1.0  0.31230  0.99278  0.58281  1.0000
  Fe  Fe43      1.0  0.47074  0.91845  0.83330  1.0000
  C   C280      1.0  0.49266  0.83650  0.78876  1.0000
  S   S85       1.0  0.44358  0.92761  0.79163  1.0000
  H   H479      1.0  0.34499  0.96108  0.56469  1.0000
  S   S86       1.0  0.46720  0.89038  0.95129  1.0000
  S   S87       1.0  0.48334  0.88044  0.85470  1.0000
  S   S88       1.0  0.47065  0.93747  0.88128  1.0000
  Fe  Fe44      1.0  0.30824  0.88668  0.63313  1.0000
  S   S89       1.0  0.27215  0.90976  0.63395  1.0000
  S   S90       1.0  0.32605  0.87283  0.58664  1.0000
  Fe  Fe45      1.0  0.31606  0.89076  0.70623  1.0000
  S   S91       1.0  0.28024  0.91446  0.71204  1.0000
  S   S92       1.0  0.33864  0.87680  0.75056  1.0000
  Fe  Fe46      1.0  0.26222  0.88637  0.67878  1.0000
  S   S93       1.0  0.22148  0.87247  0.68777  1.0000
  Fe  Fe47      1.0  0.29331  0.93560  0.66667  1.0000
  S   S94       1.0  0.29436  0.97738  0.65025  1.0000
  S   S95       1.0  0.29705  0.86138  0.67580  1.0000
  S   S96       1.0  0.33035  0.91381  0.66308  1.0000
  Fe  Fe48      1.0  0.14129  0.74235  0.67736  1.0000
  S   S97       1.0  0.13802  0.70853  0.64500  1.0000
  S   S98       1.0  0.18196  0.75771  0.68079  1.0000
  Fe  Fe49      1.0  0.08458  0.74054  0.69501  1.0000
  S   S99       1.0  0.07770  0.70705  0.66461  1.0000
  S   S100      1.0  0.05021  0.75935  0.71820  1.0000
  Fe  Fe50      1.0  0.11406  0.69076  0.68498  1.0000
  Fe  Fe51      1.0  0.10198  0.72718  0.62723  1.0000
  C   C281      1.0  0.45284  0.97329  0.95808  1.0000
  S   S101      1.0  0.11946  0.72302  0.71897  1.0000
  S   S102      1.0  0.10671  0.76230  0.65623  1.0000
  H   H480      1.0  0.01328  0.74906  0.52742  1.0000
  C   C282      1.0  0.43830  0.84881  0.74155  1.0000
  H   H481      1.0  0.48121  0.94420  0.96677  1.0000
  C   C283      1.0  0.50626  0.88860  0.99657  1.0000
  C   C284      1.0  0.10180  0.71958  0.54340  1.0000
  C   C285      1.0  0.12814  0.71522  0.54506  1.0000
  H   H482      1.0  0.05511  0.78540  0.62475  1.0000
  H   H483      1.0  0.21113  0.80897  0.51988  1.0000
  C   C286      1.0  0.21056  0.84075  0.68318  1.0000
  C   C287      1.0  0.22731  0.82071  0.67626  1.0000
  C   C288      1.0  0.21816  0.79548  0.67524  1.0000
  C   C289      1.0  0.19211  0.79004  0.68049  1.0000
  C   C290      1.0  0.17528  0.81017  0.68673  1.0000
  C   C291      1.0  0.18451  0.83534  0.68828  1.0000
  H   H484      1.0  0.24735  0.82458  0.67205  1.0000
  H   H485      1.0  0.23132  0.78005  0.67034  1.0000
  H   H486      1.0  0.15523  0.80629  0.69096  1.0000
  H   H487      1.0  0.17139  0.85070  0.69372  1.0000
  H   H488      1.0  0.48958  0.96779  0.93693  1.0000
  H   H489      1.0  0.45630  0.87421  0.77438  1.0000
  H   H490      1.0  0.02297  0.70751  0.64461  1.0000
  H   H491      1.0  0.27829  0.98510  0.71787  1.0000
  H   H492      1.0  0.50524  0.85003  0.80102  1.0000
  H   H493      1.0  0.44310  0.95954  0.94247  1.0000
  H   H494      1.0  0.26487  0.97201  0.59054  1.0000
  C   C292      1.0  0.28596  0.00463  0.67219  1.0000
  H   H495      1.0  0.47757  0.98820  0.86658  1.0000
  C   C293      1.0  0.26448  0.96986  0.56377  1.0000
  C   C294      1.0  0.41418  0.91334  0.78142  1.0000
  C   C295      1.0  0.40159  0.92229  0.75332  1.0000
  C   C296      1.0  0.37848  0.91135  0.74368  1.0000
  C   C297      1.0  0.36767  0.89122  0.76203  1.0000
  C   C298      1.0  0.38031  0.88216  0.79010  1.0000
  C   C299      1.0  0.40347  0.89315  0.79979  1.0000
  H   H496      1.0  0.40974  0.93784  0.73889  1.0000
  H   H497      1.0  0.36901  0.91850  0.72203  1.0000
  H   H498      1.0  0.37211  0.86661  0.80447  1.0000
  H   H499      1.0  0.41296  0.88603  0.82143  1.0000
  C   C300      1.0  0.28155  0.88098  0.55280  1.0000
  C   C301      1.0  0.30804  0.87776  0.55113  1.0000
  H   H500      1.0  0.47681  0.88189  0.69016  1.0000
  H   H501      1.0  0.27172  0.87895  0.57586  1.0000
  C   C302      1.0  0.03478  0.78496  0.61726  1.0000
  H   H502      1.0  0.44989  0.88769  0.73562  1.0000
  C   C303      1.0  0.48042  0.89343  0.99046  1.0000
  H   H503      1.0  0.01607  0.72302  0.55579  1.0000
  H   H504      1.0  0.44418  0.90324  0.01206  1.0000
  N   N21       1.0  0.49681  0.97877  0.98625  1.0000
  H   H505      1.0  0.06722  0.69846  0.75921  1.0000
  C   C304      1.0  0.30504  0.94726  0.56793  1.0000
  S   S103      1.0  0.08376  0.72746  0.57785  1.0000
  H   H506      1.0  0.48463  0.82378  0.74057  1.0000
  H   H507      1.0  0.41907  0.85498  0.75000  1.0000
  H   H508      1.0  0.29607  0.92876  0.56305  1.0000
  H   H509      1.0  0.03425  0.79116  0.59139  1.0000
  H   H510      1.0  0.49775  0.88869  0.77658  1.0000
  H   H511      1.0  0.30352  0.94927  0.59460  1.0000
  N   N22       1.0  0.48483  0.86525  0.73781  1.0000
  C   C305      1.0  0.48107  0.96516  0.96166  1.0000
  C   C306      1.0  0.02466  0.75762  0.62308  1.0000
  C   C307      1.0  0.50122  0.88630  0.75021  1.0000
  H   H512      1.0  0.03638  0.75087  0.55841  1.0000
  H   H513      1.0  0.22802  0.95029  0.56651  1.0000
  C   C308      1.0  0.02021  0.74429  0.71590  1.0000
  H   H514      1.0  0.44234  0.97327  0.98137  1.0000
  H   H515      1.0  0.32688  0.00009  0.75512  1.0000
  H   H516      1.0  0.24576  0.94346  0.53064  1.0000
  C   C309      1.0  0.26778  0.88745  0.52471  1.0000
  H   H517      1.0  0.44286  0.83079  0.75510  1.0000
  C   C310      1.0  0.32048  0.87969  0.52088  1.0000
  H   H518      1.0  0.04705  0.69231  0.79356  1.0000
  H   H519      1.0  0.35885  0.00530  0.74182  1.0000
  C   C311      1.0  0.49452  0.84007  0.75162  1.0000
  H   H520      1.0  0.32276  0.99529  0.54177  1.0000
  C   C312      1.0  0.49731  0.91295  0.73384  1.0000
  N   N23       1.0  0.26727  0.82645  0.77406  1.0000
  C   C313      1.0  0.27504  0.80699  0.74944  1.0000
  C   C314      1.0  0.24198  0.81781  0.78830  1.0000
  C   C315      1.0  0.28727  0.82606  0.80016  1.0000
  C   C316      1.0  0.26582  0.85234  0.75705  1.0000
  C   C317      1.0  0.30278  0.80858  0.73648  1.0000
  C   C318      1.0  0.21971  0.81697  0.76417  1.0000
  C   C319      1.0  0.28287  0.84380  0.82872  1.0000
  C   C320      1.0  0.25043  0.87357  0.77403  1.0000
  H   H521      1.0  0.27249  0.78715  0.75948  1.0000
  H   H522      1.0  0.26253  0.80842  0.72781  1.0000
  H   H523      1.0  0.23537  0.82972  0.80834  1.0000
  H   H524      1.0  0.24391  0.79834  0.79974  1.0000
  H   H525      1.0  0.28975  0.80628  0.81045  1.0000
  H   H526      1.0  0.30621  0.83186  0.78995  1.0000
  H   H527      1.0  0.28533  0.85988  0.75217  1.0000
  H   H528      1.0  0.25732  0.85066  0.73263  1.0000
  H   H529      1.0  0.31637  0.79996  0.75425  1.0000
  H   H530      1.0  0.30453  0.79755  0.71402  1.0000
  H   H531      1.0  0.30872  0.82840  0.73045  1.0000
  H   H532      1.0  0.21663  0.83562  0.75137  1.0000
  H   H533      1.0  0.22248  0.80184  0.74628  1.0000
  H   H534      1.0  0.20175  0.81233  0.77756  1.0000
  H   H535      1.0  0.26473  0.84010  0.84195  1.0000
  H   H536      1.0  0.28432  0.86417  0.82082  1.0000
  H   H537      1.0  0.29843  0.84042  0.84649  1.0000
  H   H538      1.0  0.26260  0.89072  0.77608  1.0000
  H   H539      1.0  0.24329  0.86877  0.79862  1.0000
  H   H540      1.0  0.23387  0.87965  0.75893  1.0000
  H   H541      1.0  0.47721  0.91957  0.73526  1.0000
  H   H542      1.0  0.47483  0.84826  0.69255  1.0000
  H   H543      1.0  0.08168  0.69136  0.79719  1.0000
  C   C321      1.0  0.01690  0.74404  0.55332  1.0000
  C   C322      1.0  0.45755  0.87017  0.74810  1.0000
  C   C323      1.0  0.06524  0.68655  0.78186  1.0000
  H   H544      1.0  0.03555  0.70626  0.71282  1.0000
  H   H545      1.0  0.02530  0.75351  0.64968  1.0000
  H   H546      1.0  0.03916  0.74471  0.61256  1.0000
  H   H547      1.0  0.47284  0.83827  0.79812  1.0000
  H   H548      1.0  0.34148  0.92815  0.57561  1.0000
  C   C324      1.0  0.49005  0.00681  0.98575  1.0000
  H   H549      1.0  0.34096  0.87702  0.51943  1.0000
  C   C325      1.0  0.33369  0.94385  0.55980  1.0000
  H   H550      1.0  0.20985  0.83964  0.53739  1.0000
  C   C326      1.0  0.48601  0.86458  0.70137  1.0000
  C   C327      1.0  0.01841  0.71784  0.71317  1.0000
  C   C328      1.0  0.30535  0.99330  0.55732  1.0000
  H   H551      1.0  0.13813  0.71831  0.56738  1.0000
  H   H552      1.0  0.43654  0.84524  0.71538  1.0000
  N   N24       1.0  0.29137  0.96894  0.55028  1.0000
  H   H553      1.0  0.02449  0.79886  0.63242  1.0000
  H   H554      1.0  0.45119  0.99235  0.94569  1.0000
  C   C329      1.0  0.22008  0.82809  0.51919  1.0000
  H   H555      1.0  0.33674  0.93797  0.53449  1.0000
  C   C330      1.0  0.24756  0.94668  0.55692  1.0000
  H   H556      1.0  0.24738  0.89066  0.52644  1.0000
  H   H557      1.0  0.24020  0.82671  0.52732  1.0000
  H   H558      1.0  0.16186  0.70298  0.51917  1.0000
  H   H559      1.0  0.49952  0.81703  0.79583  1.0000
  C   C331      1.0  0.14153  0.70660  0.51778  1.0000
  H   H560      1.0  0.02418  0.70422  0.60144  1.0000
  H   H561      1.0  0.50381  0.91359  0.70823  1.0000
  H   H562      1.0  0.25372  0.98678  0.55456  1.0000
  H   H563      1.0  0.25443  0.92903  0.56952  1.0000
  C   C332      1.0  0.01130  0.70479  0.62273  1.0000
  H   H564      1.0  0.50671  0.99993  0.80560  1.0000
  C   C333      1.0  0.27906  0.00341  0.70505  1.0000
  C   C334      1.0  0.48339  0.00491  0.87902  1.0000
  C   C335      1.0  0.46419  0.89942  0.01655  1.0000
  H   H565      1.0  0.14196  0.67430  0.59082  1.0000
  H   H566      1.0  0.95785  0.31211  0.35648  1.0000
  S   S104      1.0  0.55768  0.16739  0.22463  1.0000
  H   H567      1.0  0.56273  0.21813  0.13423  1.0000
  Fe  Fe52      1.0  0.71163  0.10602  0.39005  1.0000
  S   S105      1.0  0.67165  0.11408  0.40632  1.0000
  S   S106      1.0  0.72879  0.06786  0.40580  1.0000
  Fe  Fe53      1.0  0.71809  0.15959  0.35983  1.0000
  S   S107      1.0  0.67797  0.17143  0.37330  1.0000
  S   S108      1.0  0.74525  0.18620  0.33147  1.0000
  Fe  Fe54      1.0  0.68657  0.15169  0.42115  1.0000
  S   S109      1.0  0.67332  0.16902  0.46773  1.0000
  Fe  Fe55      1.0  0.66601  0.13271  0.35703  1.0000
  S   S110      1.0  0.62745  0.12049  0.33759  1.0000
  S   S111      1.0  0.72734  0.14254  0.40899  1.0000
  S   S112      1.0  0.70547  0.12196  0.33953  1.0000
  Fe  Fe56      1.0  0.83920  0.30219  0.37755  1.0000
  C   C336      1.0  0.54828  0.04944  0.22655  1.0000
  S   S113      1.0  0.80402  0.27917  0.39319  1.0000
  Fe  Fe57      1.0  0.89364  0.30492  0.35049  1.0000
  S   S114      1.0  0.92076  0.28141  0.32064  1.0000
  H   H568      1.0  0.73925  0.01461  0.41714  1.0000
  H   H569      1.0  0.55519  0.19589  0.46736  1.0000
  S   S115      1.0  0.87680  0.28676  0.39561  1.0000
  S   S116      1.0  0.85556  0.31792  0.33019  1.0000
  H   H570      1.0  0.61002  0.20479  0.11684  1.0000
  H   H571      1.0  0.55235  0.08925  0.23868  1.0000
  H   H572      1.0  0.70471  0.03381  0.45245  1.0000
  H   H573      1.0  0.68746  0.02327  0.31762  1.0000
  C   C337      1.0  0.95446  0.28160  0.32308  1.0000
  C   C338      1.0  0.96789  0.26419  0.30433  1.0000
  H   H574      1.0  0.93361  0.28228  0.44837  1.0000
  C   C339      1.0  0.55780  0.12960  0.11605  1.0000
  C   C340      1.0  0.96812  0.29828  0.34241  1.0000
  H   H575      1.0  0.95759  0.25136  0.28920  1.0000
  C   C341      1.0  0.76070  0.21251  0.34882  1.0000
  C   C342      1.0  0.75996  0.21635  0.38217  1.0000
  C   C343      1.0  0.77304  0.23706  0.39517  1.0000
  C   C344      1.0  0.78708  0.25413  0.37508  1.0000
  C   C345      1.0  0.78744  0.25058  0.34164  1.0000
  C   C346      1.0  0.77446  0.22978  0.32864  1.0000
  H   H576      1.0  0.74938  0.20329  0.39799  1.0000
  H   H577      1.0  0.77240  0.23974  0.42103  1.0000
  H   H578      1.0  0.79735  0.26406  0.32577  1.0000
  H   H579      1.0  0.77482  0.22718  0.30276  1.0000
  H   H580      1.0  0.54251  0.11499  0.11623  1.0000
  C   C347      1.0  0.56017  0.07043  0.24694  1.0000
  H   H581      1.0  0.99740  0.30783  0.21590  1.0000
  C   C348      1.0  0.96535  0.30801  0.43436  1.0000
  H   H582      1.0  0.69474  0.11826  0.47838  1.0000
  H   H583      1.0  0.52723  0.21839  0.09714  1.0000
  C   C349      1.0  0.57694  0.15466  0.25639  1.0000
  C   C350      1.0  0.56814  0.13488  0.27700  1.0000
  C   C351      1.0  0.58396  0.12468  0.30160  1.0000
  C   C352      1.0  0.60865  0.13425  0.30609  1.0000
  C   C353      1.0  0.61739  0.15427  0.28577  1.0000
  C   C354      1.0  0.60159  0.16438  0.26094  1.0000
  H   H584      1.0  0.54912  0.12745  0.27400  1.0000
  H   H585      1.0  0.57701  0.10928  0.31730  1.0000
  H   H586      1.0  0.63636  0.16181  0.28901  1.0000
  H   H587      1.0  0.60853  0.17975  0.24518  1.0000
  H   H588      1.0  0.95925  0.26670  0.42659  1.0000
  C   C355      1.0  0.71986  0.04085  0.38436  1.0000
  C   C356      1.0  0.70504  0.04318  0.35644  1.0000
  Fe  Fe58      1.0  0.88227  0.32493  0.41707  1.0000
  H   H589      1.0  0.69911  0.06188  0.34740  1.0000
  C   C357      1.0  0.54633  0.15518  0.12690  1.0000
  C   C358      1.0  0.52464  0.20988  0.12187  1.0000
  N   N25       1.0  0.98257  0.30604  0.46338  1.0000
  N   N26       1.0  0.86022  0.21257  0.34289  1.0000
  C   C359      1.0  0.84788  0.22237  0.31190  1.0000
  C   C360      1.0  0.86057  0.18381  0.34213  1.0000
  C   C361      1.0  0.88711  0.22289  0.34349  1.0000
  C   C362      1.0  0.84451  0.22206  0.37087  1.0000
  C   C363      1.0  0.85023  0.25135  0.30425  1.0000
  C   C364      1.0  0.83415  0.17088  0.34135  1.0000
  C   C365      1.0  0.90682  0.20828  0.36464  1.0000
  C   C366      1.0  0.85234  0.21318  0.40527  1.0000
  H   H590      1.0  0.85606  0.21255  0.29057  1.0000
  H   H591      1.0  0.82708  0.21815  0.31201  1.0000
  H   H592      1.0  0.87061  0.17505  0.36323  1.0000
  H   H593      1.0  0.87169  0.17748  0.32063  1.0000
  H   H594      1.0  0.89570  0.22346  0.31865  1.0000
  H   H595      1.0  0.88693  0.24304  0.35128  1.0000
  H   H596      1.0  0.84467  0.24323  0.37108  1.0000
  H   H597      1.0  0.82396  0.21757  0.36809  1.0000
  H   H598      1.0  0.87015  0.25698  0.29819  1.0000
  H   H599      1.0  0.83851  0.25644  0.28268  1.0000
  H   H600      1.0  0.84303  0.26302  0.32425  1.0000
  H   H601      1.0  0.82332  0.17617  0.31916  1.0000
  H   H602      1.0  0.83689  0.14983  0.34130  1.0000
  H   H603      1.0  0.82238  0.17499  0.36307  1.0000
  H   H604      1.0  0.92474  0.21957  0.36474  1.0000
  H   H605      1.0  0.91181  0.18958  0.35431  1.0000
  H   H606      1.0  0.90064  0.20554  0.39012  1.0000
  H   H607      1.0  0.86691  0.22611  0.41506  1.0000
  H   H608      1.0  0.85913  0.19320  0.40701  1.0000
  H   H609      1.0  0.83519  0.21368  0.42134  1.0000
  H   H610      1.0  0.60094  0.22238  0.45778  1.0000
  H   H611      1.0  0.60551  0.12399  0.40273  1.0000
  H   H612      1.0  0.51015  0.19461  0.12190  1.0000
  H   H613      1.0  0.54974  0.19307  0.04075  1.0000
  C   C367      1.0  0.96620  0.30401  0.49361  1.0000
  C   C368      1.0  0.67882  0.15026  0.50319  1.0000
  H   H614      1.0  0.63472  0.15647  0.41976  1.0000
  H   H615      1.0  0.63293  0.23117  0.44779  1.0000
  H   H616      1.0  0.84453  0.32806  0.47302  1.0000
  H   H617      1.0  0.69919  0.04066  0.49301  1.0000
  C   C369      1.0  0.69742  0.02515  0.47561  1.0000
  H   H618      1.0  0.95552  0.28572  0.49459  1.0000
  H   H619      1.0  0.67701  0.07348  0.46842  1.0000
  H   H620      1.0  0.55929  0.16245  0.46523  1.0000
  H   H621      1.0  0.98869  0.26501  0.46771  1.0000
  H   H622      1.0  0.52946  0.01054  0.31434  1.0000
  C   C370      1.0  0.59020  0.19481  0.35255  1.0000
  H   H623      1.0  0.51873  0.02784  0.18346  1.0000
  C   C371      1.0  0.69837  0.02130  0.33969  1.0000
  C   C372      1.0  0.85279  0.32984  0.49670  1.0000
  H   H624      1.0  0.00575  0.31001  0.35776  1.0000
  H   H625      1.0  0.93767  0.28786  0.40592  1.0000
  H   H626      1.0  0.55622  0.02891  0.30309  1.0000
  C   C373      1.0  0.58768  0.17295  0.13932  1.0000
  H   H627      1.0  0.00459  0.24959  0.28998  1.0000
  H   H628      1.0  0.60899  0.22038  0.39985  1.0000
  H   H629      1.0  0.63688  0.20123  0.40528  1.0000
  H   H630      1.0  0.61736  0.16196  0.45520  1.0000
  H   H631      1.0  0.57589  0.20364  0.08213  1.0000
  H   H632      1.0  0.64351  0.07898  0.47044  1.0000
  H   H633      1.0  0.59857  0.15709  0.12824  1.0000
  C   C374      1.0  0.56935  0.18358  0.08598  1.0000
  H   H634      1.0  0.95113  0.31910  0.49351  1.0000
  N   N27       1.0  0.56307  0.17825  0.12134  1.0000
  H   H635      1.0  0.58564  0.17128  0.07837  1.0000
  C   C375      1.0  0.54792  0.17894  0.06127  1.0000
  H   H636      1.0  0.52829  0.18093  0.07070  1.0000
  C   C376      1.0  0.60128  0.17414  0.37604  1.0000
  H   H637      1.0  0.58118  0.07149  0.24327  1.0000
  H   H638      1.0  0.58370  0.16636  0.16477  1.0000
  H   H639      1.0  0.95200  0.32450  0.43627  1.0000
  C   C377      1.0  0.99518  0.29714  0.34303  1.0000
  C   C378      1.0  0.53658  0.02452  0.29563  1.0000
  H   H640      1.0  0.56146  0.17078  0.41092  1.0000
  C   C379      1.0  0.61710  0.20431  0.41469  1.0000
  H   H641      1.0  0.59992  0.20964  0.15850  1.0000
  H   H642      1.0  0.62520  0.18803  0.14991  1.0000
  H   H643      1.0  0.57258  0.12244  0.13322  1.0000
  C   C380      1.0  0.55034  0.20101  0.13634  1.0000
  S   S117      1.0  0.90003  0.32859  0.46628  1.0000
  H   H644      1.0  0.60372  0.21083  0.34841  1.0000
  C   C381      1.0  0.68940  0.12574  0.50161  1.0000
  H   H645      1.0  0.97662  0.31197  0.41182  1.0000
  H   H646      1.0  0.65887  0.06362  0.50421  1.0000
  H   H647      1.0  0.54719  0.19725  0.16283  1.0000
  H   H648      1.0  0.63298  0.03502  0.46567  1.0000
  C   C382      1.0  0.99458  0.26316  0.30480  1.0000
  H   H649      1.0  0.62757  0.20082  0.46664  1.0000
  N   N28       1.0  0.55377  0.02191  0.23656  1.0000
  C   C383      1.0  0.56895  0.18093  0.45979  1.0000
  H   H650      1.0  0.54149  0.15276  0.15314  1.0000
  H   H651      1.0  0.52763  0.15740  0.11493  1.0000
  H   H652      1.0  0.58736  0.18632  0.32854  1.0000
  C   C384      1.0  0.60653  0.19539  0.14088  1.0000
  C   C385      1.0  0.87935  0.32930  0.50023  1.0000
  H   H653      1.0  0.61111  0.11871  0.44480  1.0000
  C   C386      1.0  0.94824  0.28466  0.42891  1.0000
  H   H654      1.0  0.58992  0.15665  0.37209  1.0000
  H   H655      1.0  0.51515  0.01619  0.25397  1.0000
  H   H656      1.0  0.59441  0.02425  0.22681  1.0000
  H   H657      1.0  0.58605  0.03181  0.26675  1.0000
  H   H658      1.0  0.55565  0.06830  0.27305  1.0000
  H   H659      1.0  0.55021  0.15998  0.05025  1.0000
  H   H660      1.0  0.65563  0.04362  0.43492  1.0000
  H   H661      1.0  0.58570  0.18247  0.47562  1.0000
  H   H662      1.0  0.56747  0.20381  0.41530  1.0000
  H   H663      1.0  0.62096  0.16973  0.36724  1.0000
  H   H664      1.0  0.57134  0.20208  0.36054  1.0000
  C   C387      1.0  0.65356  0.03939  0.46150  1.0000
  H   H665      1.0  0.58139  0.13272  0.43208  1.0000
  N   N29       1.0  0.67012  0.01680  0.47167  1.0000
  H   H666      1.0  0.52733  0.05318  0.22616  1.0000
  C   C388      1.0  0.72752  0.01648  0.39579  1.0000
  H   H667      1.0  0.56591  0.13093  0.09120  1.0000
  C   C389      1.0  0.61947  0.21484  0.44890  1.0000
  C   C390      1.0  0.60214  0.13216  0.42686  1.0000
  H   H668      1.0  0.55511  0.05360  0.20128  1.0000
  C   C391      1.0  0.65875  0.06507  0.47746  1.0000
  N   N30       1.0  0.60151  0.18040  0.41153  1.0000
  C   C392      1.0  0.57433  0.18438  0.42294  1.0000
  C   C393      1.0  0.61484  0.15852  0.42915  1.0000
  C   C394      1.0  0.58118  0.01879  0.24715  1.0000
  H   H669      1.0  0.51659  0.22521  0.13699  1.0000
  C   C395      1.0  0.99922  0.32942  0.46350  1.0000
  H   H670      1.0  0.99847  0.33180  0.26270  1.0000
  C   C396      1.0  0.99964  0.28277  0.46212  1.0000
  Fe  Fe59      1.0  0.51830  0.15088  0.21696  1.0000
  H   H671      1.0  0.56526  0.01075  0.18836  1.0000
  H   H672      1.0  0.00120  0.27443  0.40977  1.0000
  S   S118      1.0  0.51416  0.11346  0.19290  1.0000
  H   H673      1.0  0.52455  0.04205  0.29649  1.0000
  H   H674      1.0  0.73557  0.01298  0.48954  1.0000
  C   C397      1.0  0.53504  0.01255  0.26212  1.0000
  S   S119      1.0  0.84387  0.33959  0.40217  1.0000
  C   C398      1.0  0.52421  0.00796  0.19039  1.0000
  H   H675      1.0  0.62545  0.19999  0.68724  1.0000
  S   S120      1.0  0.55341  0.13354  0.84854  1.0000
  Fe  Fe60      1.0  0.68591  0.11877  0.64506  1.0000
  S   S121      1.0  0.72046  0.12459  0.67591  1.0000
  S   S122      1.0  0.69189  0.10157  0.59580  1.0000
  Fe  Fe61      1.0  0.64864  0.13492  0.69866  1.0000
  S   S123      1.0  0.68047  0.14201  0.73311  1.0000
  S   S124      1.0  0.60649  0.14289  0.70912  1.0000
  Fe  Fe62      1.0  0.70125  0.16094  0.69071  1.0000
  S   S125      1.0  0.71719  0.20150  0.69316  1.0000
  Fe  Fe63      1.0  0.69686  0.10504  0.71517  1.0000
  S   S126      1.0  0.71373  0.07636  0.75129  1.0000
  S   S127      1.0  0.66798  0.15631  0.65710  1.0000
  S   S128      1.0  0.66370  0.09670  0.68351  1.0000
  Fe  Fe64      1.0  0.84788  0.28190  0.68198  1.0000
  C   C399      1.0  0.56496  0.06451  0.81459  1.0000
  S   S129      1.0  0.83256  0.24130  0.68992  1.0000
  Fe  Fe65      1.0  0.89786  0.30926  0.65923  1.0000
  S   S130      1.0  0.93775  0.30740  0.63727  1.0000
  H   H676      1.0  0.98634  0.30238  0.73867  1.0000
  C   C400      1.0  0.88979  0.33107  0.53119  1.0000
  H   H677      1.0  0.61944  0.17867  0.82886  1.0000
  S   S131      1.0  0.88193  0.29755  0.70806  1.0000
  S   S132      1.0  0.86611  0.29020  0.63338  1.0000
  C   C401      1.0  0.96564  0.30751  0.66083  1.0000
  C   C402      1.0  0.96458  0.30475  0.69457  1.0000
  C   C403      1.0  0.98724  0.30482  0.71257  1.0000
  C   C404      1.0  0.63993  0.26186  0.74612  1.0000
  C   C405      1.0  0.98945  0.31043  0.64524  1.0000
  H   H678      1.0  0.94631  0.30228  0.70674  1.0000
  H   H679      1.0  0.80985  0.26863  0.63297  1.0000
  C   C406      1.0  0.64588  0.19771  0.79516  1.0000
  C   C407      1.0  0.82372  0.24447  0.57897  1.0000
  C   C408      1.0  0.63691  0.24038  0.77228  1.0000
  C   C409      1.0  0.83911  0.26351  0.55714  1.0000
  H   H680      1.0  0.61023  0.21072  0.81882  1.0000
  C   C410      1.0  0.74947  0.21202  0.69273  1.0000
  C   C411      1.0  0.75440  0.23840  0.69296  1.0000
  C   C412      1.0  0.77965  0.24771  0.69255  1.0000
  C   C413      1.0  0.80034  0.23069  0.69208  1.0000
  C   C414      1.0  0.79540  0.20430  0.69209  1.0000
  C   C415      1.0  0.77015  0.19500  0.69224  1.0000
  H   H681      1.0  0.73857  0.25176  0.69345  1.0000
  H   H682      1.0  0.78312  0.26803  0.69279  1.0000
  H   H683      1.0  0.81125  0.19094  0.69173  1.0000
  H   H684      1.0  0.76671  0.17466  0.69216  1.0000
  C   C416      1.0  0.56788  0.13755  0.80973  1.0000
  C   C417      1.0  0.55417  0.14597  0.78249  1.0000
  C   C418      1.0  0.56632  0.14767  0.75189  1.0000
  C   C419      1.0  0.59221  0.14091  0.74818  1.0000
  C   C420      1.0  0.60596  0.13261  0.77544  1.0000
  C   C421      1.0  0.59385  0.13104  0.80604  1.0000
  H   H685      1.0  0.53419  0.15103  0.78496  1.0000
  H   H686      1.0  0.55556  0.15411  0.73090  1.0000
  H   H687      1.0  0.62587  0.12730  0.77293  1.0000
  H   H688      1.0  0.60460  0.12445  0.82697  1.0000
  C   C422      1.0  0.73494  0.02997  0.76568  1.0000
  C   C423      1.0  0.71636  0.04292  0.74729  1.0000
  C   C424      1.0  0.70052  0.02892  0.72722  1.0000
  H   H689      1.0  0.74705  0.04051  0.78155  1.0000
  H   H690      1.0  0.68573  0.03868  0.71344  1.0000
  C   C425      1.0  0.67636  0.14527  0.56204  1.0000
  C   C426      1.0  0.68684  0.12071  0.56049  1.0000
  H   H691      1.0  0.68159  0.02827  0.60537  1.0000
  H   H692      1.0  0.67131  0.15294  0.58523  1.0000
  H   H693      1.0  0.58109  0.05169  0.80778  1.0000
  H   H694      1.0  0.66414  0.17893  0.53481  1.0000
  C   C427      1.0  0.54799  0.05499  0.76181  1.0000
  N   N31       1.0  0.73898  0.02471  0.62425  1.0000
  H   H695      1.0  0.63827  0.23002  0.69776  1.0000
  H   H696      1.0  0.70151  0.09206  0.52880  1.0000
  H   H697      1.0  0.56287  0.03985  0.75926  1.0000
  C   C428      1.0  0.77449  0.28794  0.62129  1.0000
  C   C429      1.0  0.74246  0.05726  0.66982  1.0000
  H   H698      1.0  0.99036  0.31255  0.61910  1.0000
  H   H699      1.0  0.76062  0.27478  0.63317  1.0000
  H   H700      1.0  0.53616  0.03259  0.90953  1.0000
  H   H701      1.0  0.77929  0.30233  0.63942  1.0000
  H   H702      1.0  0.68763  0.24807  0.78469  1.0000
  H   H703      1.0  0.76556  0.29871  0.60078  1.0000
  H   H704      1.0  0.62335  0.26235  0.72953  1.0000
  H   H705      1.0  0.53178  0.04840  0.74729  1.0000
  H   H706      1.0  0.75334  0.04410  0.68609  1.0000
  H   H707      1.0  0.72207  0.05747  0.67718  1.0000
  C   C430      1.0  0.73016  0.04478  0.56677  1.0000
  H   H708      1.0  0.65847  0.20194  0.69624  1.0000
  H   H709      1.0  0.58148  0.07129  0.86163  1.0000
  C   C431      1.0  0.61858  0.19316  0.80864  1.0000
  H   H710      1.0  0.65668  0.20582  0.81541  1.0000
  C   C432      1.0  0.67227  0.15996  0.53345  1.0000
  H   H711      1.0  0.83538  0.24015  0.60102  1.0000
  C   C433      1.0  0.83682  0.33319  0.52385  1.0000
  H   H712      1.0  0.76526  0.05637  0.62594  1.0000
  C   C434      1.0  0.74535  0.05156  0.63358  1.0000
  H   H713      1.0  0.65462  0.17857  0.79102  1.0000
  H   H714      1.0  0.68331  0.19606  0.75137  1.0000
  C   C435      1.0  0.67577  0.21565  0.75535  1.0000
  H   H715      1.0  0.71309  0.22963  0.76815  1.0000
  N   N32       1.0  0.64789  0.21453  0.76484  1.0000
  H   H716      1.0  0.85803  0.25489  0.55162  1.0000
  C   C436      1.0  0.53143  0.03251  0.81140  1.0000
  H   H717      1.0  0.65973  0.01070  0.79665  1.0000
  H   H718      1.0  0.73331  0.06611  0.62086  1.0000
  C   C437      1.0  0.78533  0.23027  0.60733  1.0000
  N   N33       1.0  0.79693  0.25253  0.58843  1.0000
  H   H719      1.0  0.79842  0.22380  0.62706  1.0000
  H   H720      1.0  0.64378  0.02977  0.53733  1.0000
  H   H721      1.0  0.60548  0.18561  0.79042  1.0000
  H   H722      1.0  0.63514  0.18087  0.74063  1.0000
  H   H723      1.0  0.61189  0.20561  0.74191  1.0000
  H   H724      1.0  0.74423  0.24811  0.54346  1.0000
  C   C438      1.0  0.69372  0.22833  0.77938  1.0000
  H   H725      1.0  0.56155  0.04380  0.86182  1.0000
  C   C439      1.0  0.79938  0.27468  0.61062  1.0000
  Fe  Fe66      1.0  0.84605  0.32782  0.63533  1.0000
  H   H726      1.0  0.64089  0.28052  0.75808  1.0000
  H   H727      1.0  0.74993  0.07664  0.67395  1.0000
  H   H728      1.0  0.71048  0.05036  0.57346  1.0000
  H   H729      1.0  0.78710  0.24664  0.53850  1.0000
  H   H730      1.0  0.69593  0.21676  0.80213  1.0000
  C   C440      1.0  0.56343  0.06364  0.85198  1.0000
  H   H731      1.0  0.61598  0.23894  0.77689  1.0000
  H   H732      1.0  0.76845  0.19275  0.60384  1.0000
  H   H733      1.0  0.69426  0.05376  0.62889  1.0000
  C   C441      1.0  0.69003  0.03320  0.62889  1.0000
  H   H734      1.0  0.52533  0.02520  0.00207  1.0000
  H   H735      1.0  0.74604  0.28077  0.55374  1.0000
  C   C442      1.0  0.63934  0.20930  0.70321  1.0000
  C   C443      1.0  0.52153  0.07864  0.80218  1.0000
  H   H736      1.0  0.76698  0.21084  0.56662  1.0000
  H   H737      1.0  0.81089  0.29013  0.59912  1.0000
  H   H738      1.0  0.64440  0.24742  0.79550  1.0000
  H   H739      1.0  0.54407  0.09538  0.74511  1.0000
  C   C444      1.0  0.74063  0.02231  0.58789  1.0000
  H   H740      1.0  0.52108  0.03570  0.83453  1.0000
  Fe  Fe67      1.0  0.51208  0.13987  0.86506  1.0000
  H   H741      1.0  0.82345  0.22654  0.56537  1.0000
  H   H742      1.0  0.88214  0.33533  0.58217  1.0000
  C   C445      1.0  0.84733  0.33537  0.55475  1.0000
  S   S133      1.0  0.82570  0.31882  0.68279  1.0000
  C   C446      1.0  0.69327  0.11096  0.53018  1.0000
  H   H743      1.0  0.54778  0.01958  0.81771  1.0000
  H   H744      1.0  0.67884  0.22597  0.73185  1.0000
  H   H745      1.0  0.74273  0.06173  0.56768  1.0000
  N   N34       1.0  0.54087  0.05764  0.79704  1.0000
  C   C447      1.0  0.55805  0.07942  0.74428  1.0000
  C   C448      1.0  0.66107  0.01774  0.53376  1.0000
  H   H746      1.0  0.76760  0.23559  0.62036  1.0000
  C   C449      1.0  0.78244  0.26005  0.55817  1.0000
  H   H747      1.0  0.78895  0.27913  0.54874  1.0000
  C   C450      1.0  0.63273  0.20200  0.73876  1.0000
  H   H748      1.0  0.57119  0.08410  0.80749  1.0000
  C   C451      1.0  0.77918  0.20646  0.58783  1.0000
  H   H749      1.0  0.65777  0.26079  0.73173  1.0000
  H   H750      1.0  0.54779  0.07569  0.86153  1.0000
  C   C452      1.0  0.51652  0.03034  0.90230  1.0000
  H   H751      1.0  0.67825  0.02961  0.53589  1.0000
  C   C453      1.0  0.87384  0.33382  0.55841  1.0000
  H   H752      1.0  0.81632  0.33409  0.52092  1.0000
  C   C454      1.0  0.98056  0.30511  0.52602  1.0000
  H   H753      1.0  0.84315  0.28161  0.56908  1.0000
  H   H754      1.0  0.72991  0.03920  0.54110  1.0000
  H   H755      1.0  0.79671  0.19632  0.57999  1.0000
  H   H756      1.0  0.56144  0.07551  0.71830  1.0000
  H   H757      1.0  0.74483  0.25652  0.58502  1.0000
  H   H758      1.0  0.57664  0.08554  0.75397  1.0000
  H   H759      1.0  0.82977  0.26766  0.53355  1.0000
  H   H760      1.0  0.99006  0.32371  0.52906  1.0000
  H   H761      1.0  0.52995  0.09786  0.79748  1.0000
  H   H762      1.0  0.96654  0.30284  0.54630  1.0000
  C   C455      1.0  0.75289  0.26128  0.56080  1.0000
  H   H763      1.0  0.67529  0.03045  0.64820  1.0000
  H   H764      1.0  0.91030  0.33058  0.53421  1.0000
  H   H765      1.0  0.51581  0.07920  0.82815  1.0000
  Fe  Fe68      1.0  0.86086  0.33541  0.70559  1.0000
  H   H766      1.0  0.76090  0.01992  0.57993  1.0000
  C   C456      1.0  0.51371  0.01649  0.79057  1.0000
  H   H767      1.0  0.99475  0.28943  0.52891  1.0000
  H   H768      1.0  0.71365  0.01286  0.66356  1.0000
  H   H769      1.0  0.77861  0.01409  0.63285  1.0000
  H   H770      1.0  0.52416  0.00844  0.76969  1.0000
  C   C457      1.0  0.71328  0.01610  0.63695  1.0000
  H   H771      1.0  0.00202  0.25311  0.67605  1.0000
  C   C458      1.0  0.75903  0.00724  0.63929  1.0000
  H   H772      1.0  0.00561  0.22396  0.69881  1.0000
  H   H773      1.0  0.75783  0.00703  0.66620  1.0000
  C   C459      1.0  0.50879  0.00777  0.88819  1.0000
  Fe  Fe69      1.0  0.84458  0.54489  0.20114  1.0000
  S   S134      1.0  0.87701  0.52092  0.22005  1.0000
  S   S135      1.0  0.82235  0.56945  0.23604  1.0000
  Fe  Fe70      1.0  0.85284  0.52848  0.13062  1.0000
  S   S136      1.0  0.88637  0.50359  0.14442  1.0000
  S   S137      1.0  0.83629  0.53766  0.08026  1.0000
  Fe  Fe71      1.0  0.86285  0.49055  0.18792  1.0000
  S   S138      1.0  0.86541  0.44807  0.20119  1.0000
  Fe  Fe72      1.0  0.89783  0.53571  0.17586  1.0000
  S   S139      1.0  0.93650  0.55205  0.18484  1.0000
  S   S140      1.0  0.82810  0.51325  0.17202  1.0000
  S   S141      1.0  0.86645  0.56182  0.15899  1.0000
  H   H774      1.0  0.83948  0.60747  0.07707  1.0000
  H   H775      1.0  0.90349  0.41204  0.39905  1.0000
  C   C460      1.0  0.99712  0.46793  0.23873  1.0000
  S   S142      1.0  0.85785  0.39633  0.34301  1.0000
  C   C461      1.0  0.94204  0.50161  0.25136  1.0000
  H   H776      1.0  0.93094  0.43088  0.30770  1.0000
  H   H777      1.0  0.97387  0.48419  0.12039  1.0000
  C   C462      1.0  0.84796  0.52783  0.04186  1.0000
  H   H778      1.0  0.88897  0.40865  0.48606  1.0000
  H   H779      1.0  0.83213  0.64091  0.30967  1.0000
  H   H780      1.0  0.87522  0.50042  0.06062  1.0000
  H   H781      1.0  0.91324  0.45384  0.28432  1.0000
  C   C463      1.0  0.96159  0.53353  0.17005  1.0000
  C   C464      1.0  0.95722  0.51472  0.14752  1.0000
  C   C465      1.0  0.97732  0.49895  0.13753  1.0000
  C   C466      1.0  0.00172  0.50204  0.15021  1.0000
  H   H782      1.0  0.96063  0.50924  0.24271  1.0000
  H   H783      1.0  0.93845  0.51238  0.13764  1.0000
  C   C467      1.0  0.98617  0.53708  0.18191  1.0000
  C   C468      1.0  0.86298  0.43412  0.24082  1.0000
  C   C469      1.0  0.86608  0.40754  0.24507  1.0000
  C   C470      1.0  0.86467  0.39567  0.27616  1.0000
  C   C471      1.0  0.86005  0.41031  0.30336  1.0000
  C   C472      1.0  0.85714  0.43692  0.29913  1.0000
  C   C473      1.0  0.85864  0.44881  0.26805  1.0000
  H   H784      1.0  0.86939  0.39602  0.22415  1.0000
  H   H785      1.0  0.86687  0.37518  0.27903  1.0000
  H   H786      1.0  0.85349  0.44841  0.31999  1.0000
  H   H787      1.0  0.85618  0.46926  0.26514  1.0000
  C   C474      1.0  0.83759  0.59699  0.25016  1.0000
  C   C475      1.0  0.85896  0.60711  0.23397  1.0000
  C   C476      1.0  0.87025  0.62954  0.24461  1.0000
  C   C477      1.0  0.86102  0.64165  0.27224  1.0000
  C   C478      1.0  0.83952  0.63169  0.28843  1.0000
  C   C479      1.0  0.82768  0.60956  0.27718  1.0000
  H   H788      1.0  0.86669  0.59782  0.21303  1.0000
  H   H789      1.0  0.88640  0.63749  0.23149  1.0000
  H   H790      1.0  0.83240  0.43911  0.48333  1.0000
  H   H791      1.0  0.81102  0.60195  0.28972  1.0000
  C   C480      1.0  0.93240  0.61012  0.27405  1.0000
  H   H792      1.0  0.97257  0.35999  0.44708  1.0000
  H   H793      1.0  0.86030  0.47303  0.48153  1.0000
  C   C481      1.0  0.86772  0.40767  0.42551  1.0000
  H   H794      1.0  0.99833  0.37802  0.21338  1.0000
  H   H795      1.0  0.93414  0.56923  0.26254  1.0000
  H   H796      1.0  0.83525  0.44518  0.44167  1.0000
  H   H797      1.0  0.97392  0.47663  0.19716  1.0000
  N   N35       1.0  0.85397  0.41019  0.45765  1.0000
  H   H798      1.0  0.99548  0.62199  0.20983  1.0000
  H   H799      1.0  0.91677  0.42122  0.27127  1.0000
  H   H800      1.0  0.99721  0.34880  0.30987  1.0000
  C   C482      1.0  0.89684  0.41192  0.42471  1.0000
  C   C483      1.0  0.81208  0.39987  0.42770  1.0000
  H   H801      1.0  0.85925  0.42080  0.40670  1.0000
  C   C484      1.0  0.92653  0.43739  0.28249  1.0000
  H   H802      1.0  0.91964  0.45980  0.17023  1.0000
  C   C485      1.0  0.94749  0.63775  0.22753  1.0000
  H   H803      1.0  0.82155  0.39645  0.40407  1.0000
  H   H804      1.0  0.93458  0.65193  0.31103  1.0000
  N   N36       1.0  0.95531  0.62206  0.25717  1.0000
  H   H805      1.0  0.90703  0.39589  0.43738  1.0000
  C   C486      1.0  0.97518  0.46107  0.21588  1.0000
  H   H806      1.0  0.83469  0.37371  0.45691  1.0000
  H   H807      1.0  0.90250  0.43026  0.43484  1.0000
  H   H808      1.0  0.99966  0.37049  0.46870  1.0000
  C   C487      1.0  0.77530  0.64275  0.11626  1.0000
  H   H809      1.0  0.80400  0.41947  0.42762  1.0000
  H   H810      1.0  0.82206  0.63338  0.09383  1.0000
  N   N37       1.0  0.94907  0.45596  0.23080  1.0000
  C   C488      1.0  0.93594  0.43652  0.21060  1.0000
  C   C489      1.0  0.95165  0.44459  0.26467  1.0000
  C   C490      1.0  0.94001  0.62345  0.19691  1.0000
  C   C491      1.0  0.93292  0.47992  0.23015  1.0000
  C   C492      1.0  0.93317  0.44367  0.17419  1.0000
  H   H811      1.0  0.90312  0.58101  0.27230  1.0000
  H   H812      1.0  0.93046  0.64823  0.44648  1.0000
  H   H813      1.0  0.75775  0.61697  0.15194  1.0000
  H   H814      1.0  0.94614  0.41779  0.21240  1.0000
  H   H815      1.0  0.91622  0.43279  0.21961  1.0000
  H   H816      1.0  0.98965  0.55169  0.19923  1.0000
  H   H817      1.0  0.91650  0.62420  0.27572  1.0000
  H   H818      1.0  0.93180  0.48841  0.20516  1.0000
  Fe  Fe73      1.0  0.86354  0.35411  0.35646  1.0000
  H   H819      1.0  0.94281  0.49584  0.27735  1.0000
  H   H820      1.0  0.91280  0.47546  0.23712  1.0000
  H   H821      1.0  0.92483  0.42721  0.16177  1.0000
  H   H822      1.0  0.91908  0.62042  0.19596  1.0000
  H   H823      1.0  0.95164  0.44815  0.16204  1.0000
  H   H824      1.0  0.79079  0.65387  0.12688  1.0000
  H   H825      1.0  0.99128  0.37202  0.25575  1.0000
  H   H826      1.0  0.86533  0.38811  0.41628  1.0000
  H   H827      1.0  0.79566  0.38654  0.42954  1.0000
  H   H828      1.0  0.87502  0.46448  0.44367  1.0000
  C   C493      1.0  0.86694  0.50910  0.03902  1.0000
  H   H829      1.0  0.96170  0.45771  0.28073  1.0000
  H   H830      1.0  0.92826  0.51776  0.24928  1.0000
  H   H831      1.0  0.78087  0.64082  0.18798  1.0000
  C   C494      1.0  0.82990  0.39446  0.45681  1.0000
  N   N38       1.0  0.79597  0.60208  0.14274  1.0000
  C   C495      1.0  0.78820  0.57767  0.16056  1.0000
  C   C496      1.0  0.81134  0.61733  0.16600  1.0000
  C   C497      1.0  0.81221  0.59480  0.11395  1.0000
  C   C498      1.0  0.77204  0.61582  0.13185  1.0000
  C   C499      1.0  0.77457  0.55763  0.14031  1.0000
  C   C500      1.0  0.79651  0.62759  0.19540  1.0000
  C   C501      1.0  0.84622  0.43752  0.46281  1.0000
  H   H832      1.0  0.94991  0.60505  0.19389  1.0000
  H   H833      1.0  0.80526  0.56789  0.17118  1.0000
  H   H834      1.0  0.77526  0.58154  0.18136  1.0000
  H   H835      1.0  0.82038  0.63424  0.15407  1.0000
  H   H836      1.0  0.82769  0.60567  0.17543  1.0000
  H   H837      1.0  0.82426  0.57790  0.12033  1.0000
  H   H838      1.0  0.80008  0.58871  0.09359  1.0000
  H   H839      1.0  0.99232  0.48374  0.25483  1.0000
  H   H840      1.0  0.77054  0.54056  0.15616  1.0000
  H   H841      1.0  0.96367  0.42697  0.26423  1.0000
  H   H842      1.0  0.78667  0.55089  0.12006  1.0000
  C   C502      1.0  0.99952  0.61112  0.23269  1.0000
  C   C503      1.0  0.86784  0.45686  0.46744  1.0000
  H   H843      1.0  0.77844  0.64171  0.08969  1.0000
  C   C504      1.0  0.92122  0.58597  0.25934  1.0000
  C   C505      1.0  0.83111  0.61477  0.09986  1.0000
  H   H844      1.0  0.81791  0.39717  0.47883  1.0000
  C   C506      1.0  0.94952  0.66041  0.29485  1.0000
  H   H845      1.0  0.80985  0.63861  0.21030  1.0000
  S   S143      1.0  0.90258  0.34186  0.37343  1.0000
  C   C507      1.0  0.87014  0.39928  0.48485  1.0000
  H   H846      1.0  0.98059  0.59128  0.27262  1.0000
  H   H847      1.0  0.94558  0.63512  0.17508  1.0000
  H   H848      1.0  0.98248  0.44419  0.20277  1.0000
  H   H849      1.0  0.91635  0.58870  0.23355  1.0000
  H   H850      1.0  0.98586  0.55000  0.05432  1.0000
  H   H851      1.0  0.93082  0.65015  0.23328  1.0000
  H   H852      1.0  0.76201  0.60464  0.11345  1.0000
  H   H853      1.0  0.00443  0.40162  0.24198  1.0000
  H   H854      1.0  0.93710  0.60457  0.29961  1.0000
  H   H855      1.0  0.75594  0.56465  0.13103  1.0000
  H   H856      1.0  0.84737  0.61739  0.11651  1.0000
  C   C508      1.0  0.92682  0.66846  0.45243  1.0000
  H   H857      1.0  0.78890  0.61210  0.21154  1.0000
  H   H858      1.0  0.88394  0.44918  0.48190  1.0000
  H   H859      1.0  0.96258  0.65172  0.22013  1.0000
  H   H860      1.0  0.97410  0.35560  0.49076  1.0000
  H   H861      1.0  0.96699  0.58661  0.23466  1.0000
  C   C509      1.0  0.97486  0.60169  0.24984  1.0000
  C   C510      1.0  0.96739  0.63991  0.28059  1.0000
  H   H862      1.0  0.97585  0.62898  0.30153  1.0000
  C   C511      1.0  0.00513  0.38070  0.23844  1.0000
  H   H863      1.0  0.75768  0.65412  0.12065  1.0000
  C   C512      1.0  0.98519  0.35511  0.46780  1.0000
  H   H864      1.0  0.98353  0.65057  0.26891  1.0000
  H   H865      1.0  0.85299  0.67056  0.51607  1.0000
  H   H866      1.0  0.99001  0.54478  0.09677  1.0000
  S   S144      1.0  0.87795  0.66838  0.28582  1.0000
  H   H867      1.0  0.87487  0.37900  0.48029  1.0000
  H   H868      1.0  0.00330  0.45104  0.25363  1.0000
  H   H869      1.0  0.91927  0.66842  0.47759  1.0000
  C   C513      1.0  0.00624  0.52130  0.17205  1.0000
  C   C514      1.0  0.00046  0.54885  0.07365  1.0000
  H   H870      1.0  0.94041  0.67276  0.27591  1.0000
  H   H871      1.0  0.96099  0.67319  0.30983  1.0000
  H   H872      1.0  0.96670  0.67222  0.46164  1.0000
  Fe  Fe74      1.0  0.86917  0.51364  0.88846  1.0000
  S   S145      1.0  0.89114  0.54602  0.86483  1.0000
  S   S146      1.0  0.87457  0.50044  0.94154  1.0000
  Fe  Fe75      1.0  0.85000  0.49569  0.82246  1.0000
  S   S147      1.0  0.87020  0.52704  0.79436  1.0000
  S   S148      1.0  0.82629  0.46719  0.79521  1.0000
  Fe  Fe76      1.0  0.90293  0.51807  0.82745  1.0000
  S   S149      1.0  0.94178  0.51312  0.80452  1.0000
  Fe  Fe77      1.0  0.85666  0.55279  0.83335  1.0000
  S   S150      1.0  0.84557  0.59463  0.82494  1.0000
  S   S151      1.0  0.88377  0.48493  0.85281  1.0000
  S   S152      1.0  0.83345  0.52217  0.85973  1.0000
  H   H873      1.0  0.83724  0.53968  0.96081  1.0000
  S   S153      1.0  0.86675  0.35847  0.75099  1.0000
  S   S154      1.0  0.83652  0.65382  0.68813  1.0000
  C   C515      1.0  0.96714  0.52844  0.82326  1.0000
  C   C516      1.0  0.96267  0.54535  0.84824  1.0000
  C   C517      1.0  0.98301  0.55873  0.86141  1.0000
  H   H874      1.0  0.94808  0.35981  0.67786  1.0000
  C   C518      1.0  0.99210  0.52451  0.81197  1.0000
  H   H875      1.0  0.94359  0.54832  0.85726  1.0000
  H   H876      1.0  0.97946  0.57188  0.88065  1.0000
  C   C519      1.0  0.84394  0.61033  0.78631  1.0000
  C   C520      1.0  0.84849  0.63673  0.78380  1.0000
  C   C521      1.0  0.84751  0.64995  0.75363  1.0000
  C   C522      1.0  0.84076  0.63717  0.72579  1.0000
  C   C523      1.0  0.83586  0.61083  0.72833  1.0000
  C   C524      1.0  0.83778  0.59738  0.75835  1.0000
  H   H877      1.0  0.85303  0.64697  0.80532  1.0000
  H   H878      1.0  0.95939  0.58797  0.73134  1.0000
  H   H879      1.0  0.83046  0.60078  0.70698  1.0000
  H   H880      1.0  0.83395  0.57711  0.75998  1.0000
  C   C525      1.0  0.85623  0.38968  0.76048  1.0000
  C   C526      1.0  0.86974  0.40309  0.78375  1.0000
  C   C527      1.0  0.86151  0.42739  0.79334  1.0000
  C   C528      1.0  0.83905  0.43814  0.78074  1.0000
  C   C529      1.0  0.82559  0.42481  0.75733  1.0000
  C   C530      1.0  0.83435  0.40088  0.74684  1.0000
  H   H881      1.0  0.88657  0.39455  0.79464  1.0000
  H   H882      1.0  0.87218  0.43747  0.81113  1.0000
  H   H883      1.0  0.80818  0.43295  0.74744  1.0000
  H   H884      1.0  0.82366  0.39071  0.72910  1.0000
  C   C531      1.0  0.95644  0.36832  0.74208  1.0000
  H   H885      1.0  0.84106  0.38854  0.52211  1.0000
  C   C532      1.0  0.86446  0.51224  0.97963  1.0000
  C   C533      1.0  0.84562  0.53114  0.98242  1.0000
  H   H886      1.0  0.00471  0.62466  0.80027  1.0000
  N   N39       1.0  0.81748  0.44611  0.91157  1.0000
  C   C534      1.0  0.84592  0.44100  0.91243  1.0000
  C   C535      1.0  0.81223  0.46844  0.93293  1.0000
  C   C536      1.0  0.81053  0.45293  0.87689  1.0000
  C   C537      1.0  0.80414  0.42211  0.92330  1.0000
  C   C538      1.0  0.94743  0.42785  0.75107  1.0000
  H   H887      1.0  0.85210  0.42559  0.86356  1.0000
  H   H888      1.0  0.85664  0.45884  0.90657  1.0000
  H   H889      1.0  0.85218  0.43472  0.93708  1.0000
  H   H890      1.0  0.79211  0.47499  0.93167  1.0000
  H   H891      1.0  0.82342  0.48537  0.92418  1.0000
  H   H892      1.0  0.82587  0.46468  0.86511  1.0000
  H   H893      1.0  0.80925  0.43549  0.86224  1.0000
  H   H894      1.0  0.80720  0.40665  0.90578  1.0000
  H   H895      1.0  0.81282  0.41412  0.94601  1.0000
  H   H896      1.0  0.90672  0.60735  0.86076  1.0000
  H   H897      1.0  0.97031  0.56102  0.75387  1.0000
  H   H898      1.0  0.91522  0.56424  0.74405  1.0000
  C   C539      1.0  0.96695  0.58195  0.75524  1.0000
  H   H899      1.0  0.91165  0.36743  0.70985  1.0000
  H   H900      1.0  0.93936  0.56857  0.79083  1.0000
  H   H901      1.0  0.89833  0.62095  0.74917  1.0000
  C   C540      1.0  0.85840  0.40043  0.51919  1.0000
  C   C541      1.0  0.94158  0.63407  0.78109  1.0000
  H   H902      1.0  0.89495  0.61979  0.80545  1.0000
  H   H903      1.0  0.89082  0.58069  0.72151  1.0000
  H   H904      1.0  0.94148  0.64892  0.73050  1.0000
  H   H905      1.0  0.94888  0.44876  0.74597  1.0000
  C   C542      1.0  0.77497  0.42364  0.92849  1.0000
  H   H906      1.0  0.91157  0.42577  0.69380  1.0000
  H   H907      1.0  0.91026  0.40044  0.66466  1.0000
  H   H908      1.0  0.88497  0.40474  0.69307  1.0000
  H   H909      1.0  0.95579  0.63450  0.80089  1.0000
  H   H910      1.0  0.78752  0.48823  0.87899  1.0000
  C   C543      1.0  0.91095  0.60591  0.80856  1.0000
  C   C544      1.0  0.91372  0.60611  0.74980  1.0000
  H   H911      1.0  0.99828  0.65632  0.81458  1.0000
  H   H912      1.0  0.90964  0.39146  0.73842  1.0000
  H   H913      1.0  0.76477  0.41901  0.90597  1.0000
  H   H914      1.0  0.98572  0.59113  0.75877  1.0000
  H   H915      1.0  0.79189  0.64934  0.75985  1.0000
  C   C545      1.0  0.95765  0.41348  0.72151  1.0000
  S   S155      1.0  0.87885  0.34773  0.65793  1.0000
  H   H916      1.0  0.83853  0.46094  0.97390  1.0000
  C   C546      1.0  0.90107  0.58004  0.74496  1.0000
  H   H917      1.0  0.78203  0.46958  0.84459  1.0000
  C   C547      1.0  0.78565  0.46829  0.87108  1.0000
  H   H918      1.0  0.97872  0.41253  0.72464  1.0000
  C   C548      1.0  0.95526  0.64410  0.75007  1.0000
  H   H919      1.0  0.87241  0.39242  0.53691  1.0000
  N   N40       1.0  0.94719  0.38720  0.71624  1.0000
  C   C549      1.0  0.95699  0.37835  0.68391  1.0000
  C   C550      1.0  0.91845  0.38702  0.71485  1.0000
  H   H920      1.0  0.92243  0.35708  0.77074  1.0000
  C   C551      1.0  0.81789  0.46396  0.96928  1.0000
  H   H921      1.0  0.95161  0.39202  0.66396  1.0000
  H   H922      1.0  0.97016  0.63101  0.74124  1.0000
  H   H923      1.0  0.95532  0.42621  0.69961  1.0000
  H   H924      1.0  0.76605  0.66429  0.78032  1.0000
  H   H925      1.0  0.97666  0.37213  0.74843  1.0000
  H   H926      1.0  0.92693  0.64891  0.78673  1.0000
  H   H927      1.0  0.95180  0.35439  0.79198  1.0000
  H   H928      1.0  0.81237  0.48138  0.98240  1.0000
  H   H929      1.0  0.76872  0.45936  0.88262  1.0000
  C   C552      1.0  0.94883  0.58697  0.78408  1.0000
  H   H930      1.0  0.85121  0.67017  0.75213  1.0000
  H   H931      1.0  0.90204  0.58670  0.81023  1.0000
  H   H932      1.0  0.79866  0.67256  0.78916  1.0000
  H   H933      1.0  0.99567  0.51142  0.79267  1.0000
  C   C553      1.0  0.85617  0.42064  0.88928  1.0000
  C   C554      1.0  0.90608  0.40572  0.68995  1.0000
  N   N41       1.0  0.92932  0.60811  0.78016  1.0000
  H   H934      1.0  0.92696  0.42475  0.75646  1.0000
  H   H935      1.0  0.88656  0.57562  0.76389  1.0000
  H   H936      1.0  0.76810  0.44220  0.93714  1.0000
  H   H937      1.0  0.93789  0.38525  0.78515  1.0000
  H   H938      1.0  0.85417  0.42029  0.52610  1.0000
  H   H939      1.0  0.95633  0.34855  0.73289  1.0000
  H   H940      1.0  0.76928  0.40955  0.94786  1.0000
  H   H941      1.0  0.84878  0.40134  0.89564  1.0000
  H   H942      1.0  0.92508  0.61020  0.72754  1.0000
  H   H943      1.0  0.87730  0.41960  0.89137  1.0000
  H   H944      1.0  0.96143  0.59044  0.80498  1.0000
  H   H945      1.0  0.82260  0.55319  0.01521  1.0000
  H   H946      1.0  0.80671  0.44792  0.98014  1.0000
  H   H947      1.0  0.95882  0.42303  0.77301  1.0000
  C   C555      1.0  0.78532  0.66778  0.76972  1.0000
  H   H948      1.0  0.93760  0.59666  0.84872  1.0000
  C   C556      1.0  0.94111  0.36655  0.77417  1.0000
  C   C557      1.0  0.92214  0.61038  0.84236  1.0000
  H   H949      1.0  0.92884  0.63024  0.84479  1.0000
  H   H950      1.0  0.99652  0.39311  0.68237  1.0000
  C   C558      1.0  0.98623  0.37478  0.68088  1.0000
  C   C559      1.0  0.87497  0.50126  0.00813  1.0000
  H   H951      1.0  0.88944  0.48653  0.00631  1.0000
  H   H952      1.0  0.99075  0.36709  0.65671  1.0000
  H   H953      1.0  0.99388  0.36079  0.69905  1.0000
  C   C560      1.0  0.83734  0.53874  0.01336  1.0000
  H   H954      1.0  0.96490  0.66230  0.75544  1.0000
  S   S156      1.0  0.82724  0.34038  0.58846  1.0000
  S   S157      1.0  0.51120  0.89159  0.09482  1.0000
  H   H955      1.0  0.56789  0.94495  0.30139  1.0000
  S   S158      1.0  0.53596  0.93540  0.24741  1.0000
  C   C561      1.0  0.71648  0.00420  0.48688  1.0000
  H   H956      1.0  0.76904  0.91252  0.38162  1.0000
  C   C562      1.0  0.77179  0.73931  0.47764  1.0000
  Fe  Fe78      1.0  0.68792  0.93355  0.35642  1.0000
  S   S159      1.0  0.64728  0.92625  0.37129  1.0000
  S   S160      1.0  0.69818  0.96999  0.32904  1.0000
  Fe  Fe79      1.0  0.70686  0.88101  0.38072  1.0000
  S   S161      1.0  0.66736  0.86927  0.39715  1.0000
  S   S162      1.0  0.74500  0.86177  0.39335  1.0000
  Fe  Fe80      1.0  0.65328  0.88778  0.35026  1.0000
  S   S163      1.0  0.62421  0.86992  0.31703  1.0000
  Fe  Fe81      1.0  0.66422  0.90877  0.41662  1.0000
  S   S164      1.0  0.64504  0.91511  0.46494  1.0000
  S   S165      1.0  0.69324  0.89609  0.33220  1.0000
  S   S166      1.0  0.70438  0.91954  0.40352  1.0000
  Fe  Fe82      1.0  0.86038  0.70553  0.39920  1.0000
  S   S167      1.0  0.86294  0.74803  0.39161  1.0000
  H   H957      1.0  0.79014  0.93932  0.37317  1.0000
  Fe  Fe83      1.0  0.86757  0.69509  0.32659  1.0000
  S   S168      1.0  0.87022  0.73718  0.31419  1.0000
  Fe  Fe84      1.0  0.89565  0.73872  0.35767  1.0000
  S   S169      1.0  0.93342  0.76004  0.35761  1.0000
  Fe  Fe85      1.0  0.83727  0.74241  0.34907  1.0000
  S   S170      1.0  0.79957  0.76307  0.33740  1.0000
  S   S171      1.0  0.89459  0.69661  0.36847  1.0000
  S   S172      1.0  0.83291  0.69991  0.35841  1.0000
  C   C563      1.0  0.86274  0.70232  0.48394  1.0000
  N   N42       1.0  0.95128  0.71090  0.45859  1.0000
  H   H958      1.0  0.50897  0.99900  0.20562  1.0000
  C   C564      1.0  0.75874  0.75107  0.42200  1.0000
  H   H959      1.0  0.97746  0.73183  0.42644  1.0000
  C   C565      1.0  0.96258  0.74261  0.35837  1.0000
  C   C566      1.0  0.98587  0.75538  0.36217  1.0000
  C   C567      1.0  0.96277  0.71599  0.35704  1.0000
  H   H960      1.0  0.98596  0.77598  0.36312  1.0000
  H   H961      1.0  0.94525  0.70593  0.35332  1.0000
  C   C568      1.0  0.76029  0.83539  0.37529  1.0000
  C   C569      1.0  0.74721  0.81875  0.35563  1.0000
  C   C570      1.0  0.75977  0.79706  0.34362  1.0000
  C   C571      1.0  0.78554  0.79188  0.35086  1.0000
  C   C572      1.0  0.79890  0.80913  0.36941  1.0000
  C   C573      1.0  0.78622  0.83056  0.38193  1.0000
  H   H962      1.0  0.72727  0.82223  0.35026  1.0000
  H   H963      1.0  0.74932  0.78397  0.32902  1.0000
  H   H964      1.0  0.81885  0.80565  0.37467  1.0000
  H   H965      1.0  0.79657  0.84341  0.39695  1.0000
  C   C574      1.0  0.66310  0.92469  0.49801  1.0000
  C   C575      1.0  0.68815  0.93343  0.49399  1.0000
  H   H966      1.0  0.60936  0.99213  0.26712  1.0000
  H   H967      1.0  0.69672  0.93463  0.47013  1.0000
  H   H968      1.0  0.51436  0.92233  0.31858  1.0000
  H   H969      1.0  0.81847  0.89754  0.27733  1.0000
  H   H970      1.0  0.53579  0.99137  0.26552  1.0000
  C   C576      1.0  0.79080  0.72450  0.50002  1.0000
  H   H971      1.0  0.74937  0.88662  0.32588  1.0000
  C   C577      1.0  0.74000  0.77286  0.43022  1.0000
  C   C578      1.0  0.87186  0.72731  0.48211  1.0000
  C   C579      1.0  0.00108  0.70678  0.45398  1.0000
  H   H972      1.0  0.92354  0.75887  0.46747  1.0000
  H   H973      1.0  0.63457  0.97609  0.45436  1.0000
  H   H974      1.0  0.53528  0.88392  0.03313  1.0000
  C   C580      1.0  0.56037  0.91661  0.26609  1.0000
  C   C581      1.0  0.56700  0.89227  0.25566  1.0000
  C   C582      1.0  0.58652  0.87813  0.27150  1.0000
  C   C583      1.0  0.59987  0.88832  0.29751  1.0000
  C   C584      1.0  0.59303  0.91256  0.30798  1.0000
  C   C585      1.0  0.57327  0.92648  0.29255  1.0000
  H   H975      1.0  0.55731  0.88445  0.23525  1.0000
  H   H976      1.0  0.59162  0.85935  0.26328  1.0000
  H   H977      1.0  0.60278  0.92049  0.32824  1.0000
  C   C586      1.0  0.79539  0.77229  0.44482  1.0000
  H   H978      1.0  0.82825  0.79223  0.46267  1.0000
  H   H979      1.0  0.91205  0.71694  0.44348  1.0000
  H   H980      1.0  0.75489  0.72664  0.47566  1.0000
  H   H981      1.0  0.83393  0.75913  0.45868  1.0000
  H   H982      1.0  0.95934  0.67694  0.51446  1.0000
  C   C587      1.0  0.81933  0.77313  0.46599  1.0000
  C   C588      1.0  0.94362  0.71304  0.49373  1.0000
  C   C589      1.0  0.58896  0.99189  0.25992  1.0000
  H   H983      1.0  0.73240  0.92500  0.24668  1.0000
  H   H984      1.0  0.80529  0.73454  0.40488  1.0000
  H   H985      1.0  0.64590  0.97580  0.41367  1.0000
  H   H986      1.0  0.66841  0.98424  0.50571  1.0000
  H   H987      1.0  0.93476  0.72161  0.41227  1.0000
  N   N43       1.0  0.78134  0.74729  0.44423  1.0000
  H   H988      1.0  0.78288  0.78783  0.45367  1.0000
  H   H989      1.0  0.51892  0.85469  0.24692  1.0000
  C   C590      1.0  0.93135  0.72473  0.43842  1.0000
  C   C591      1.0  0.79839  0.72752  0.42917  1.0000
  H   H990      1.0  0.94431  0.73321  0.50122  1.0000
  H   H991      1.0  0.77329  0.70176  0.40318  1.0000
  H   H992      1.0  0.76527  0.75467  0.39647  1.0000
  H   H993      1.0  0.54445  0.86495  0.36222  1.0000
  C   C592      1.0  0.53251  0.87581  0.34436  1.0000
  H   H994      1.0  0.80147  0.77809  0.41987  1.0000
  C   C593      1.0  0.92932  0.75389  0.44260  1.0000
  C   C594      1.0  0.97677  0.72362  0.45166  1.0000
  C   C595      1.0  0.95198  0.68352  0.44827  1.0000
  H   H995      1.0  0.72259  0.77116  0.41527  1.0000
  H   H996      1.0  0.97948  0.74018  0.46748  1.0000
  C   C596      1.0  0.72484  0.87389  0.48098  1.0000
  C   C597      1.0  0.71993  0.99454  0.37981  1.0000
  H   H997      1.0  0.76489  0.75627  0.49083  1.0000
  H   H998      1.0  0.51596  0.88898  0.28310  1.0000
  H   H999      1.0  0.50991  0.84237  0.33772  1.0000
  H   H1000     1.0  0.54321  0.87574  0.32109  1.0000
  H   H1001     1.0  0.74028  0.81751  0.49739  1.0000
  H   H1002     1.0  0.00280  0.69589  0.47718  1.0000
  H   H1003     1.0  0.92339  0.70717  0.49753  1.0000
  H   H1004     1.0  0.81127  0.72743  0.49449  1.0000
  C   C598      1.0  0.98565  0.70222  0.36096  1.0000
  H   H1005     1.0  0.88638  0.75880  0.50862  1.0000
  H   H1006     1.0  0.00205  0.69329  0.43377  1.0000
  H   H1007     1.0  0.77541  0.69416  0.44621  1.0000
  H   H1008     1.0  0.68131  0.98071  0.45068  1.0000
  H   H1009     1.0  0.81606  0.72413  0.44305  1.0000
  H   H1010     1.0  0.53088  0.89547  0.35316  1.0000
  C   C599      1.0  0.78606  0.70123  0.42450  1.0000
  H   H1011     1.0  0.52321  0.84076  0.28621  1.0000
  H   H1012     1.0  0.58731  0.97712  0.24145  1.0000
  C   C600      1.0  0.87902  0.73955  0.51032  1.0000
  H   H1013     1.0  0.95768  0.68275  0.42221  1.0000
  C   C601      1.0  0.77926  0.86976  0.29701  1.0000
  H   H1014     1.0  0.91422  0.76165  0.42628  1.0000
  N   N44       1.0  0.77495  0.91776  0.31167  1.0000
  C   C602      1.0  0.76072  0.93391  0.33572  1.0000
  C   C603      1.0  0.76527  0.92536  0.27842  1.0000
  C   C604      1.0  0.80306  0.92378  0.31409  1.0000
  C   C605      1.0  0.76998  0.89009  0.32071  1.0000
  C   C606      1.0  0.77038  0.93214  0.37098  1.0000
  H   H1015     1.0  0.72413  0.93206  0.28722  1.0000
  C   C607      1.0  0.82029  0.91746  0.28486  1.0000
  H   H1016     1.0  0.76634  0.85301  0.29910  1.0000
  H   H1017     1.0  0.76109  0.95451  0.32797  1.0000
  H   H1018     1.0  0.74015  0.92879  0.33701  1.0000
  H   H1019     1.0  0.77598  0.91579  0.25894  1.0000
  H   H1020     1.0  0.74703  0.73344  0.42153  1.0000
  H   H1021     1.0  0.80578  0.94459  0.31773  1.0000
  H   H1022     1.0  0.81153  0.91380  0.33572  1.0000
  H   H1023     1.0  0.77922  0.88484  0.34413  1.0000
  H   H1024     1.0  0.74817  0.79187  0.42372  1.0000
  H   H1025     1.0  0.80129  0.68697  0.41953  1.0000
  S   S173      1.0  0.85476  0.68613  0.44863  1.0000
  C   C608      1.0  0.73684  0.92001  0.27237  1.0000
  H   H1026     1.0  0.76840  0.94616  0.27344  1.0000
  H   H1027     1.0  0.73213  0.89956  0.27644  1.0000
  H   H1028     1.0  0.73389  0.77208  0.45599  1.0000
  H   H1029     1.0  0.91192  0.67553  0.43544  1.0000
  H   H1030     1.0  0.81660  0.93075  0.26392  1.0000
  H   H1031     1.0  0.79885  0.86304  0.30315  1.0000
  C   C609      1.0  0.64339  0.98821  0.43482  1.0000
  H   H1032     1.0  0.77854  0.87590  0.27123  1.0000
  H   H1033     1.0  0.63901  0.99906  0.49869  1.0000
  H   H1034     1.0  0.68639  0.85460  0.51169  1.0000
  H   H1035     1.0  0.70614  0.81943  0.50393  1.0000
  H   H1036     1.0  0.81459  0.77077  0.49213  1.0000
  H   H1037     1.0  0.63017  0.00382  0.42722  1.0000
  H   H1038     1.0  0.72564  0.97587  0.38896  1.0000
  H   H1039     1.0  0.75811  0.94437  0.38618  1.0000
  H   H1040     1.0  0.94720  0.76392  0.43549  1.0000
  H   H1041     1.0  0.98541  0.68158  0.36082  1.0000
  H   H1042     1.0  0.84057  0.92014  0.29162  1.0000
  H   H1043     1.0  0.87374  0.73716  0.45892  1.0000
  C   C610      1.0  0.86016  0.68989  0.51441  1.0000
  C   C611      1.0  0.51548  0.88872  0.02856  1.0000
  C   C612      1.0  0.65959  0.00346  0.50176  1.0000
  H   H1044     1.0  0.71895  0.98908  0.46894  1.0000
  H   H1045     1.0  0.71103  0.99567  0.51085  1.0000
  H   H1046     1.0  0.73837  0.88449  0.46470  1.0000
  H   H1047     1.0  0.72416  0.85417  0.47241  1.0000
  H   H1048     1.0  0.70590  0.88320  0.47752  1.0000
  H   H1049     1.0  0.57783  0.98620  0.28187  1.0000
  C   C613      1.0  0.66987  0.99810  0.44454  1.0000
  H   H1050     1.0  0.50905  0.97244  0.03627  1.0000
  H   H1051     1.0  0.52502  0.99724  0.16764  1.0000
  C   C614      1.0  0.70564  0.99693  0.35144  1.0000
  H   H1052     1.0  0.55312  0.98522  0.21325  1.0000
  H   H1053     1.0  0.78677  0.70370  0.50046  1.0000
  C   C615      1.0  0.55045  0.00589  0.20711  1.0000
  C   C616      1.0  0.50900  0.85055  0.27036  1.0000
  H   H1054     1.0  0.75470  0.87047  0.51629  1.0000
  C   C617      1.0  0.73401  0.87557  0.51630  1.0000
  Fe  Fe86      1.0  0.50750  0.92308  0.20959  1.0000
  H   H1055     1.0  0.67874  0.00677  0.42220  1.0000
  C   C618      1.0  0.72470  0.81581  0.51577  1.0000
  C   C619      1.0  0.99019  0.72547  0.61997  1.0000
  C   C620      1.0  0.78435  0.68813  0.74181  1.0000
  S   S174      1.0  0.55569  0.87201  0.82152  1.0000
  Fe  Fe87      1.0  0.71109  0.93106  0.70473  1.0000
  S   S175      1.0  0.67935  0.94635  0.67422  1.0000
  S   S176      1.0  0.72845  0.95617  0.74194  1.0000
  Fe  Fe88      1.0  0.71167  0.87888  0.67274  1.0000
  S   S177      1.0  0.67849  0.89086  0.64074  1.0000
  S   S178      1.0  0.72931  0.84039  0.65900  1.0000
  Fe  Fe89      1.0  0.69952  0.92770  0.63321  1.0000
  S   S179      1.0  0.70924  0.94792  0.58548  1.0000
  Fe  Fe90      1.0  0.66116  0.90822  0.68532  1.0000
  S   S180      1.0  0.61896  0.91306  0.69797  1.0000
  S   S181      1.0  0.73322  0.91525  0.66297  1.0000
  S   S182      1.0  0.69236  0.89344  0.71806  1.0000
  Fe  Fe91      1.0  0.85318  0.74967  0.68715  1.0000
  S   S183      1.0  0.83833  0.72494  0.64819  1.0000
  S   S184      1.0  0.82970  0.78161  0.71010  1.0000
  Fe  Fe92      1.0  0.90495  0.72007  0.69067  1.0000
  H   H1056     1.0  0.51511  0.83741  0.74555  1.0000
  S   S185      1.0  0.94223  0.70523  0.71216  1.0000
  Fe  Fe93      1.0  0.87763  0.72930  0.62613  1.0000
  H   H1057     1.0  0.94672  0.76989  0.59348  1.0000
  H   H1058     1.0  0.76294  0.88842  0.56636  1.0000
  S   S186      1.0  0.89192  0.75576  0.66377  1.0000
  S   S187      1.0  0.86787  0.71651  0.71832  1.0000
  C   C621      1.0  0.97187  0.72101  0.71236  1.0000
  C   C622      1.0  0.99435  0.70624  0.71183  1.0000
  H   H1059     1.0  0.93997  0.78081  0.63302  1.0000
  H   H1060     1.0  0.75285  0.88523  0.60753  1.0000
  C   C623      1.0  0.97361  0.74750  0.71464  1.0000
  C   C624      1.0  0.72981  0.83308  0.54454  1.0000
  H   H1061     1.0  0.95638  0.75899  0.71559  1.0000
  C   C625      1.0  0.70208  0.94081  0.52098  1.0000
  C   C626      1.0  0.87687  0.72702  0.54070  1.0000
  C   C627      1.0  0.62455  0.93452  0.81212  1.0000
  H   H1062     1.0  0.86543  0.69240  0.56616  1.0000
  H   H1063     1.0  0.73062  0.00479  0.58028  1.0000
  C   C628      1.0  0.75805  0.82531  0.67278  1.0000
  C   C629      1.0  0.77025  0.83228  0.70115  1.0000
  C   C630      1.0  0.79219  0.81881  0.71201  1.0000
  C   C631      1.0  0.80256  0.79854  0.69443  1.0000
  C   C632      1.0  0.79066  0.79194  0.66568  1.0000
  C   C633      1.0  0.76841  0.80503  0.65518  1.0000
  H   H1064     1.0  0.76254  0.84775  0.71504  1.0000
  H   H1065     1.0  0.80123  0.82419  0.73421  1.0000
  H   H1066     1.0  0.79851  0.77665  0.65161  1.0000
  H   H1067     1.0  0.75918  0.79945  0.63322  1.0000
  H   H1068     1.0  0.74398  0.70512  0.77661  1.0000
  H   H1069     1.0  0.61971  0.91870  0.79602  1.0000
  C   C634      1.0  0.59912  0.94370  0.82730  1.0000
  H   H1070     1.0  0.53726  0.98536  0.99404  1.0000
  H   H1071     1.0  0.72376  0.79564  0.52480  1.0000
  C   C635      1.0  0.57383  0.88403  0.78789  1.0000
  C   C636      1.0  0.59657  0.87157  0.77881  1.0000
  C   C637      1.0  0.61104  0.88046  0.75174  1.0000
  C   C638      1.0  0.60243  0.90147  0.73300  1.0000
  C   C639      1.0  0.57957  0.91367  0.74191  1.0000
  C   C640      1.0  0.56569  0.90539  0.76955  1.0000
  H   H1072     1.0  0.60304  0.85499  0.79279  1.0000
  H   H1073     1.0  0.62851  0.87075  0.74500  1.0000
  H   H1074     1.0  0.57268  0.92983  0.72746  1.0000
  H   H1075     1.0  0.54842  0.91525  0.77623  1.0000
  C   C641      1.0  0.62292  0.96794  0.76951  1.0000
  C   C642      1.0  0.69123  0.93899  0.55212  1.0000
  C   C643      1.0  0.66624  0.93021  0.55619  1.0000
  S   S188      1.0  0.53113  0.98358  0.88133  1.0000
  H   H1076     1.0  0.65771  0.92888  0.58016  1.0000
  H   H1077     1.0  0.69159  0.99146  0.70988  1.0000
  S   S189      1.0  0.88798  0.74262  0.57493  1.0000
  H   H1078     1.0  0.65074  0.99518  0.74700  1.0000
  H   H1079     1.0  0.75300  0.99396  0.77772  1.0000
  C   C644      1.0  0.99773  0.75905  0.71687  1.0000
  H   H1080     1.0  0.51152  0.86353  0.65954  1.0000
  N   N45       1.0  0.64017  0.95455  0.79387  1.0000
  H   H1081     1.0  0.58983  0.92719  0.84014  1.0000
  H   H1082     1.0  0.77117  0.70684  0.80163  1.0000
  H   H1083     1.0  0.99900  0.77951  0.71925  1.0000
  H   H1084     1.0  0.76966  0.68080  0.72515  1.0000
  H   H1085     1.0  0.65337  0.92662  0.75991  1.0000
  H   H1086     1.0  0.74032  0.75260  0.77381  1.0000
  C   C645      1.0  0.80284  0.73026  0.75461  1.0000
  H   H1087     1.0  0.76996  0.75543  0.79590  1.0000
  H   H1088     1.0  0.77380  0.96834  0.64219  1.0000
  C   C646      1.0  0.63573  0.98176  0.74018  1.0000
  Fe  Fe94      1.0  0.85545  0.69221  0.67795  1.0000
  H   H1089     1.0  0.55467  0.95018  0.96227  1.0000
  H   H1090     1.0  0.60203  0.95846  0.84552  1.0000
  H   H1091     1.0  0.52802  0.98718  0.95274  1.0000
  S   S190      1.0  0.52742  0.91103  0.89420  1.0000
  H   H1092     1.0  0.69623  0.91841  0.78344  1.0000
  H   H1093     1.0  0.95140  0.70048  0.54310  1.0000
  C   C647      1.0  0.77681  0.72710  0.68919  1.0000
  H   H1094     1.0  0.80935  0.72488  0.80722  1.0000
  H   H1095     1.0  0.79873  0.75105  0.75619  1.0000
  C   C648      1.0  0.81943  0.72240  0.78382  1.0000
  S   S191      1.0  0.89303  0.69414  0.65142  1.0000
  H   H1096     1.0  0.61047  0.98219  0.78152  1.0000
  H   H1097     1.0  0.60975  0.95400  0.75873  1.0000
  H   H1098     1.0  0.64370  0.96780  0.72307  1.0000
  N   N46       1.0  0.71975  0.86009  0.54211  1.0000
  C   C649      1.0  0.72421  0.87223  0.57428  1.0000
  H   H1099     1.0  0.98228  0.76973  0.65313  1.0000
  H   H1100     1.0  0.74464  0.71936  0.72091  1.0000
  H   H1101     1.0  0.75982  0.97617  0.60390  1.0000
  C   C650      1.0  0.75239  0.87583  0.58384  1.0000
  C   C651      1.0  0.95971  0.69773  0.51856  1.0000
  C   C652      1.0  0.72313  0.98951  0.74298  1.0000
  C   C653      1.0  0.66146  0.94072  0.77665  1.0000
  H   H1102     1.0  0.71486  0.89138  0.57492  1.0000
  H   H1103     1.0  0.71544  0.86075  0.59452  1.0000
  C   C654      1.0  0.70388  0.00219  0.72515  1.0000
  C   C655      1.0  0.97996  0.77068  0.62637  1.0000
  H   H1104     1.0  0.94453  0.74750  0.62772  1.0000
  H   H1105     1.0  0.99759  0.77794  0.56812  1.0000
  H   H1106     1.0  0.67477  0.85408  0.58485  1.0000
  H   H1107     1.0  0.68177  0.99836  0.82655  1.0000
  H   H1108     1.0  0.63563  0.92548  0.83233  1.0000
  H   H1109     1.0  0.72308  0.82301  0.56722  1.0000
  H   H1110     1.0  0.65815  0.96274  0.83976  1.0000
  C   C656      1.0  0.75344  0.74297  0.79131  1.0000
  H   H1111     1.0  0.72147  0.94753  0.51780  1.0000
  H   H1112     1.0  0.78128  0.70742  0.68171  1.0000
  H   H1113     1.0  0.68473  0.88149  0.53577  1.0000
  H   H1114     1.0  0.62105  0.99298  0.72656  1.0000
  H   H1115     1.0  0.76370  0.73571  0.67082  1.0000
  H   H1116     1.0  0.65424  0.84755  0.55219  1.0000
  Fe  Fe95      1.0  0.52347  0.89477  0.84464  1.0000
  H   H1117     1.0  0.78784  0.73049  0.52536  1.0000
  C   C657      1.0  0.65209  0.92341  0.52911  1.0000
  C   C658      1.0  0.67439  0.84611  0.56033  1.0000
  H   H1118     1.0  0.69018  0.93942  0.81558  1.0000
  C   C659      1.0  0.75779  0.97891  0.63030  1.0000
  C   C660      1.0  0.76391  0.72807  0.72291  1.0000
  H   H1119     1.0  0.97539  0.71851  0.60324  1.0000
  H   H1120     1.0  0.98405  0.79082  0.61877  1.0000
  C   C661      1.0  0.64987  0.97297  0.81820  1.0000
  C   C662      1.0  0.76173  0.71622  0.78039  1.0000
  H   H1121     1.0  0.82674  0.70265  0.78201  1.0000
  H   H1122     1.0  0.63269  0.91673  0.53232  1.0000
  H   H1123     1.0  0.70849  0.99698  0.62778  1.0000
  H   H1124     1.0  0.52362  0.93814  0.95512  1.0000
  Fe  Fe96      1.0  0.51165  0.94674  0.87074  1.0000
  H   H1125     1.0  0.52142  0.84271  0.69203  1.0000
  C   C663      1.0  0.95133  0.76664  0.61943  1.0000
  H   H1126     1.0  0.97775  0.75091  0.56521  1.0000
  N   N47       1.0  0.77853  0.71550  0.75053  1.0000
  H   H1127     1.0  0.76256  0.85735  0.58748  1.0000
  H   H1128     1.0  0.67950  0.82555  0.56161  1.0000
  H   H1129     1.0  0.58536  0.95072  0.80876  1.0000
  H   H1130     1.0  0.67288  0.95369  0.76061  1.0000
  H   H1131     1.0  0.67200  0.91010  0.81226  1.0000
  H   H1132     1.0  0.63374  0.98400  0.82864  1.0000
  C   C664      1.0  0.68078  0.92645  0.79874  1.0000
  C   C665      1.0  0.53492  0.94916  0.97229  1.0000
  H   H1133     1.0  0.00225  0.68574  0.62583  1.0000
  H   H1134     1.0  0.74267  0.74087  0.81454  1.0000
  H   H1135     1.0  0.83643  0.73500  0.78388  1.0000
  H   H1136     1.0  0.98083  0.72490  0.64435  1.0000
  H   H1137     1.0  0.81536  0.72859  0.73295  1.0000
  H   H1138     1.0  0.76065  0.74875  0.72703  1.0000
  H   H1139     1.0  0.68289  0.98610  0.78776  1.0000
  C   C666      1.0  0.86713  0.70223  0.54279  1.0000
  H   H1140     1.0  0.73999  0.96981  0.63948  1.0000
  H   H1141     1.0  0.53603  0.93852  0.99589  1.0000
  H   H1142     1.0  0.79440  0.73867  0.68816  1.0000
  C   C667      1.0  0.69139  0.86131  0.53598  1.0000
  H   H1143     1.0  0.51893  0.88370  0.97683  1.0000
  H   H1144     1.0  0.75092  0.83305  0.54730  1.0000
  H   H1145     1.0  0.52637  0.87677  0.69378  1.0000
  N   N48       1.0  0.99829  0.75244  0.61047  1.0000
  C   C668      1.0  0.52455  0.97657  0.97617  1.0000
  H   H1146     1.0  0.99313  0.68573  0.71027  1.0000
  C   C669      1.0  0.66939  0.99311  0.80612  1.0000
  H   H1147     1.0  0.73310  0.89629  0.52162  1.0000
  C   C670      1.0  0.51299  0.86179  0.68634  1.0000
  H   H1148     1.0  0.97957  0.70470  0.51909  1.0000
  C   C671      1.0  0.99658  0.75713  0.57430  1.0000
  H   H1149     1.0  0.52185  0.88130  0.74817  1.0000
  C   C672      1.0  0.73834  0.00355  0.76349  1.0000
  S   S192      1.0  0.51069  0.93150  0.82103  1.0000
  H   H1150     1.0  0.80273  0.68688  0.72806  1.0000
  H   H1151     1.0  0.66234  0.00350  0.55424  1.0000
  H   H1152     1.0  0.50891  0.92708  0.74659  1.0000
