data_image0
_chemical_formula_structural       SHSHFeSFeHSCFeS2FeS2FeSFeS3C3H2CHC4FeH3C3H4CHCFeC6H8CH4CH2CH3CHCH4SHCH2C3HCHC3SCH2C2SHC2HCNH5CH4C2H4CHCHNHCH5C2NC7H18CH3CHCH8CH2C2H3CHC3HNHFeS2HSCFeSFeHS2FeS2FeS2FeSFeS3FeS2FeS2FeSFeS3C2H5CNHC6H4C3H2C4H3C5H3C6H4C2NCH4CH2CH2CH2C2H2CNCH6C3HC3HC2H7CHC4HCH3CH2CH2CHSHNC8H21CH2CH2C3H2CH2NCH2CH5CNH3CH4CHCHC2H5SH3CH3NH3NHC2HCH3CHCH2CHCH3CHC2H2CHC2H4CHCH4CH4CNHCSH3FeH6FeSHFeSCFeSFeSHSFeS2FeS2FeSFeS3HFeS2FeS2FeSFeS3C2H3C4H3C6H6C2HC3HCH2C6H4C6H4CHC2H6CH2CH2CHC3H2SHSH2CHNC8H17CH2NC2HCSCH6CH3CH4C2H3NCHCHCH6C3HCH2CHCH2C3H2NCH4CH2CH4C3H3CHNH7C3H3C2H5C2H2NCH2CH3CH4CH4CHCSCHCH3CH7C2H5C2H3CH8CH3CH7C2HSCHFeS2FeS2FeSFeS3FeSHSFeSFeS2C2H2CH2CHC7H4C6H4C6H4CHC2H3CH5SHSHSFeHCH2CH2CHCH10CH2CH6CH3CHCH2CH2CNC3H2CH6CH3SH3NCHC6H11C2H6CNCHC6H4CH5CHNHC2H3CH6CH2NH2CH3CHSC2SHFeSHFeHFeSHSFeS2FeS2FeSFeHS2C3H4CH6CHCH3C6H4C3H2C2HS2HSH2CHSHNH6CH6CHCHC2NC2H2NC5H3FeH3CHCH2SHC3H3CH6FeS2FeS2FeSFeS3FeS2FeS2FeSFeS3HFeS2FeS2FeSFeS3CHC4H3C6H4C6H4C2H3C2H3C6H4C4H5CH2C4H3NH2C2H5CH10CH4CNC8H14CHCH4CH6CHCHCH6CNSCH2CHCHCHC2H7C2H2C2NHC2NHCH2CNC2H3CH4CH4C2H2C2HC2H8C2H6CH3CHCH2CH3C2H3CHCHCHCH2SCH2NH2CHCHCFeSHFeSHFeSFeS3FeS2FeS2FeSFeS3HFeS2FeSFeSFeS4CHC3H2C6H4C6H4C6H4C6H6C4H2CHCH5CH8CHC2HC2HCH2NHCH2SHNC2H3CHCHC2NH2CH2CH7NHC2H2C3H8CH5CH5NC4HCH11CH4CH4C3H2CH3CHCH3CHSHCHCHC2H2CH4SH7CH3CH3FeH3CH4NC3HCH3NC2H2CSH12CH2C3H2CHCHFeSHFeS2FeSFeS3HSCHSHFeSFeSHC3HCH2CH2C8H4C6H3CH2CH2FeHSH3CH3CFeCH7SCHC2HCNCH4CH3NH3C2H3CH2SH3CHC2HCH5CH12CHFeS2FeS2FeSFeS3FeS4FeSFeS2FeSHFeSFeS3HCH5C6H4C3H3CH3SC6H4C6H4C6H4CHSCHCH3NC8H20NCHC3FeC2FeH11C2H6C2H6SH2FeC2H5CH3CHC4H5CSHC2H3CH6CH2SHCHFeHNHCH2C2SH3SFeCH2CH2C2H2S2CH2CHCH3C2HSCH3FeSHSFeS2FeS2FeHFeS3C3H6C7H3CH3CHNCH4CH2CHCH2CNC2H2SH5CH4CH3CHC3H2C2H3FeCHSH2SH2CNH2CHC2HCH2C2H2C2HCH4C2HCHFeSHFeS2FeSFeS3CHFeS2FeSFeCS2HCH7C2SCHCH2C5H3C6H6NH13C3H6C2HCH2CHCH2C2H4C2SHCH2NH2CHC2HC2HCHSFeHFeS2FeS2FeSFeS3FeC2FeS2FeHFeHS2FeS2FeS2FeSFeS4HFeS2H5C6H4C2H2C2SH3C6H4CHC2HC6H4C6H4C4H3CH2NCHCH3CH2SH2CH2CH2CHCNH8C3H3CH4NC6HCH14NH5NC2H4C2H6CH4CHCH2CH4CHCHC2HNH2CHCH5CH2CH5C3H4CH2N2CH2CH2CHCSCH2CFeCH4CH2C2H4SHSC2H2CHCH11C3H2C3H3CH2CH4FeCH2CFeHSH2NHCHCH8CHC5HCHFeS2FeS2FeSFeS3FeS2FeS2FeCFeSCS2FeSFeSHSFeS2FeS2FeSFeS3HC6H4C6H7SC6H3C2HC2H2C6H4C6H5C2H3CH2CHNHC3H2CH6C2H9NC7H17C2NC2H3CH7CH5CH2SC4HCH3CHC3H2C2HCHFeC2FeNC2H5CH4CH2CH3CH4CH3NCH5C2H3CH2C2H4CH4CSNCHC3HSHCHCH2CH2C2H2SHCHC2H8CH3NH3CHNH4CH2CH2CNH7CH4SCHC2HCHCH2CH4C2HCHCHCH4CH5NC3H4CH3CHC4FeS2FeCFeS2FeS2FeS2FeSFeS3C4H4CH2CH3C6H2CH2C2HC6H8FeH2CH15C2H2CH5CHNHSCH3C2H5C4H2CNSCH5CH4CHNCHCH4C4HCH4CH10CNH2CH3CHCHCHC2SH2CFeS2FeS2FeSFeS3HFeS2FeSFeHS2HCH2C3NHC3HC2NC2H3CHCH2C6H4C4H2CHC3H2C2H4CHC2H3CH2CH7CH3CHC2HCH3C2NHNHCHC2H2CHCHCSCH5C3H2FeH4C2H6C2HCH6CHCH2C2H14CH4C2FeS2FeS2FeSFeS3FeSNFeS2FeSFeS3FeS2FeS2FeSFeS3FeSHFeSHFeSFeCSC6HCHCHC6H4C3HSH3CH4CNSC2HC7H3C3H2C2HC6H4C6H7NHCH3CH6CH2NHC2H2C2H2NC8H20C3H3CHCH3CH4CH4C3H3NHCSH2CHCH11SH3C2HC2H5C2H4C2H3CHC2H5CH5C3H4CSHCH2CH7C3H5CH5CH3CNCHCHCH3CH5CHFeS2FeS2FeSFeS3HFeSFeS2FeSFeS3H3C3H3C4H3C3H2CH4C6H4CH4C6H4C2H9C2H3C2H3CHCHCHCH2CH4CH2CNHNSCH3CH3CH4C2H2CH2CH2C2HC2H7C2NSCHC3H2CH4C2HCH2C2H5C2H2C2NHC2H3NH2CHCNC2H3CHCHCH8SH3SH5SH2CHFeCHC2HNCFeS2FeS2FeSFeS3H2FeS2FeS2FeCFeS3FeSHFeS2FeSFeS3H3CHC2HC6H6CHCHC2H5C6H5C2H2C6H2CH2C2HNC7H13C3H2SH6CH5CH5C2H3CH5FeHCHCH6NC3H4CH9SCHCH2FeHC2NSH2CHNHC3HC3HCH2CHCHCH5CH7CHCH2CFeS2FeS2FeCFeS3H3FeS2FeSFeHS2FeS2FeSHFeSFeS3HCH3CHSH2C6H5C6H3CHC6H4CH3NC6H3CH3CH5CH2CH2CH7C2H3NC6H9CH2C2NH8C4HCH2CH6CH4CFeH7C3HSH2CNSHNHCHCH4CH2CH4CH4CH2C2H4CHCH4SHCHC2H4CHCH2C2HCNCHCHCH2SCH2NCH3CHC3H2CH3NH2CH3CHFeS2FeS2FeSFeS3FeS2FeS2FeSFeS2C5H4CHCH5C2HCH4C2H2C2HC2HC6H4C6H6CHC2HC2H2CH2NC8H20NC8H22NC2HC2H2CH3CH4SCH3CH4NH2CH6CHNHCSHCHCH3C2SCHSH2C2HCH2CH2CHCH6FeS2FeSFeSFeS3FeSCFeS2FeSFeHS2HCH5C2H3C7H4C2H12C5H5CH6CH3C2H3CHC2HCH4CH6CH2NH2CH8CHCSH5CHCH2CHCHCNC8H2CHC2H2C2H4SCH2CHCHCHSHNCH2CH6CH4C3H3CFeS2FeS2FeSFeS3HCHCFeS2FeS2FeSFeS2FeS2FeS2FeCFeS3H5CH4C6H4C4H2C2H5C6H4C6H4C3H3CH2CNCH4CHCH5CHCH3CH5CH4C2H4CHCH6C2NCHCHCH3NC2NC2HC2H8NH2C4H6CH4C3H2CH4CH6CH2CHNC5H2CH7NCH2CH2CHCHC2HCH3CH4CH2CHCH2CH4CH5CH2SH4CHSHCHC2H3CH3C3H2CH3FeS2FeS2FeSFeS3H4FeS2FeSFeS2CFeS2FeSHFeSCSC2HCNH7C6H4C6H9C6H5C5H2SHCHSHCH8CHC2H8C3H4CHCH4CH3N2C4H15C5H2CHNHC8H5CH2CSCHSH6C2H4NC2H2SCHCH2CH3C2H4NHCH7FeCFeS2FeSHFeSFeS3HSCFeS2FeHFeS3CH2CH5CHC7H4C6H2CH3CH2C4HCHCSH7C2HCHCSCHNC8H20C3H4CH3SH2CH4NH2CHNCH7FeCH4CH6CH4
_chemical_formula_sum              "S512 H3072 Fe256 C1792 N128"
_cell_length_a       65.8937
_cell_length_b       66.3161
_cell_length_c       79.9225
_cell_angle_alpha    81.5386
_cell_angle_beta     81.5263
_cell_angle_gamma    80.8034

_space_group_name_H-M_alt    "P 1"
_space_group_IT_number       1

loop_
  _space_group_symop_operation_xyz
  'x, y, z'

loop_
  _atom_site_type_symbol
  _atom_site_label
  _atom_site_symmetry_multiplicity
  _atom_site_fract_x
  _atom_site_fract_y
  _atom_site_fract_z
  _atom_site_occupancy
  S   S1        1.0  0.27611  0.33482  0.06302  1.0000
  H   H1        1.0  0.20802  0.47656  0.09380  1.0000
  S   S2        1.0  0.26076  0.37987  0.04224  1.0000
  H   H2        1.0  0.29204  0.26934  0.07018  1.0000
  Fe  Fe1       1.0  0.26130  0.36613  0.06972  1.0000
  S   S3        1.0  0.23626  0.37711  0.09069  1.0000
  Fe  Fe2       1.0  0.27836  0.34954  0.03567  1.0000
  H   H3        1.0  0.09613  0.45490  0.20964  1.0000
  S   S4        1.0  0.29204  0.37585  0.07177  1.0000
  C   C1        1.0  0.26457  0.43848  0.09816  1.0000
  Fe  Fe3       1.0  0.12896  0.36588  0.14283  1.0000
  S   S5        1.0  0.14563  0.37133  0.16382  1.0000
  S   S6        1.0  0.14822  0.34987  0.12129  1.0000
  Fe  Fe4       1.0  0.08635  0.38433  0.15988  1.0000
  S   S7        1.0  0.10060  0.39144  0.18183  1.0000
  S   S8        1.0  0.05160  0.39507  0.16445  1.0000
  Fe  Fe5       1.0  0.12576  0.40198  0.16217  1.0000
  S   S9        1.0  0.14203  0.42944  0.16070  1.0000
  Fe  Fe6       1.0  0.11897  0.36017  0.18151  1.0000
  S   S10       1.0  0.12096  0.33792  0.20566  1.0000
  S   S11       1.0  0.11043  0.39757  0.14000  1.0000
  S   S12       1.0  0.10339  0.35204  0.16074  1.0000
  C   C2        1.0  0.13401  0.44555  0.17664  1.0000
  C   C3        1.0  0.14373  0.46296  0.17590  1.0000
  C   C4        1.0  0.11726  0.44220  0.18921  1.0000
  H   H4        1.0  0.15677  0.46555  0.16628  1.0000
  H   H5        1.0  0.10971  0.42884  0.18978  1.0000
  C   C5        1.0  0.00027  0.37346  0.14129  1.0000
  H   H6        1.0  0.99919  0.47309  0.13458  1.0000
  C   C6        1.0  0.01147  0.39209  0.16147  1.0000
  C   C7        1.0  0.03235  0.38608  0.15543  1.0000
  C   C8        1.0  0.03719  0.37359  0.14235  1.0000
  C   C9        1.0  0.02117  0.36748  0.13519  1.0000
  Fe  Fe7       1.0  0.30692  0.34548  0.06273  1.0000
  H   H7        1.0  0.00771  0.40197  0.17144  1.0000
  H   H8        1.0  0.05323  0.36893  0.13754  1.0000
  H   H9        1.0  0.02502  0.35813  0.12485  1.0000
  C   C10       1.0  0.14256  0.36216  0.21976  1.0000
  C   C11       1.0  0.13098  0.34578  0.22253  1.0000
  C   C12       1.0  0.99098  0.35788  0.23023  1.0000
  H   H10       1.0  0.21472  0.27115  0.19091  1.0000
  H   H11       1.0  0.14556  0.37024  0.20706  1.0000
  H   H12       1.0  0.99835  0.45877  0.15573  1.0000
  H   H13       1.0  0.31816  0.29885  0.04617  1.0000
  C   C13       1.0  0.31045  0.45163  0.06747  1.0000
  H   H14       1.0  0.27107  0.44809  0.10577  1.0000
  C   C14       1.0  0.26815  0.34142  0.99542  1.0000
  Fe  Fe8       1.0  0.29194  0.38838  0.04413  1.0000
  C   C15       1.0  0.21171  0.36931  0.09856  1.0000
  C   C16       1.0  0.20483  0.35278  0.09306  1.0000
  C   C17       1.0  0.18529  0.34705  0.10001  1.0000
  C   C18       1.0  0.17245  0.35780  0.11245  1.0000
  C   C19       1.0  0.17931  0.37438  0.11786  1.0000
  C   C20       1.0  0.19884  0.38005  0.11098  1.0000
  H   H15       1.0  0.21457  0.34440  0.08351  1.0000
  H   H16       1.0  0.18009  0.33424  0.09571  1.0000
  H   H17       1.0  0.16960  0.38285  0.12737  1.0000
  H   H18       1.0  0.20400  0.39282  0.11534  1.0000
  H   H19       1.0  0.05246  0.42971  0.21880  1.0000
  H   H20       1.0  0.23964  0.42733  0.99646  1.0000
  H   H21       1.0  0.24088  0.35910  0.00708  1.0000
  H   H22       1.0  0.28051  0.41101  0.11158  1.0000
  C   C21       1.0  0.19896  0.27949  0.18933  1.0000
  H   H23       1.0  0.09716  0.48050  0.16864  1.0000
  H   H24       1.0  0.19674  0.45541  0.10642  1.0000
  H   H25       1.0  0.11826  0.44235  0.12311  1.0000
  H   H26       1.0  0.99179  0.42752  0.14395  1.0000
  C   C22       1.0  0.24732  0.42730  0.06828  1.0000
  H   H27       1.0  0.27477  0.27085  0.02200  1.0000
  H   H28       1.0  0.99537  0.37207  0.23381  1.0000
  C   C23       1.0  0.24973  0.35517  0.99520  1.0000
  H   H29       1.0  0.19370  0.28769  0.20067  1.0000
  H   H30       1.0  0.00351  0.34518  0.23374  1.0000
  H   H31       1.0  0.10404  0.45326  0.14793  1.0000
  C   C24       1.0  0.31453  0.28212  0.01772  1.0000
  H   H32       1.0  0.24291  0.39946  0.99959  1.0000
  C   C25       1.0  0.10971  0.45681  0.20052  1.0000
  H   H33       1.0  0.22665  0.43991  0.11732  1.0000
  H   H34       1.0  0.27593  0.38976  0.00168  1.0000
  H   H35       1.0  0.22940  0.42197  0.09308  1.0000
  H   H36       1.0  0.20725  0.33973  0.15902  1.0000
  S   S13       1.0  0.27726  0.33020  0.01481  1.0000
  H   H37       1.0  0.08874  0.42375  0.22605  1.0000
  C   C26       1.0  0.10746  0.47529  0.11509  1.0000
  H   H38       1.0  0.09412  0.40061  0.21686  1.0000
  H   H39       1.0  0.18899  0.26758  0.18913  1.0000
  C   C27       1.0  0.01121  0.35653  0.20211  1.0000
  C   C28       1.0  0.09356  0.46793  0.14518  1.0000
  C   C29       1.0  0.29912  0.25591  0.03804  1.0000
  H   H40       1.0  0.29908  0.29048  0.01521  1.0000
  C   C30       1.0  0.20814  0.46622  0.10598  1.0000
  H   H41       1.0  0.13435  0.46828  0.13985  1.0000
  C   C31       1.0  0.22977  0.45424  0.10883  1.0000
  C   C32       1.0  0.29147  0.46106  0.03777  1.0000
  C   C33       1.0  0.06458  0.41849  0.21284  1.0000
  S   S14       1.0  0.29571  0.42090  0.03143  1.0000
  C   C34       1.0  0.23408  0.43544  0.08413  1.0000
  H   H42       1.0  0.02857  0.36836  0.21940  1.0000
  H   H43       1.0  0.01803  0.45113  0.13918  1.0000
  C   C35       1.0  0.13606  0.47760  0.18701  1.0000
  C   C36       1.0  0.30394  0.27981  0.06684  1.0000
  S   S15       1.0  0.30965  0.35901  0.03522  1.0000
  H   H44       1.0  0.16013  0.38012  0.23118  1.0000
  C   C37       1.0  0.15076  0.36776  0.23343  1.0000
  C   C38       1.0  0.11885  0.47472  0.19912  1.0000
  H   H45       1.0  0.07928  0.46237  0.17146  1.0000
  C   C39       1.0  0.26450  0.41703  0.10872  1.0000
  N   N1        1.0  0.31395  0.27154  0.03582  1.0000
  H   H46       1.0  0.01829  0.34020  0.20519  1.0000
  H   H47       1.0  0.27628  0.43657  0.08680  1.0000
  H   H48       1.0  0.29216  0.29720  0.04439  1.0000
  H   H49       1.0  0.31879  0.27241  0.07132  1.0000
  H   H50       1.0  0.20165  0.32716  0.18900  1.0000
  C   C40       1.0  0.29819  0.44037  0.04362  1.0000
  H   H51       1.0  0.31855  0.27056  0.00852  1.0000
  H   H52       1.0  0.20275  0.47638  0.11612  1.0000
  H   H53       1.0  0.01122  0.35901  0.18805  1.0000
  H   H54       1.0  0.26701  0.25157  0.03853  1.0000
  C   C41       1.0  0.00139  0.45749  0.14187  1.0000
  C   C42       1.0  0.27642  0.26443  0.03543  1.0000
  H   H55       1.0  0.05768  0.40595  0.20898  1.0000
  H   H56       1.0  0.08194  0.37093  0.21611  1.0000
  H   H57       1.0  0.13881  0.45719  0.11375  1.0000
  H   H58       1.0  0.18007  0.33576  0.20315  1.0000
  C   C43       1.0  0.02657  0.37021  0.20572  1.0000
  H   H59       1.0  0.29854  0.29313  0.07410  1.0000
  C   C44       1.0  0.30750  0.43570  0.05860  1.0000
  H   H60       1.0  0.31305  0.36941  0.99517  1.0000
  N   N2        1.0  0.24401  0.44912  0.09300  1.0000
  H   H61       1.0  0.08032  0.46340  0.14010  1.0000
  C   C45       1.0  0.12254  0.45512  0.11329  1.0000
  H   H62       1.0  0.99404  0.44061  0.12314  1.0000
  H   H63       1.0  0.09238  0.47243  0.11186  1.0000
  H   H64       1.0  0.04883  0.38728  0.23389  1.0000
  H   H65       1.0  0.04203  0.36549  0.19864  1.0000
  H   H66       1.0  0.02206  0.38667  0.20104  1.0000
  C   C46       1.0  0.24784  0.46825  0.08089  1.0000
  C   C47       1.0  0.08511  0.47536  0.16264  1.0000
  N   N3        1.0  0.18035  0.30831  0.16910  1.0000
  C   C48       1.0  0.16487  0.29464  0.16696  1.0000
  C   C49       1.0  0.20018  0.29446  0.17260  1.0000
  C   C50       1.0  0.18387  0.32240  0.15254  1.0000
  C   C51       1.0  0.17126  0.32047  0.18363  1.0000
  C   C52       1.0  0.14386  0.30579  0.16177  1.0000
  C   C53       1.0  0.20443  0.33154  0.14870  1.0000
  C   C54       1.0  0.18519  0.33397  0.18949  1.0000
  H   H67       1.0  0.17155  0.28417  0.15720  1.0000
  H   H68       1.0  0.16093  0.28452  0.17901  1.0000
  H   H69       1.0  0.21292  0.30333  0.17311  1.0000
  H   H70       1.0  0.20589  0.28513  0.16188  1.0000
  H   H71       1.0  0.18338  0.31425  0.14137  1.0000
  H   H72       1.0  0.17117  0.33559  0.15174  1.0000
  H   H73       1.0  0.15735  0.33118  0.18022  1.0000
  H   H74       1.0  0.16486  0.31051  0.19502  1.0000
  H   H75       1.0  0.14558  0.31615  0.14960  1.0000
  H   H76       1.0  0.13436  0.29413  0.15981  1.0000
  H   H77       1.0  0.13483  0.31445  0.17193  1.0000
  H   H78       1.0  0.20391  0.34295  0.13707  1.0000
  H   H79       1.0  0.21780  0.31956  0.14578  1.0000
  H   H80       1.0  0.18388  0.34954  0.18204  1.0000
  H   H81       1.0  0.12203  0.45020  0.10067  1.0000
  H   H82       1.0  0.31797  0.44789  0.07891  1.0000
  H   H83       1.0  0.27284  0.42587  0.00213  1.0000
  H   H84       1.0  0.28409  0.46476  0.02627  1.0000
  C   C55       1.0  0.30836  0.38637  0.99343  1.0000
  H   H85       1.0  0.26940  0.27608  0.04401  1.0000
  H   H86       1.0  0.07158  0.42689  0.20086  1.0000
  H   H87       1.0  0.26187  0.41751  0.07141  1.0000
  C   C56       1.0  0.08164  0.41021  0.22433  1.0000
  H   H88       1.0  0.25995  0.40569  0.10160  1.0000
  C   C57       1.0  0.30689  0.28772  0.04768  1.0000
  H   H89       1.0  0.21933  0.44375  0.07981  1.0000
  H   H90       1.0  0.31287  0.41983  0.06317  1.0000
  H   H91       1.0  0.30970  0.39263  0.00529  1.0000
  H   H92       1.0  0.25096  0.43992  0.05807  1.0000
  H   H93       1.0  0.29841  0.24707  0.05098  1.0000
  H   H94       1.0  0.25454  0.41754  0.12113  1.0000
  H   H95       1.0  0.06423  0.35416  0.22693  1.0000
  H   H96       1.0  0.30473  0.24427  0.02904  1.0000
  C   C58       1.0  0.30381  0.47233  0.06163  1.0000
  H   H97       1.0  0.23841  0.41742  0.06294  1.0000
  H   H98       1.0  0.26094  0.46461  0.07083  1.0000
  C   C59       1.0  0.29407  0.47699  0.04683  1.0000
  C   C60       1.0  0.99549  0.38556  0.15463  1.0000
  H   H99       1.0  0.29813  0.42755  0.99171  1.0000
  H   H100      1.0  0.23717  0.46261  0.11686  1.0000
  H   H101      1.0  0.23448  0.47429  0.07368  1.0000
  C   C61       1.0  0.28181  0.42826  0.98923  1.0000
  H   H102      1.0  0.27631  0.46121  0.99027  1.0000
  C   C62       1.0  0.28584  0.39108  0.98915  1.0000
  C   C63       1.0  0.24093  0.41334  0.99009  1.0000
  C   C64       1.0  0.07510  0.36452  0.22890  1.0000
  H   H103      1.0  0.99022  0.34059  0.18032  1.0000
  N   N4        1.0  0.98945  0.36016  0.21132  1.0000
  H   H104      1.0  0.08723  0.35460  0.23573  1.0000
  Fe  Fe9       1.0  0.28617  0.01781  0.43918  1.0000
  S   S16       1.0  0.25761  0.02510  0.42585  1.0000
  S   S17       1.0  0.28091  0.00563  0.46727  1.0000
  H   H105      1.0  0.17467  0.43892  0.30432  1.0000
  S   S18       1.0  0.28820  0.03880  0.39089  1.0000
  C   C65       1.0  0.11075  0.09888  0.37983  1.0000
  Fe  Fe10      1.0  0.27052  0.05386  0.41344  1.0000
  S   S19       1.0  0.25573  0.08748  0.41476  1.0000
  Fe  Fe11      1.0  0.27754  0.00925  0.40484  1.0000
  H   H106      1.0  0.14006  0.43067  0.27040  1.0000
  S   S20       1.0  0.29819  0.04718  0.42798  1.0000
  S   S21       1.0  0.30512  0.99992  0.41907  1.0000
  Fe  Fe12      1.0  0.13339  0.38588  0.32408  1.0000
  S   S22       1.0  0.12367  0.39529  0.29817  1.0000
  S   S23       1.0  0.14691  0.40860  0.33616  1.0000
  Fe  Fe13      1.0  0.12010  0.34307  0.32728  1.0000
  S   S24       1.0  0.10947  0.34928  0.30118  1.0000
  S   S25       1.0  0.11009  0.31518  0.34507  1.0000
  Fe  Fe14      1.0  0.13846  0.36371  0.29273  1.0000
  S   S26       1.0  0.15755  0.36461  0.26682  1.0000
  Fe  Fe15      1.0  0.09568  0.38035  0.30852  1.0000
  S   S27       1.0  0.06456  0.39772  0.30360  1.0000
  S   S28       1.0  0.15060  0.35499  0.31819  1.0000
  S   S29       1.0  0.10395  0.37347  0.33512  1.0000
  Fe  Fe16      1.0  0.14864  0.16831  0.41156  1.0000
  S   S30       1.0  0.15737  0.19143  0.42627  1.0000
  S   S31       1.0  0.16463  0.13584  0.40689  1.0000
  Fe  Fe17      1.0  0.10618  0.19479  0.40616  1.0000
  S   S32       1.0  0.11177  0.21934  0.42072  1.0000
  S   S33       1.0  0.07762  0.20021  0.39249  1.0000
  Fe  Fe18      1.0  0.14375  0.21573  0.40615  1.0000
  S   S34       1.0  0.15877  0.24339  0.39246  1.0000
  Fe  Fe19      1.0  0.12449  0.19320  0.43932  1.0000
  S   S35       1.0  0.11202  0.18841  0.46741  1.0000
  S   S36       1.0  0.13754  0.19239  0.39053  1.0000
  S   S37       1.0  0.11637  0.16884  0.42568  1.0000
  C   C66       1.0  0.05273  0.17837  0.41714  1.0000
  C   C67       1.0  0.05384  0.19239  0.40228  1.0000
  H   H107      1.0  0.15768  0.13175  0.36997  1.0000
  H   H108      1.0  0.06655  0.17247  0.42312  1.0000
  H   H109      1.0  0.12809  0.15128  0.38806  1.0000
  H   H110      1.0  0.07036  0.14933  0.35902  1.0000
  H   H111      1.0  0.02384  0.30070  0.33156  1.0000
  C   C68       1.0  0.01955  0.46558  0.30714  1.0000
  N   N5        1.0  0.04955  0.31558  0.33589  1.0000
  H   H112      1.0  0.14389  0.21482  0.46647  1.0000
  C   C69       1.0  0.12447  0.29415  0.35665  1.0000
  C   C70       1.0  0.14600  0.29221  0.35621  1.0000
  C   C71       1.0  0.15638  0.27635  0.36700  1.0000
  C   C72       1.0  0.14543  0.26215  0.37815  1.0000
  C   C73       1.0  0.12400  0.26377  0.37817  1.0000
  C   C74       1.0  0.11360  0.27972  0.36755  1.0000
  H   H113      1.0  0.15461  0.30306  0.34778  1.0000
  H   H114      1.0  0.17299  0.27508  0.36678  1.0000
  H   H115      1.0  0.11538  0.25293  0.38663  1.0000
  H   H116      1.0  0.09697  0.28100  0.36801  1.0000
  C   C75       1.0  0.14677  0.35753  0.25000  1.0000
  C   C76       1.0  0.05106  0.35170  0.34468  1.0000
  C   C77       1.0  0.04038  0.47828  0.32513  1.0000
  H   H117      1.0  0.13176  0.33343  0.26551  1.0000
  H   H118      1.0  0.07285  0.19503  0.45334  1.0000
  C   C78       1.0  0.02711  0.38879  0.29875  1.0000
  C   C79       1.0  0.04855  0.38297  0.29644  1.0000
  C   C80       1.0  0.05691  0.36556  0.28840  1.0000
  C   C81       1.0  0.04378  0.35358  0.28326  1.0000
  H   H119      1.0  0.04981  0.43932  0.35138  1.0000
  H   H120      1.0  0.02048  0.40236  0.30477  1.0000
  H   H121      1.0  0.07343  0.36123  0.28620  1.0000
  C   C82       1.0  0.02229  0.35904  0.28611  1.0000
  C   C83       1.0  0.14317  0.45034  0.33754  1.0000
  C   C84       1.0  0.13409  0.43417  0.33351  1.0000
  C   C85       1.0  0.11489  0.43857  0.32733  1.0000
  C   C86       1.0  0.10482  0.45895  0.32527  1.0000
  H   H122      1.0  0.15800  0.44703  0.34239  1.0000
  H   H123      1.0  0.10770  0.42626  0.32425  1.0000
  H   H124      1.0  0.04421  0.44706  0.29155  1.0000
  C   C87       1.0  0.23008  0.10035  0.41304  1.0000
  C   C88       1.0  0.21461  0.09068  0.40864  1.0000
  C   C89       1.0  0.19469  0.10178  0.40695  1.0000
  C   C90       1.0  0.18990  0.12259  0.40975  1.0000
  C   C91       1.0  0.20530  0.13215  0.41443  1.0000
  C   C92       1.0  0.22526  0.12110  0.41601  1.0000
  H   H125      1.0  0.21802  0.07475  0.40632  1.0000
  H   H126      1.0  0.18294  0.09419  0.40333  1.0000
  H   H127      1.0  0.20191  0.14814  0.41659  1.0000
  H   H128      1.0  0.23707  0.12876  0.41944  1.0000
  C   C93       1.0  0.13518  0.45998  0.28169  1.0000
  C   C94       1.0  0.04434  0.28652  0.36087  1.0000
  N   N6        1.0  0.31116  0.10303  0.38176  1.0000
  C   C95       1.0  0.06218  0.41279  0.25331  1.0000
  H   H129      1.0  0.28481  0.08683  0.44294  1.0000
  H   H130      1.0  0.09912  0.41507  0.26196  1.0000
  H   H131      1.0  0.11505  0.41278  0.24153  1.0000
  H   H132      1.0  0.28732  0.09037  0.46412  1.0000
  C   C96       1.0  0.04377  0.42973  0.34361  1.0000
  H   H133      1.0  0.06029  0.34679  0.35551  1.0000
  H   H134      1.0  0.06539  0.16830  0.37388  1.0000
  C   C97       1.0  0.04763  0.47948  0.34241  1.0000
  H   H135      1.0  0.04485  0.28323  0.37486  1.0000
  H   H136      1.0  0.06434  0.23328  0.44552  1.0000
  C   C98       1.0  0.01668  0.19354  0.40184  1.0000
  H   H137      1.0  0.03233  0.40080  0.26047  1.0000
  H   H138      1.0  0.02821  0.28594  0.35871  1.0000
  C   C99       1.0  0.26435  0.07024  0.46199  1.0000
  C   C100      1.0  0.28423  0.13116  0.39516  1.0000
  H   H139      1.0  0.29593  0.10149  0.40785  1.0000
  H   H140      1.0  0.05828  0.37326  0.25237  1.0000
  C   C101      1.0  0.27590  0.08895  0.45562  1.0000
  N   N7        1.0  0.15651  0.46625  0.27708  1.0000
  C   C102      1.0  0.22084  0.09509  0.46346  1.0000
  H   H141      1.0  0.30440  0.09525  0.34764  1.0000
  H   H142      1.0  0.03437  0.35389  0.34948  1.0000
  H   H143      1.0  0.25611  0.06814  0.45139  1.0000
  H   H144      1.0  0.27618  0.05625  0.46311  1.0000
  H   H145      1.0  0.15600  0.46876  0.24983  1.0000
  H   H146      1.0  0.05084  0.34448  0.31945  1.0000
  C   C103      1.0  0.23159  0.04407  0.46881  1.0000
  C   C104      1.0  0.05678  0.33646  0.33132  1.0000
  C   C105      1.0  0.29951  0.08460  0.35904  1.0000
  H   H147      1.0  0.01308  0.45757  0.35076  1.0000
  C   C106      1.0  0.03581  0.19985  0.39460  1.0000
  C   C107      1.0  0.03833  0.41515  0.25421  1.0000
  C   C108      1.0  0.13308  0.47081  0.33543  1.0000
  H   H148      1.0  0.06734  0.30709  0.35715  1.0000
  C   C109      1.0  0.04041  0.44064  0.32562  1.0000
  C   C110      1.0  0.17304  0.44772  0.27665  1.0000
  H   H149      1.0  0.17243  0.43927  0.26571  1.0000
  H   H150      1.0  0.03637  0.47552  0.35360  1.0000
  H   H151      1.0  0.22863  0.08984  0.45134  1.0000
  H   H152      1.0  0.21680  0.11202  0.46030  1.0000
  H   H153      1.0  0.07326  0.14382  0.39452  1.0000
  H   H154      1.0  0.05249  0.30809  0.30039  1.0000
  H   H155      1.0  0.03659  0.21062  0.38303  1.0000
  C   C111      1.0  0.03610  0.46308  0.29145  1.0000
  H   H156      1.0  0.09050  0.37867  0.26120  1.0000
  C   C112      1.0  0.03367  0.17186  0.42426  1.0000
  C   C113      1.0  0.12595  0.13762  0.38225  1.0000
  C   C114      1.0  0.30194  0.11307  0.39750  1.0000
  C   C115      1.0  0.29374  0.09573  0.37502  1.0000
  H   H157      1.0  0.20621  0.08832  0.46719  1.0000
  C   C116      1.0  0.05109  0.30784  0.35445  1.0000
  H   H158      1.0  0.03288  0.16089  0.43570  1.0000
  H   H159      1.0  0.11543  0.09791  0.39266  1.0000
  H   H160      1.0  0.10046  0.08694  0.38061  1.0000
  C   C117      1.0  0.12931  0.44535  0.27043  1.0000
  H   H161      1.0  0.08781  0.11126  0.40965  1.0000
  H   H162      1.0  0.05026  0.34002  0.27720  1.0000
  C   C118      1.0  0.01557  0.17948  0.41668  1.0000
  H   H163      1.0  0.08228  0.11895  0.37518  1.0000
  H   H164      1.0  0.05609  0.44129  0.31826  1.0000
  C   C119      1.0  0.09292  0.12582  0.41151  1.0000
  H   H165      1.0  0.18873  0.45261  0.27433  1.0000
  S   S38       1.0  0.99203  0.17090  0.42615  1.0000
  H   H166      1.0  0.26505  0.10348  0.45382  1.0000
  N   N8        1.0  0.14348  0.33946  0.38627  1.0000
  C   C120      1.0  0.12365  0.33000  0.38888  1.0000
  C   C121      1.0  0.16101  0.32208  0.38888  1.0000
  C   C122      1.0  0.14633  0.34964  0.36806  1.0000
  C   C123      1.0  0.14145  0.35503  0.39867  1.0000
  C   C124      1.0  0.10398  0.34455  0.38431  1.0000
  C   C125      1.0  0.15863  0.30793  0.40599  1.0000
  C   C126      1.0  0.16631  0.35937  0.36222  1.0000
  C   C127      1.0  0.16179  0.36001  0.40363  1.0000
  H   H167      1.0  0.12538  0.31683  0.38141  1.0000
  H   H168      1.0  0.12000  0.32334  0.40241  1.0000
  H   H169      1.0  0.17618  0.32760  0.38777  1.0000
  H   H170      1.0  0.16298  0.31206  0.37859  1.0000
  H   H171      1.0  0.14569  0.33841  0.35910  1.0000
  H   H172      1.0  0.13354  0.36243  0.36563  1.0000
  H   H173      1.0  0.13244  0.36985  0.39373  1.0000
  H   H174      1.0  0.13243  0.34951  0.41095  1.0000
  H   H175      1.0  0.10181  0.35901  0.39017  1.0000
  H   H176      1.0  0.10412  0.34807  0.37029  1.0000
  H   H177      1.0  0.09021  0.33664  0.38909  1.0000
  H   H178      1.0  0.14727  0.29722  0.40595  1.0000
  H   H179      1.0  0.17367  0.29811  0.40780  1.0000
  H   H180      1.0  0.15403  0.31677  0.41702  1.0000
  H   H181      1.0  0.16704  0.36487  0.34836  1.0000
  H   H182      1.0  0.18058  0.34834  0.36385  1.0000
  H   H183      1.0  0.16612  0.37327  0.36848  1.0000
  H   H184      1.0  0.15934  0.37628  0.40627  1.0000
  H   H185      1.0  0.17541  0.35850  0.39381  1.0000
  H   H186      1.0  0.16551  0.35064  0.41579  1.0000
  H   H187      1.0  0.02670  0.16763  0.47777  1.0000
  C   C128      1.0  0.07600  0.16257  0.36295  1.0000
  H   H188      1.0  0.10347  0.12144  0.35877  1.0000
  H   H189      1.0  0.10896  0.12312  0.41484  1.0000
  C   C129      1.0  0.13471  0.34154  0.25281  1.0000
  H   H190      1.0  0.07498  0.17531  0.35226  1.0000
  H   H191      1.0  0.05474  0.47672  0.31592  1.0000
  C   C130      1.0  0.06405  0.30063  0.32555  1.0000
  C   C131      1.0  0.13715  0.21124  0.47955  1.0000
  C   C132      1.0  0.08994  0.14236  0.39608  1.0000
  H   H192      1.0  0.09217  0.15719  0.40001  1.0000
  H   H193      1.0  0.08281  0.13130  0.42283  1.0000
  C   C133      1.0  0.09869  0.15747  0.36678  1.0000
  H   H194      1.0  0.10288  0.17147  0.37091  1.0000
  H   H195      1.0  0.06515  0.40755  0.26673  1.0000
  N   N9        1.0  0.10358  0.13877  0.37960  1.0000
  C   C134      1.0  0.09921  0.11998  0.37288  1.0000
  H   H196      1.0  0.10815  0.15572  0.35422  1.0000
  H   H197      1.0  0.02052  0.22572  0.46673  1.0000
  C   C135      1.0  0.01402  0.37682  0.29364  1.0000
  H   H198      1.0  0.28076  0.13881  0.40693  1.0000
  H   H199      1.0  0.01730  0.20054  0.46506  1.0000
  H   H200      1.0  0.15825  0.42477  0.29560  1.0000
  H   H201      1.0  0.14201  0.15175  0.35835  1.0000
  H   H202      1.0  0.07399  0.33484  0.32853  1.0000
  C   C136      1.0  0.04382  0.16463  0.47717  1.0000
  N   N10       1.0  0.07502  0.39845  0.24137  1.0000
  H   H203      1.0  0.04749  0.47399  0.29022  1.0000
  H   H204      1.0  0.12453  0.09409  0.37073  1.0000
  H   H205      1.0  0.06674  0.42852  0.25043  1.0000
  C   C137      1.0  0.14189  0.13642  0.36610  1.0000
  H   H206      1.0  0.13095  0.12437  0.39157  1.0000
  H   H207      1.0  0.13919  0.12500  0.35816  1.0000
  H   H208      1.0  0.02723  0.32317  0.31776  1.0000
  H   H209      1.0  0.04184  0.31855  0.36302  1.0000
  C   C138      1.0  0.23974  0.05230  0.48324  1.0000
  H   H210      1.0  0.06184  0.21892  0.42898  1.0000
  C   C139      1.0  0.00876  0.46200  0.33771  1.0000
  H   H211      1.0  0.22131  0.05577  0.46150  1.0000
  C   C140      1.0  0.05272  0.18255  0.48247  1.0000
  C   C141      1.0  0.30803  0.02771  0.47767  1.0000
  H   H212      1.0  0.31397  0.11935  0.40280  1.0000
  H   H213      1.0  0.07828  0.29488  0.30006  1.0000
  H   H214      1.0  0.04827  0.19159  0.44854  1.0000
  H   H215      1.0  0.03323  0.42969  0.31975  1.0000
  H   H216      1.0  0.03126  0.42738  0.26228  1.0000
  S   S39       1.0  0.00582  0.34343  0.28064  1.0000
  H   H217      1.0  0.05012  0.23523  0.47399  1.0000
  H   H218      1.0  0.00808  0.45505  0.30662  1.0000
  H   H219      1.0  0.00866  0.34562  0.33611  1.0000
  C   C142      1.0  0.12142  0.19879  0.48334  1.0000
  H   H220      1.0  0.12075  0.39537  0.25990  1.0000
  H   H221      1.0  0.18568  0.41932  0.29125  1.0000
  H   H222      1.0  0.28839  0.14297  0.38441  1.0000
  N   N11       1.0  0.02748  0.46167  0.32431  1.0000
  H   H223      1.0  0.99749  0.38147  0.29561  1.0000
  H   H224      1.0  0.00283  0.19945  0.39589  1.0000
  H   H225      1.0  0.05539  0.41572  0.34233  1.0000
  N   N12       1.0  0.04712  0.20342  0.47258  1.0000
  H   H226      1.0  0.09003  0.46216  0.32044  1.0000
  C   C143      1.0  0.02801  0.31638  0.33129  1.0000
  C   C144      1.0  0.17263  0.43201  0.29297  1.0000
  H   H227      1.0  0.22257  0.03137  0.47442  1.0000
  C   C145      1.0  0.09440  0.38890  0.24918  1.0000
  H   H228      1.0  0.24461  0.03725  0.46000  1.0000
  H   H229      1.0  0.99544  0.32325  0.34106  1.0000
  H   H230      1.0  0.28549  0.07893  0.35634  1.0000
  C   C146      1.0  0.10782  0.40420  0.25328  1.0000
  H   H231      1.0  0.05507  0.36701  0.33866  1.0000
  C   C147      1.0  0.05621  0.20196  0.45423  1.0000
  H   H232      1.0  0.07377  0.32152  0.30247  1.0000
  H   H233      1.0  0.05860  0.28532  0.32748  1.0000
  C   C148      1.0  0.06708  0.30695  0.30605  1.0000
  H   H234      1.0  0.99916  0.45016  0.33614  1.0000
  C   C149      1.0  0.32112  0.11865  0.36877  1.0000
  H   H235      1.0  0.11831  0.32268  0.24124  1.0000
  H   H236      1.0  0.24174  0.10459  0.47828  1.0000
  H   H237      1.0  0.18974  0.47628  0.24672  1.0000
  C   C150      1.0  0.05506  0.22234  0.44201  1.0000
  H   H238      1.0  0.07385  0.21815  0.47391  1.0000
  C   C151      1.0  0.23439  0.09062  0.47816  1.0000
  C   C152      1.0  0.16003  0.47873  0.29046  1.0000
  H   H239      1.0  0.03889  0.22974  0.44109  1.0000
  H   H240      1.0  0.02824  0.46664  0.27977  1.0000
  C   C153      1.0  0.11378  0.47513  0.32938  1.0000
  H   H241      1.0  0.31401  0.03092  0.46435  1.0000
  C   C154      1.0  0.01019  0.32912  0.34158  1.0000
  C   C155      1.0  0.02399  0.20966  0.47300  1.0000
  H   H242      1.0  0.02930  0.42439  0.35049  1.0000
  H   H243      1.0  0.05508  0.27398  0.35514  1.0000
  H   H244      1.0  0.28576  0.08522  0.38510  1.0000
  H   H245      1.0  0.31820  0.07314  0.39637  1.0000
  C   C156      1.0  0.29222  0.01544  0.48249  1.0000
  H   H246      1.0  0.16780  0.16076  0.47901  1.0000
  C   C157      1.0  0.15769  0.47850  0.25961  1.0000
  H   H247      1.0  0.01157  0.32767  0.35532  1.0000
  H   H248      1.0  0.07976  0.29786  0.32979  1.0000
  H   H249      1.0  0.11372  0.44127  0.27572  1.0000
  H   H250      1.0  0.12822  0.45276  0.25715  1.0000
  C   C158      1.0  0.12721  0.33541  0.23905  1.0000
  H   H251      1.0  0.28171  0.10881  0.37150  1.0000
  H   H252      1.0  0.26964  0.12574  0.39352  1.0000
  H   H253      1.0  0.15613  0.47062  0.30345  1.0000
  H   H254      1.0  0.06280  0.46977  0.34376  1.0000
  C   C159      1.0  0.05702  0.21942  0.47892  1.0000
  N   N13       1.0  0.25017  0.07143  0.47857  1.0000
  H   H255      1.0  0.13307  0.45257  0.29511  1.0000
  C   C160      1.0  0.06331  0.38127  0.23958  1.0000
  S   S40       1.0  0.26796  0.98539  0.39098  1.0000
  H   H256      1.0  0.30915  0.12896  0.36183  1.0000
  H   H257      1.0  0.03274  0.41952  0.24163  1.0000
  H   H258      1.0  0.31135  0.07090  0.36077  1.0000
  Fe  Fe20      1.0  0.31473  0.03014  0.40642  1.0000
  H   H259      1.0  0.05090  0.16099  0.46430  1.0000
  H   H260      1.0  0.10486  0.37891  0.24059  1.0000
  H   H261      1.0  0.12306  0.47374  0.28119  1.0000
  H   H262      1.0  0.06991  0.17839  0.48137  1.0000
  H   H263      1.0  0.04762  0.15053  0.48618  1.0000
  H   H264      1.0  0.17668  0.48036  0.28983  1.0000
  Fe  Fe21      1.0  0.30542  0.04725  0.58651  1.0000
  S   S41       1.0  0.27143  0.04531  0.59428  1.0000
  H   H265      1.0  0.09434  0.25021  0.60445  1.0000
  Fe  Fe22      1.0  0.30149  0.04189  0.54950  1.0000
  S   S42       1.0  0.26758  0.03921  0.55491  1.0000
  C   C161      1.0  0.05406  0.46718  0.66587  1.0000
  Fe  Fe23      1.0  0.26521  0.06597  0.56998  1.0000
  S   S43       1.0  0.24598  0.09785  0.56477  1.0000
  Fe  Fe24      1.0  0.27694  0.01889  0.57859  1.0000
  S   S44       1.0  0.29897  0.06956  0.56326  1.0000
  H   H266      1.0  0.98917  0.33760  0.70160  1.0000
  S   S45       1.0  0.01035  0.31010  0.67164  1.0000
  Fe  Fe25      1.0  0.09244  0.36850  0.67173  1.0000
  S   S46       1.0  0.10340  0.33548  0.66805  1.0000
  S   S47       1.0  0.05936  0.38114  0.67954  1.0000
  Fe  Fe26      1.0  0.13479  0.38170  0.66208  1.0000
  S   S48       1.0  0.14975  0.34965  0.65715  1.0000
  S   S49       1.0  0.15330  0.40752  0.66319  1.0000
  Fe  Fe27      1.0  0.12197  0.34800  0.64419  1.0000
  S   S50       1.0  0.11994  0.33498  0.61964  1.0000
  Fe  Fe28      1.0  0.12997  0.33936  0.68130  1.0000
  S   S51       1.0  0.14327  0.31369  0.69991  1.0000
  S   S52       1.0  0.10883  0.38126  0.64681  1.0000
  S   S53       1.0  0.11716  0.37117  0.68722  1.0000
  H   H267      1.0  0.01838  0.34261  0.71272  1.0000
  Fe  Fe29      1.0  0.13407  0.21270  0.55382  1.0000
  S   S54       1.0  0.11789  0.18478  0.56145  1.0000
  S   S55       1.0  0.14549  0.22346  0.52624  1.0000
  Fe  Fe30      1.0  0.13303  0.22106  0.59073  1.0000
  S   S56       1.0  0.11747  0.19303  0.60079  1.0000
  S   S57       1.0  0.13906  0.23899  0.61148  1.0000
  Fe  Fe31      1.0  0.13989  0.17649  0.58136  1.0000
  S   S58       1.0  0.15463  0.14287  0.58724  1.0000
  Fe  Fe32      1.0  0.09721  0.20373  0.58004  1.0000
  S   S59       1.0  0.06211  0.21008  0.58562  1.0000
  S   S60       1.0  0.15707  0.20359  0.57288  1.0000
  S   S61       1.0  0.11176  0.23251  0.57085  1.0000
  C   C162      1.0  0.13552  0.21450  0.50981  1.0000
  C   C163      1.0  0.11972  0.20215  0.51351  1.0000
  H   H268      1.0  0.19289  0.10165  0.52596  1.0000
  H   H269      1.0  0.11275  0.19874  0.52650  1.0000
  H   H270      1.0  0.01749  0.35737  0.59561  1.0000
  C   C164      1.0  0.04522  0.19610  0.57827  1.0000
  C   C165      1.0  0.02628  0.20664  0.57363  1.0000
  C   C166      1.0  0.03348  0.16380  0.57572  1.0000
  C   C167      1.0  0.04899  0.17463  0.57895  1.0000
  H   H271      1.0  0.02323  0.22323  0.57309  1.0000
  H   H272      1.0  0.03620  0.14716  0.57688  1.0000
  H   H273      1.0  0.06345  0.16631  0.58273  1.0000
  C   C168      1.0  0.12573  0.30830  0.61737  1.0000
  C   C169      1.0  0.12341  0.30160  0.60192  1.0000
  C   C170      1.0  0.12762  0.28050  0.59977  1.0000
  C   C171      1.0  0.13415  0.26586  0.61310  1.0000
  C   C172      1.0  0.13647  0.27260  0.62851  1.0000
  C   C173      1.0  0.13225  0.29365  0.63067  1.0000
  H   H274      1.0  0.11851  0.31280  0.59150  1.0000
  H   H275      1.0  0.12591  0.27558  0.58779  1.0000
  H   H276      1.0  0.14163  0.26144  0.63887  1.0000
  H   H277      1.0  0.13420  0.29854  0.64260  1.0000
  H   H278      1.0  0.08708  0.47838  0.70615  1.0000
  H   H279      1.0  0.16759  0.13618  0.49162  1.0000
  C   C174      1.0  0.14252  0.43366  0.65888  1.0000
  C   C175      1.0  0.15348  0.44923  0.66151  1.0000
  H   H280      1.0  0.10068  0.45136  0.72204  1.0000
  C   C176      1.0  0.01386  0.18621  0.61957  1.0000
  C   C177      1.0  0.11536  0.46013  0.64906  1.0000
  C   C178      1.0  0.12336  0.43921  0.65271  1.0000
  H   H281      1.0  0.16844  0.44506  0.66606  1.0000
  C   C179      1.0  0.08151  0.28745  0.65144  1.0000
  H   H282      1.0  0.10087  0.46436  0.64380  1.0000
  H   H283      1.0  0.11502  0.42736  0.65036  1.0000
  C   C180      1.0  0.02345  0.32980  0.67496  1.0000
  C   C181      1.0  0.01574  0.35034  0.66990  1.0000
  C   C182      1.0  0.02607  0.36621  0.67252  1.0000
  C   C183      1.0  0.04470  0.36151  0.67945  1.0000
  C   C184      1.0  0.05229  0.34103  0.68488  1.0000
  C   C185      1.0  0.04162  0.32513  0.68267  1.0000
  H   H284      1.0  0.99656  0.20429  0.56674  1.0000
  H   H285      1.0  0.02012  0.38206  0.66845  1.0000
  H   H286      1.0  0.06636  0.33743  0.69083  1.0000
  H   H287      1.0  0.04755  0.30927  0.68676  1.0000
  C   C186      1.0  0.22045  0.10987  0.57128  1.0000
  C   C187      1.0  0.20516  0.09893  0.58067  1.0000
  C   C188      1.0  0.18515  0.10930  0.58543  1.0000
  C   C189      1.0  0.18022  0.13072  0.58107  1.0000
  C   C190      1.0  0.19563  0.14169  0.57189  1.0000
  C   C191      1.0  0.21552  0.13128  0.56689  1.0000
  H   H288      1.0  0.20868  0.08249  0.58419  1.0000
  H   H289      1.0  0.17339  0.10067  0.59260  1.0000
  H   H290      1.0  0.19224  0.15820  0.56876  1.0000
  H   H291      1.0  0.22727  0.13995  0.55975  1.0000
  C   C192      1.0  0.30853  0.03179  0.50749  1.0000
  H   H292      1.0  0.28693  0.01606  0.52560  1.0000
  C   C193      1.0  0.29280  0.01942  0.51229  1.0000
  C   C194      1.0  0.14536  0.47019  0.65798  1.0000
  H   H293      1.0  0.30066  0.01269  0.61465  1.0000
  H   H294      1.0  0.04752  0.47170  0.63883  1.0000
  H   H295      1.0  0.04783  0.18244  0.49634  1.0000
  H   H296      1.0  0.16528  0.16060  0.54915  1.0000
  H   H297      1.0  0.13857  0.45133  0.71927  1.0000
  H   H298      1.0  0.19905  0.13977  0.52417  1.0000
  C   C195      1.0  0.29319  0.00628  0.62722  1.0000
  H   H299      1.0  0.01288  0.30628  0.71644  1.0000
  H   H300      1.0  0.25070  0.03918  0.48862  1.0000
  C   C196      1.0  0.17618  0.35576  0.73269  1.0000
  H   H301      1.0  0.18433  0.39851  0.70348  1.0000
  H   H302      1.0  0.28878  0.13812  0.58107  1.0000
  C   C197      1.0  0.18677  0.35032  0.69640  1.0000
  H   H303      1.0  0.16981  0.46159  0.71009  1.0000
  C   C198      1.0  0.05611  0.21875  0.49839  1.0000
  C   C199      1.0  0.01800  0.31287  0.72681  1.0000
  C   C200      1.0  0.25304  0.06974  0.51085  1.0000
  H   H304      1.0  0.01177  0.47239  0.65122  1.0000
  H   H305      1.0  0.08054  0.22449  0.62160  1.0000
  S   S62       1.0  0.31849  0.04289  0.52274  1.0000
  H   H306      1.0  0.13866  0.40055  0.70107  1.0000
  S   S63       1.0  0.99414  0.16025  0.56959  1.0000
  H   H307      1.0  0.18784  0.18777  0.51974  1.0000
  H   H308      1.0  0.27035  0.08668  0.49030  1.0000
  C   C201      1.0  0.25212  0.15291  0.59450  1.0000
  H   H309      1.0  0.18988  0.33608  0.70538  1.0000
  N   N14       1.0  0.04904  0.37012  0.61870  1.0000
  C   C202      1.0  0.07243  0.36549  0.61600  1.0000
  C   C203      1.0  0.04137  0.35170  0.62974  1.0000
  C   C204      1.0  0.04335  0.38863  0.62827  1.0000
  C   C205      1.0  0.04115  0.37437  0.60154  1.0000
  C   C206      1.0  0.08409  0.38295  0.60618  1.0000
  C   C207      1.0  0.04666  0.33120  0.62207  1.0000
  C   C208      1.0  0.02009  0.39662  0.63206  1.0000
  C   C209      1.0  0.01829  0.37163  0.60110  1.0000
  H   H310      1.0  0.07871  0.36092  0.62846  1.0000
  H   H311      1.0  0.07762  0.35211  0.60871  1.0000
  H   H312      1.0  0.02439  0.35409  0.63338  1.0000
  H   H313      1.0  0.04790  0.34908  0.64211  1.0000
  H   H314      1.0  0.04992  0.38543  0.64065  1.0000
  H   H315      1.0  0.05013  0.40210  0.62101  1.0000
  H   H316      1.0  0.04311  0.39032  0.59556  1.0000
  H   H317      1.0  0.05072  0.36405  0.59265  1.0000
  H   H318      1.0  0.10067  0.37660  0.60303  1.0000
  H   H319      1.0  0.07814  0.38940  0.59396  1.0000
  H   H320      1.0  0.08398  0.39538  0.61411  1.0000
  H   H321      1.0  0.04286  0.33263  0.60888  1.0000
  H   H322      1.0  0.06325  0.32481  0.62237  1.0000
  H   H323      1.0  0.03741  0.31980  0.62996  1.0000
  H   H324      1.0  0.01333  0.40338  0.62022  1.0000
  H   H325      1.0  0.01811  0.40924  0.64013  1.0000
  H   H326      1.0  0.01098  0.38477  0.63923  1.0000
  C   C210      1.0  0.03802  0.24261  0.65148  1.0000
  H   H327      1.0  0.00815  0.37162  0.61339  1.0000
  H   H328      1.0  0.03662  0.26643  0.63008  1.0000
  N   N15       1.0  0.16655  0.15168  0.52383  1.0000
  C   C211      1.0  0.16666  0.16754  0.53557  1.0000
  C   C212      1.0  0.14541  0.14478  0.52736  1.0000
  H   H329      1.0  0.27270  0.00152  0.50366  1.0000
  C   C213      1.0  0.28784  0.12148  0.58496  1.0000
  S   S64       1.0  0.26838  0.98779  0.59085  1.0000
  C   C214      1.0  0.13993  0.13321  0.54527  1.0000
  H   H330      1.0  0.05024  0.24263  0.62510  1.0000
  H   H331      1.0  0.15215  0.41602  0.71138  1.0000
  H   H332      1.0  0.15297  0.17964  0.53454  1.0000
  H   H333      1.0  0.08393  0.27270  0.59191  1.0000
  H   H334      1.0  0.22648  0.05461  0.49347  1.0000
  H   H335      1.0  0.17011  0.11118  0.51674  1.0000
  C   C215      1.0  0.12620  0.47568  0.65179  1.0000
  H   H336      1.0  0.27763  0.00332  0.62524  1.0000
  H   H337      1.0  0.27169  0.12981  0.62632  1.0000
  H   H338      1.0  0.15874  0.28584  0.72696  1.0000
  C   C216      1.0  0.14417  0.21908  0.49278  1.0000
  H   H339      1.0  0.26453  0.07104  0.51940  1.0000
  H   H340      1.0  0.20032  0.16826  0.53492  1.0000
  H   H341      1.0  0.12571  0.46594  0.69426  1.0000
  H   H342      1.0  0.29026  0.14058  0.61055  1.0000
  C   C217      1.0  0.17025  0.16201  0.50567  1.0000
  C   C218      1.0  0.16218  0.15281  0.49169  1.0000
  H   H343      1.0  0.10074  0.18450  0.50337  1.0000
  H   H344      1.0  0.10319  0.21686  0.63173  1.0000
  H   H345      1.0  0.00983  0.37660  0.70724  1.0000
  N   N16       1.0  0.04262  0.44883  0.67116  1.0000
  C   C219      1.0  0.05116  0.43667  0.68676  1.0000
  H   H346      1.0  0.24352  0.12823  0.61316  1.0000
  C   C220      1.0  0.12882  0.33240  0.72906  1.0000
  H   H347      1.0  0.31223  0.09424  0.58718  1.0000
  C   C221      1.0  0.04745  0.44765  0.70295  1.0000
  H   H348      1.0  0.07917  0.21226  0.64347  1.0000
  H   H349      1.0  0.08355  0.24050  0.65515  1.0000
  H   H350      1.0  0.06251  0.23231  0.50105  1.0000
  H   H351      1.0  0.04448  0.42197  0.69031  1.0000
  H   H352      1.0  0.06821  0.43216  0.68426  1.0000
  H   H353      1.0  0.07753  0.41850  0.66069  1.0000
  C   C222      1.0  0.01102  0.19587  0.57010  1.0000
  C   C223      1.0  0.06359  0.27602  0.64919  1.0000
  C   C224      1.0  0.11280  0.19423  0.50034  1.0000
  H   H354      1.0  0.23562  0.16004  0.59651  1.0000
  C   C225      1.0  0.26363  0.07203  0.49222  1.0000
  H   H355      1.0  0.06897  0.41721  0.64091  1.0000
  H   H356      1.0  0.28774  0.08552  0.60711  1.0000
  C   C226      1.0  0.14910  0.38515  0.72547  1.0000
  H   H357      1.0  0.24174  0.09391  0.62054  1.0000
  C   C227      1.0  0.18369  0.13431  0.52755  1.0000
  H   H358      1.0  0.01271  0.44303  0.68489  1.0000
  H   H359      1.0  0.15443  0.35670  0.70538  1.0000
  C   C228      1.0  0.16535  0.47614  0.70184  1.0000
  C   C229      1.0  0.18657  0.38765  0.71532  1.0000
  C   C230      1.0  0.12852  0.46349  0.72606  1.0000
  H   H360      1.0  0.12089  0.34480  0.72104  1.0000
  H   H361      1.0  0.06720  0.25429  0.60092  1.0000
  N   N17       1.0  0.06826  0.26131  0.63588  1.0000
  C   C231      1.0  0.18592  0.17883  0.53260  1.0000
  H   H362      1.0  0.18314  0.34533  0.68462  1.0000
  H   H363      1.0  0.00237  0.35406  0.66322  1.0000
  H   H364      1.0  0.10070  0.24972  0.63744  1.0000
  H   H365      1.0  0.18382  0.19024  0.54180  1.0000
  C   C232      1.0  0.04584  0.43458  0.65763  1.0000
  H   H366      1.0  0.22334  0.09016  0.49010  1.0000
  H   H367      1.0  0.14324  0.13446  0.51826  1.0000
  C   C233      1.0  0.01425  0.17436  0.57157  1.0000
  H   H368      1.0  0.14498  0.15574  0.49281  1.0000
  H   H369      1.0  0.26132  0.09639  0.63357  1.0000
  H   H370      1.0  0.99475  0.20103  0.63978  1.0000
  H   H371      1.0  0.99042  0.15636  0.61439  1.0000
  C   C234      1.0  0.18529  0.11529  0.51819  1.0000
  C   C235      1.0  0.07502  0.27347  0.61906  1.0000
  C   C236      1.0  0.99267  0.37871  0.70984  1.0000
  H   H372      1.0  0.24563  0.12287  0.59187  1.0000
  H   H373      1.0  0.05512  0.46166  0.70112  1.0000
  H   H374      1.0  0.02254  0.19960  0.61760  1.0000
  C   C237      1.0  0.06859  0.42753  0.65072  1.0000
  H   H375      1.0  0.19312  0.35028  0.73044  1.0000
  N   N18       1.0  0.27500  0.11797  0.60212  1.0000
  H   H376      1.0  0.03008  0.25398  0.66008  1.0000
  H   H377      1.0  0.18707  0.16269  0.50167  1.0000
  H   H378      1.0  0.20197  0.37856  0.71197  1.0000
  H   H379      1.0  0.16515  0.37776  0.69283  1.0000
  H   H380      1.0  0.08469  0.29944  0.64055  1.0000
  H   H381      1.0  0.03840  0.42054  0.66254  1.0000
  H   H382      1.0  0.13712  0.37464  0.72752  1.0000
  C   C238      1.0  0.01127  0.33628  0.72550  1.0000
  C   C239      1.0  0.31751  0.00537  0.66352  1.0000
  C   C240      1.0  0.08021  0.26167  0.60342  1.0000
  H   H383      1.0  0.05902  0.26778  0.66203  1.0000
  H   H384      1.0  0.09596  0.27678  0.65347  1.0000
  H   H385      1.0  0.01672  0.19707  0.50049  1.0000
  C   C241      1.0  0.08527  0.24436  0.64101  1.0000
  C   C242      1.0  0.08661  0.22363  0.63389  1.0000
  H   H386      1.0  0.07652  0.44068  0.64443  1.0000
  H   H387      1.0  0.04926  0.23129  0.65827  1.0000
  H   H388      1.0  0.03815  0.44157  0.64631  1.0000
  H   H389      1.0  0.05006  0.28790  0.64653  1.0000
  H   H390      1.0  0.02592  0.23420  0.64859  1.0000
  C   C243      1.0  0.28409  0.12591  0.61574  1.0000
  C   C244      1.0  0.16801  0.36520  0.70343  1.0000
  H   H391      1.0  0.15105  0.11909  0.54802  1.0000
  H   H392      1.0  0.16273  0.17834  0.50466  1.0000
  N   N19       1.0  0.17005  0.37374  0.71955  1.0000
  C   C245      1.0  0.01972  0.45546  0.67607  1.0000
  H   H393      1.0  0.13313  0.15829  0.52548  1.0000
  H   H394      1.0  0.26665  0.09025  0.59544  1.0000
  C   C246      1.0  0.25351  0.12961  0.60066  1.0000
  H   H395      1.0  0.13876  0.14315  0.55542  1.0000
  H   H396      1.0  0.05431  0.43705  0.71342  1.0000
  H   H397      1.0  0.27712  0.05961  0.49153  1.0000
  C   C247      1.0  0.31626  0.03572  0.49016  1.0000
  H   H398      1.0  0.23983  0.08202  0.51318  1.0000
  H   H399      1.0  0.08926  0.28011  0.61971  1.0000
  H   H400      1.0  0.26076  0.07248  0.62586  1.0000
  H   H401      1.0  0.99409  0.21531  0.59965  1.0000
  C   C248      1.0  0.04829  0.25348  0.63470  1.0000
  H   H402      1.0  0.20093  0.35780  0.69276  1.0000
  H   H403      1.0  0.01107  0.38448  0.59234  1.0000
  H   H404      1.0  0.06295  0.28677  0.61600  1.0000
  H   H405      1.0  0.28040  0.11639  0.57492  1.0000
  C   C249      1.0  0.28481  0.01114  0.49984  1.0000
  H   H406      1.0  0.07703  0.29563  0.66289  1.0000
  C   C250      1.0  0.99270  0.19079  0.63050  1.0000
  S   S65       1.0  0.31110  0.01982  0.57214  1.0000
  C   C251      1.0  0.25828  0.08949  0.62254  1.0000
  H   H407      1.0  0.01217  0.18226  0.60692  1.0000
  C   C252      1.0  0.27272  0.09544  0.60613  1.0000
  H   H408      1.0  0.06603  0.20499  0.50392  1.0000
  H   H409      1.0  0.02329  0.17255  0.62581  1.0000
  H   H410      1.0  0.18322  0.12902  0.54149  1.0000
  C   C253      1.0  0.14138  0.40440  0.71350  1.0000
  H   H411      1.0  0.00356  0.44714  0.65634  1.0000
  H   H412      1.0  0.12626  0.41173  0.71952  1.0000
  H   H413      1.0  0.98951  0.17645  0.63889  1.0000
  H   H414      1.0  0.26100  0.16082  0.60164  1.0000
  H   H415      1.0  0.19468  0.11747  0.50550  1.0000
  H   H416      1.0  0.24804  0.05436  0.51483  1.0000
  H   H417      1.0  0.01721  0.46893  0.68331  1.0000
  C   C254      1.0  0.14024  0.31535  0.72189  1.0000
  C   C255      1.0  0.18962  0.40017  0.72937  1.0000
  H   H418      1.0  0.99686  0.23270  0.62568  1.0000
  H   H419      1.0  0.12442  0.12832  0.54606  1.0000
  H   H420      1.0  0.31755  0.11361  0.56997  1.0000
  H   H421      1.0  0.04021  0.21943  0.50517  1.0000
  H   H422      1.0  0.03520  0.30975  0.72517  1.0000
  C   C256      1.0  0.00589  0.46108  0.66161  1.0000
  C   C257      1.0  0.14998  0.29909  0.73241  1.0000
  H   H423      1.0  0.19567  0.41456  0.72329  1.0000
  H   H424      1.0  0.07111  0.46269  0.66569  1.0000
  H   H425      1.0  0.29068  0.01800  0.63617  1.0000
  C   C258      1.0  0.10801  0.45500  0.73262  1.0000
  H   H426      1.0  0.03074  0.45161  0.70746  1.0000
  H   H427      1.0  0.29512  0.10369  0.63695  1.0000
  H   H428      1.0  0.25716  0.15588  0.58059  1.0000
  H   H429      1.0  0.98903  0.24949  0.60749  1.0000
  H   H430      1.0  0.31282  0.02161  0.66602  1.0000
  H   H431      1.0  0.01905  0.34231  0.73477  1.0000
  H   H432      1.0  0.15642  0.22862  0.48983  1.0000
  H   H433      1.0  0.05023  0.47796  0.67563  1.0000
  C   C259      1.0  0.30145  0.11124  0.62434  1.0000
  H   H434      1.0  0.99028  0.46818  0.66694  1.0000
  H   H435      1.0  0.27201  0.98819  0.55399  1.0000
  H   H436      1.0  0.16855  0.34230  0.73150  1.0000
  C   C260      1.0  0.01066  0.20902  0.49063  1.0000
  H   H437      1.0  0.30297  0.99857  0.66523  1.0000
  H   H438      1.0  0.08076  0.30101  0.73585  1.0000
  H   H439      1.0  0.16104  0.47263  0.68983  1.0000
  H   H440      1.0  0.31986  0.11819  0.59094  1.0000
  H   H441      1.0  0.00828  0.22427  0.49536  1.0000
  H   H442      1.0  0.31291  0.12050  0.62712  1.0000
  H   H443      1.0  0.99516  0.20516  0.48944  1.0000
  C   C261      1.0  0.30564  0.98593  0.63435  1.0000
  C   C262      1.0  0.31057  0.11111  0.58351  1.0000
  H   H444      1.0  0.31035  0.09937  0.61676  1.0000
  S   S66       1.0  0.32147  0.05233  0.60881  1.0000
  C   C263      1.0  0.05010  0.48050  0.64884  1.0000
  H   H445      1.0  0.99226  0.36799  0.79104  1.0000
  Fe  Fe33      1.0  0.12762  0.34666  0.79055  1.0000
  S   S67       1.0  0.10997  0.34800  0.81686  1.0000
  S   S68       1.0  0.13673  0.31700  0.77926  1.0000
  Fe  Fe34      1.0  0.12963  0.39191  0.78410  1.0000
  S   S69       1.0  0.11167  0.39725  0.80943  1.0000
  S   S70       1.0  0.14023  0.41898  0.76662  1.0000
  Fe  Fe35      1.0  0.13255  0.36936  0.81988  1.0000
  S   S71       1.0  0.14564  0.37227  0.84437  1.0000
  Fe  Fe36      1.0  0.09095  0.37571  0.80415  1.0000
  S   S72       1.0  0.05606  0.38572  0.80595  1.0000
  S   S73       1.0  0.15165  0.36531  0.79462  1.0000
  S   S74       1.0  0.10737  0.37292  0.77777  1.0000
  Fe  Fe37      1.0  0.28913  0.38357  0.88948  1.0000
  S   S75       1.0  0.25479  0.38484  0.89616  1.0000
  H   H446      1.0  0.19777  0.41961  0.87522  1.0000
  S   S76       1.0  0.26311  0.33496  0.90669  1.0000
  Fe  Fe38      1.0  0.25785  0.35683  0.88277  1.0000
  S   S77       1.0  0.23987  0.35431  0.86069  1.0000
  Fe  Fe39      1.0  0.26294  0.36313  0.91941  1.0000
  S   S78       1.0  0.24512  0.37087  0.94474  1.0000
  S   S79       1.0  0.17170  0.46659  0.81810  1.0000
  C   C264      1.0  0.25383  0.35852  0.96406  1.0000
  C   C265      1.0  0.27224  0.34471  0.96428  1.0000
  H   H447      1.0  0.13782  0.40914  0.86053  1.0000
  H   H448      1.0  0.17701  0.37252  0.75468  1.0000
  C   C266      1.0  0.23793  0.47537  0.91218  1.0000
  H   H449      1.0  0.21393  0.44561  0.90862  1.0000
  H   H450      1.0  0.30874  0.39909  0.94016  1.0000
  C   C267      1.0  0.31654  0.46531  0.88980  1.0000
  H   H451      1.0  0.11151  0.44409  0.81043  1.0000
  C   C268      1.0  0.14366  0.45370  0.86832  1.0000
  C   C269      1.0  0.17199  0.36759  0.84855  1.0000
  C   C270      1.0  0.18836  0.36130  0.83632  1.0000
  C   C271      1.0  0.20892  0.35732  0.84032  1.0000
  C   C272      1.0  0.21349  0.35959  0.85656  1.0000
  C   C273      1.0  0.19718  0.36632  0.86869  1.0000
  C   C274      1.0  0.17659  0.37027  0.86469  1.0000
  H   H452      1.0  0.18515  0.35917  0.82385  1.0000
  H   H453      1.0  0.22137  0.35217  0.83081  1.0000
  H   H454      1.0  0.20038  0.36813  0.88123  1.0000
  H   H455      1.0  0.16409  0.37504  0.87429  1.0000
  C   C275      1.0  0.00676  0.34329  0.80782  1.0000
  C   C276      1.0  0.02420  0.33647  0.81643  1.0000
  C   C277      1.0  0.03987  0.34897  0.81548  1.0000
  C   C278      1.0  0.03802  0.36857  0.80609  1.0000
  C   C279      1.0  0.02067  0.37533  0.79738  1.0000
  C   C280      1.0  0.00521  0.36273  0.79815  1.0000
  H   H456      1.0  0.00637  0.45008  0.80296  1.0000
  H   H457      1.0  0.05300  0.34372  0.82246  1.0000
  H   H458      1.0  0.01922  0.39037  0.78995  1.0000
  H   H459      1.0  0.23646  0.42691  0.91242  1.0000
  C   C281      1.0  0.16453  0.45352  0.80294  1.0000
  C   C282      1.0  0.20118  0.42276  0.86113  1.0000
  C   C283      1.0  0.15067  0.45363  0.77641  1.0000
  C   C284      1.0  0.15060  0.43233  0.77997  1.0000
  C   C285      1.0  0.15784  0.42169  0.79487  1.0000
  C   C286      1.0  0.16495  0.43221  0.80626  1.0000
  H   H460      1.0  0.19745  0.43953  0.85750  1.0000
  H   H461      1.0  0.25899  0.44217  0.89200  1.0000
  H   H462      1.0  0.15787  0.40531  0.79778  1.0000
  H   H463      1.0  0.17017  0.42383  0.81787  1.0000
  C   C287      1.0  0.14865  0.29988  0.74994  1.0000
  H   H464      1.0  0.10217  0.42386  0.83793  1.0000
  C   C288      1.0  0.13784  0.31708  0.75712  1.0000
  C   C289      1.0  0.25820  0.41284  0.97477  1.0000
  H   H465      1.0  0.30566  0.38135  0.95889  1.0000
  H   H466      1.0  0.11917  0.34658  0.75209  1.0000
  H   H467      1.0  0.15631  0.28718  0.75792  1.0000
  C   C290      1.0  0.15746  0.46427  0.78799  1.0000
  H   H468      1.0  0.99740  0.40942  0.84083  1.0000
  H   H469      1.0  0.30827  0.47604  0.98526  1.0000
  H   H470      1.0  0.27922  0.38544  0.84036  1.0000
  H   H471      1.0  0.17805  0.34526  0.75959  1.0000
  H   H472      1.0  0.22805  0.37385  0.97950  1.0000
  S   S80       1.0  0.31755  0.30475  0.90399  1.0000
  H   H473      1.0  0.20051  0.46645  0.88618  1.0000
  S   S81       1.0  0.29222  0.35654  0.87467  1.0000
  H   H474      1.0  0.25821  0.40636  0.81964  1.0000
  S   S82       1.0  0.29726  0.36368  0.91364  1.0000
  Fe  Fe40      1.0  0.29747  0.33646  0.89943  1.0000
  H   H475      1.0  0.29986  0.41381  0.91326  1.0000
  C   C291      1.0  0.31525  0.46157  0.90759  1.0000
  H   H476      1.0  0.14495  0.46199  0.76502  1.0000
  H   H477      1.0  0.10569  0.39630  0.85668  1.0000
  C   C292      1.0  0.25040  0.40275  0.83281  1.0000
  H   H478      1.0  0.24453  0.38782  0.83306  1.0000
  H   H479      1.0  0.22304  0.42635  0.89502  1.0000
  C   C293      1.0  0.08569  0.30426  0.74776  1.0000
  H   H480      1.0  0.05368  0.30898  0.75923  1.0000
  C   C294      1.0  0.27921  0.33596  0.97994  1.0000
  H   H481      1.0  0.06678  0.28364  0.76325  1.0000
  H   H482      1.0  0.09058  0.41131  0.87269  1.0000
  H   H483      1.0  0.01519  0.42335  0.80203  1.0000
  H   H484      1.0  0.25915  0.44733  0.92063  1.0000
  H   H485      1.0  0.12942  0.42208  0.83176  1.0000
  H   H486      1.0  0.28766  0.42757  0.95365  1.0000
  H   H487      1.0  0.26876  0.47129  0.92089  1.0000
  H   H488      1.0  0.30912  0.43964  0.92964  1.0000
  H   H489      1.0  0.26987  0.46358  0.86344  1.0000
  H   H490      1.0  0.22204  0.46180  0.85023  1.0000
  C   C295      1.0  0.30464  0.42807  0.90674  1.0000
  H   H491      1.0  0.09703  0.46552  0.74037  1.0000
  H   H492      1.0  0.99369  0.43863  0.85015  1.0000
  C   C296      1.0  0.24246  0.36343  0.97958  1.0000
  H   H493      1.0  0.08493  0.44460  0.85906  1.0000
  H   H494      1.0  0.11038  0.39062  0.87825  1.0000
  H   H495      1.0  0.12309  0.46097  0.82011  1.0000
  H   H496      1.0  0.13540  0.46355  0.84325  1.0000
  H   H497      1.0  0.28105  0.34071  0.95240  1.0000
  H   H498      1.0  0.31360  0.45320  0.86676  1.0000
  C   C297      1.0  0.25467  0.46356  0.92305  1.0000
  H   H499      1.0  0.09843  0.44841  0.87579  1.0000
  H   H500      1.0  0.08853  0.32050  0.74559  1.0000
  H   H501      1.0  0.09552  0.45911  0.82531  1.0000
  C   C298      1.0  0.26782  0.39862  0.84440  1.0000
  H   H502      1.0  0.13039  0.46101  0.87661  1.0000
  C   C299      1.0  0.00770  0.43473  0.81083  1.0000
  H   H503      1.0  0.26205  0.39410  0.85793  1.0000
  H   H504      1.0  0.04503  0.34279  0.77747  1.0000
  C   C300      1.0  0.30601  0.43178  0.88897  1.0000
  H   H505      1.0  0.99874  0.39722  0.82264  1.0000
  H   H506      1.0  0.24864  0.46355  0.93679  1.0000
  C   C301      1.0  0.24303  0.45033  0.89055  1.0000
  N   N20       1.0  0.23268  0.41941  0.83717  1.0000
  C   C302      1.0  0.21646  0.41909  0.82572  1.0000
  C   C303      1.0  0.22407  0.41431  0.85567  1.0000
  C   C304      1.0  0.24118  0.43961  0.83440  1.0000
  H   H507      1.0  0.30946  0.41773  0.96416  1.0000
  H   H508      1.0  0.25680  0.39961  0.96820  1.0000
  C   C305      1.0  0.22546  0.45919  0.83665  1.0000
  H   H509      1.0  0.20223  0.42991  0.82884  1.0000
  H   H510      1.0  0.21120  0.40363  0.82774  1.0000
  H   H511      1.0  0.22508  0.39737  0.85922  1.0000
  H   H512      1.0  0.23361  0.41936  0.86424  1.0000
  H   H513      1.0  0.25247  0.43949  0.84350  1.0000
  H   H514      1.0  0.25067  0.44197  0.82172  1.0000
  C   C306      1.0  0.30967  0.44274  0.91598  1.0000
  H   H515      1.0  0.23548  0.41288  0.80128  1.0000
  H   H516      1.0  0.19060  0.41462  0.85577  1.0000
  H   H517      1.0  0.10051  0.29405  0.74946  1.0000
  S   S83       1.0  0.29934  0.41402  0.87692  1.0000
  H   H518      1.0  0.28500  0.45463  0.96918  1.0000
  H   H519      1.0  0.21085  0.45911  0.83149  1.0000
  H   H520      1.0  0.01250  0.30483  0.73943  1.0000
  N   N21       1.0  0.07258  0.30449  0.77989  1.0000
  C   C307      1.0  0.09122  0.28994  0.78519  1.0000
  H   H521      1.0  0.15132  0.43966  0.87553  1.0000
  C   C308      1.0  0.05363  0.30162  0.79260  1.0000
  C   C309      1.0  0.07687  0.32632  0.77910  1.0000
  C   C310      1.0  0.09623  0.29060  0.80336  1.0000
  C   C311      1.0  0.22301  0.42447  0.80644  1.0000
  C   C312      1.0  0.04794  0.27959  0.79651  1.0000
  C   C313      1.0  0.06103  0.34332  0.77101  1.0000
  H   H522      1.0  0.08977  0.27373  0.78401  1.0000
  H   H523      1.0  0.10541  0.29314  0.77646  1.0000
  H   H524      1.0  0.25416  0.42655  0.96541  1.0000
  H   H525      1.0  0.03843  0.43845  0.81525  1.0000
  H   H526      1.0  0.05527  0.30667  0.80494  1.0000
  H   H527      1.0  0.03965  0.31152  0.78820  1.0000
  H   H528      1.0  0.07742  0.33017  0.79211  1.0000
  H   H529      1.0  0.09245  0.32825  0.77210  1.0000
  H   H530      1.0  0.11064  0.27979  0.80543  1.0000
  H   H531      1.0  0.09940  0.30602  0.80511  1.0000
  H   H532      1.0  0.08389  0.28563  0.81338  1.0000
  C   C314      1.0  0.13723  0.44881  0.85173  1.0000
  C   C315      1.0  0.06860  0.30011  0.76277  1.0000
  H   H533      1.0  0.20953  0.42449  0.79957  1.0000
  H   H534      1.0  0.04374  0.27422  0.78515  1.0000
  H   H535      1.0  0.03400  0.27966  0.80624  1.0000
  H   H536      1.0  0.06035  0.26837  0.80197  1.0000
  H   H537      1.0  0.06131  0.34278  0.75720  1.0000
  H   H538      1.0  0.06508  0.35860  0.77236  1.0000
  C   C316      1.0  0.22814  0.43704  0.90248  1.0000
  N   N22       1.0  0.11836  0.43802  0.85382  1.0000
  C   C317      1.0  0.12285  0.41809  0.86539  1.0000
  H   H539      1.0  0.22755  0.44011  0.80334  1.0000
  C   C318      1.0  0.11553  0.43251  0.83674  1.0000
  C   C319      1.0  0.09896  0.45043  0.86165  1.0000
  C   C320      1.0  0.10620  0.40353  0.86825  1.0000
  C   C321      1.0  0.02348  0.43563  0.82302  1.0000
  C   C322      1.0  0.11123  0.45047  0.82257  1.0000
  C   C323      1.0  0.29413  0.41407  0.96224  1.0000
  H   H540      1.0  0.27648  0.41188  0.84331  1.0000
  H   H541      1.0  0.00259  0.33627  0.76088  1.0000
  H   H542      1.0  0.28351  0.39240  0.94793  1.0000
  H   H543      1.0  0.27467  0.47105  0.89266  1.0000
  C   C324      1.0  0.12783  0.33337  0.74666  1.0000
  H   H544      1.0  0.12477  0.42111  0.87835  1.0000
  H   H545      1.0  0.25853  0.45306  0.97887  1.0000
  H   H546      1.0  0.15087  0.43937  0.84528  1.0000
  H   H547      1.0  0.29334  0.32512  0.98003  1.0000
  H   H548      1.0  0.23198  0.47269  0.82914  1.0000
  C   C325      1.0  0.29800  0.39556  0.95192  1.0000
  H   H549      1.0  0.02543  0.32155  0.82409  1.0000
  N   N23       1.0  0.28003  0.41157  0.97886  1.0000
  H   H550      1.0  0.01872  0.44878  0.83051  1.0000
  C   C326      1.0  0.27496  0.45045  0.98120  1.0000
  C   C327      1.0  0.31226  0.45032  0.88053  1.0000
  H   H551      1.0  0.15520  0.46464  0.86500  1.0000
  H   H552      1.0  0.24078  0.44948  0.87716  1.0000
  H   H553      1.0  0.15405  0.36043  0.75575  1.0000
  C   C328      1.0  0.17100  0.35905  0.75164  1.0000
  H   H554      1.0  0.02687  0.42095  0.83138  1.0000
  H   H555      1.0  0.11132  0.44034  0.74111  1.0000
  H   H556      1.0  0.14857  0.39043  0.73807  1.0000
  H   H557      1.0  0.13625  0.46433  0.73734  1.0000
  H   H558      1.0  0.22290  0.47098  0.91852  1.0000
  H   H559      1.0  0.07932  0.47959  0.85602  1.0000
  C   C329      1.0  0.98897  0.40913  0.82991  1.0000
  H   H560      1.0  0.28260  0.37818  0.98302  1.0000
  H   H561      1.0  0.31982  0.39241  0.98318  1.0000
  N   N24       1.0  0.24154  0.47252  0.89352  1.0000
  H   H562      1.0  0.10386  0.47920  0.84344  1.0000
  H   H563      1.0  0.22583  0.41360  0.98539  1.0000
  C   C330      1.0  0.09612  0.47399  0.85619  1.0000
  H   H564      1.0  0.17515  0.40545  0.73737  1.0000
  H   H565      1.0  0.20091  0.39127  0.73768  1.0000
  H   H566      1.0  0.99318  0.37155  0.73673  1.0000
  C   C331      1.0  0.26859  0.47934  0.86695  1.0000
  H   H567      1.0  0.32111  0.47964  0.88317  1.0000
  S   S84       1.0  0.32080  0.47997  0.91960  1.0000
  C   C332      1.0  0.26179  0.48015  0.88621  1.0000
  C   C333      1.0  0.12526  0.48387  0.13786  1.0000
  S   S85       1.0  0.28088  0.58448  0.05629  1.0000
  H   H568      1.0  0.22754  0.59376  0.11377  1.0000
  Fe  Fe41      1.0  0.29818  0.52597  0.06602  1.0000
  S   S86       1.0  0.27208  0.53868  0.05059  1.0000
  H   H569      1.0  0.04016  0.53851  0.23605  1.0000
  Fe  Fe42      1.0  0.29337  0.56152  0.03797  1.0000
  H   H570      1.0  0.11278  0.48723  0.10479  1.0000
  Fe  Fe43      1.0  0.26203  0.56025  0.07063  1.0000
  S   S87       1.0  0.22855  0.57076  0.08182  1.0000
  H   H571      1.0  0.29064  0.62864  0.10103  1.0000
  S   S88       1.0  0.28707  0.54630  0.08675  1.0000
  Fe  Fe44      1.0  0.14386  0.54150  0.16320  1.0000
  S   S89       1.0  0.14501  0.53584  0.19167  1.0000
  S   S90       1.0  0.17308  0.52910  0.14626  1.0000
  Fe  Fe45      1.0  0.09691  0.55679  0.16783  1.0000
  S   S91       1.0  0.09475  0.55276  0.19624  1.0000
  S   S92       1.0  0.06738  0.56868  0.15584  1.0000
  Fe  Fe46      1.0  0.12447  0.56614  0.19247  1.0000
  S   S93       1.0  0.12530  0.58838  0.21110  1.0000
  Fe  Fe47      1.0  0.11529  0.52303  0.19345  1.0000
  H   H572      1.0  0.00589  0.61656  0.21301  1.0000
  S   S94       1.0  0.12520  0.57315  0.16387  1.0000
  S   S95       1.0  0.11543  0.52583  0.16515  1.0000
  C   C334      1.0  0.04756  0.55331  0.15663  1.0000
  C   C335      1.0  0.02936  0.56198  0.14954  1.0000
  C   C336      1.0  0.04944  0.53282  0.16426  1.0000
  H   H573      1.0  0.02786  0.57778  0.14351  1.0000
  H   H574      1.0  0.06336  0.52601  0.16981  1.0000
  H   H575      1.0  0.03498  0.50514  0.17018  1.0000
  H   H576      1.0  0.02003  0.55050  0.20450  1.0000
  C   C337      1.0  0.25307  0.48623  0.08898  1.0000
  H   H577      1.0  0.10425  0.55030  0.23260  1.0000
  H   H578      1.0  0.26202  0.62051  0.13482  1.0000
  H   H579      1.0  0.06210  0.52159  0.12712  1.0000
  H   H580      1.0  0.24708  0.54269  0.99056  1.0000
  H   H581      1.0  0.22115  0.62028  0.14219  1.0000
  H   H582      1.0  0.24355  0.56459  0.13273  1.0000
  C   C338      1.0  0.25298  0.62355  0.08469  1.0000
  H   H583      1.0  0.21234  0.59602  0.14139  1.0000
  C   C339      1.0  0.00609  0.55830  0.19863  1.0000
  H   H584      1.0  0.07034  0.50255  0.11301  1.0000
  H   H585      1.0  0.10018  0.51487  0.12117  1.0000
  H   H586      1.0  0.22622  0.62034  0.11328  1.0000
  C   C340      1.0  0.21368  0.55911  0.10007  1.0000
  C   C341      1.0  0.22022  0.53946  0.10818  1.0000
  C   C342      1.0  0.20766  0.53064  0.12235  1.0000
  C   C343      1.0  0.18859  0.54142  0.12878  1.0000
  C   C344      1.0  0.18226  0.56124  0.12087  1.0000
  C   C345      1.0  0.19468  0.56994  0.10655  1.0000
  H   H587      1.0  0.23482  0.53099  0.10340  1.0000
  H   H588      1.0  0.21273  0.51532  0.12838  1.0000
  H   H589      1.0  0.16761  0.56970  0.12560  1.0000
  H   H590      1.0  0.18944  0.58513  0.10036  1.0000
  C   C346      1.0  0.02079  0.59039  0.19002  1.0000
  C   C347      1.0  0.27086  0.55586  0.99940  1.0000
  C   C348      1.0  0.15347  0.56201  0.22943  1.0000
  H   H591      1.0  0.26512  0.55247  0.01275  1.0000
  H   H592      1.0  0.25394  0.56305  0.11077  1.0000
  C   C349      1.0  0.03335  0.52105  0.16449  1.0000
  C   C350      1.0  0.01310  0.55038  0.15012  1.0000
  H   H593      1.0  0.02408  0.58549  0.17704  1.0000
  S   S96       1.0  0.30770  0.49168  0.07341  1.0000
  S   S97       1.0  0.30250  0.57175  0.00987  1.0000
  H   H594      1.0  0.23741  0.59626  0.14686  1.0000
  S   S98       1.0  0.32027  0.54737  0.05223  1.0000
  H   H595      1.0  0.13286  0.51441  0.12586  1.0000
  H   H596      1.0  0.25692  0.63796  0.08801  1.0000
  C   C351      1.0  0.26234  0.60417  0.09571  1.0000
  H   H597      1.0  0.27937  0.60204  0.09186  1.0000
  S   S99       1.0  0.99559  0.51434  0.15740  1.0000
  H   H598      1.0  0.05370  0.59188  0.18867  1.0000
  N   N25       1.0  0.00262  0.58103  0.20015  1.0000
  H   H599      1.0  0.04052  0.59168  0.20984  1.0000
  H   H600      1.0  0.25945  0.62263  0.07114  1.0000
  H   H601      1.0  0.06052  0.49527  0.13509  1.0000
  H   H602      1.0  0.01732  0.60746  0.18756  1.0000
  H   H603      1.0  0.29154  0.63649  0.12127  1.0000
  H   H604      1.0  0.09109  0.51088  0.14313  1.0000
  C   C352      1.0  0.04138  0.58506  0.19776  1.0000
  H   H605      1.0  0.25705  0.49871  0.07868  1.0000
  H   H606      1.0  0.26868  0.55069  0.12743  1.0000
  H   H607      1.0  0.99924  0.55719  0.14448  1.0000
  H   H608      1.0  0.01361  0.57471  0.22512  1.0000
  H   H609      1.0  0.23595  0.62436  0.08525  1.0000
  H   H610      1.0  0.25720  0.59085  0.09153  1.0000
  C   C353      1.0  0.13747  0.57868  0.22945  1.0000
  H   H611      1.0  0.00955  0.55559  0.18505  1.0000
  C   C354      1.0  0.31910  0.51557  0.01641  1.0000
  H   H612      1.0  0.29796  0.60979  0.11867  1.0000
  C   C355      1.0  0.01508  0.52981  0.15750  1.0000
  C   C356      1.0  0.00051  0.58376  0.21875  1.0000
  N   N26       1.0  0.10459  0.48285  0.13228  1.0000
  C   C357      1.0  0.25784  0.56462  0.12345  1.0000
  C   C358      1.0  0.07009  0.50561  0.12632  1.0000
  H   H613      1.0  0.04653  0.56824  0.19971  1.0000
  H   H614      1.0  0.15910  0.55526  0.21783  1.0000
  N   N27       1.0  0.25718  0.60386  0.11475  1.0000
  C   C359      1.0  0.26817  0.58401  0.12313  1.0000
  C   C360      1.0  0.26443  0.62175  0.12064  1.0000
  C   C361      1.0  0.23400  0.60548  0.11928  1.0000
  C   C362      1.0  0.28747  0.62407  0.11499  1.0000
  C   C363      1.0  0.22595  0.60452  0.13852  1.0000
  H   H615      1.0  0.27018  0.58514  0.13652  1.0000
  H   H616      1.0  0.28430  0.58063  0.11662  1.0000
  H   H617      1.0  0.25496  0.63657  0.11639  1.0000
  Fe  Fe48      1.0  0.30666  0.56925  0.07128  1.0000
  H   H618      1.0  0.28854  0.49284  0.04240  1.0000
  H   H619      1.0  0.23967  0.49297  0.09750  1.0000
  H   H620      1.0  0.12319  0.48936  0.15049  1.0000
  C   C364      1.0  0.99749  0.60621  0.22276  1.0000
  H   H621      1.0  0.07746  0.52992  0.22811  1.0000
  C   C365      1.0  0.28847  0.56568  0.99463  1.0000
  H   H622      1.0  0.30237  0.49346  0.00918  1.0000
  H   H623      1.0  0.99197  0.53022  0.20357  1.0000
  S   S100      1.0  0.10740  0.49479  0.21083  1.0000
  H   H624      1.0  0.30710  0.52699  0.02239  1.0000
  C   C366      1.0  0.30972  0.50700  0.00271  1.0000
  C   C367      1.0  0.13930  0.49789  0.12594  1.0000
  C   C368      1.0  0.26067  0.55034  0.98683  1.0000
  H   H625      1.0  0.14327  0.49137  0.18591  1.0000
  H   H626      1.0  0.99384  0.59301  0.16551  1.0000
  H   H627      1.0  0.06842  0.56611  0.22936  1.0000
  C   C369      1.0  0.09224  0.50410  0.13104  1.0000
  H   H628      1.0  0.29677  0.51878  0.99868  1.0000
  H   H629      1.0  0.14251  0.49386  0.11276  1.0000
  H   H630      1.0  0.07192  0.48793  0.16173  1.0000
  H   H631      1.0  0.15448  0.49601  0.13092  1.0000
  H   H632      1.0  0.00376  0.60661  0.23486  1.0000
  H   H633      1.0  0.26672  0.48161  0.09600  1.0000
  Fe  Fe49      1.0  0.27630  0.82009  0.43683  1.0000
  S   S101      1.0  0.24659  0.84155  0.43795  1.0000
  S   S102      1.0  0.27992  0.80163  0.46263  1.0000
  Fe  Fe50      1.0  0.28634  0.83249  0.39851  1.0000
  S   S103      1.0  0.25642  0.85463  0.39742  1.0000
  S   S104      1.0  0.30689  0.82938  0.37302  1.0000
  Fe  Fe51      1.0  0.26450  0.86451  0.42112  1.0000
  S   S105      1.0  0.26412  0.89522  0.43086  1.0000
  Fe  Fe52      1.0  0.24126  0.82918  0.41446  1.0000
  S   S106      1.0  0.20845  0.82028  0.41684  1.0000
  S   S107      1.0  0.29496  0.84361  0.42146  1.0000
  S   S108      1.0  0.27053  0.80657  0.41401  1.0000
  Fe  Fe53      1.0  0.14581  0.72369  0.40694  1.0000
  S   S109      1.0  0.15598  0.68998  0.40429  1.0000
  S   S110      1.0  0.17407  0.74122  0.39961  1.0000
  Fe  Fe54      1.0  0.10113  0.71536  0.42057  1.0000
  S   S111      1.0  0.10907  0.68142  0.41945  1.0000
  S   S112      1.0  0.06804  0.72351  0.43298  1.0000
  Fe  Fe55      1.0  0.13777  0.68448  0.43012  1.0000
  S   S113      1.0  0.15012  0.65999  0.45005  1.0000
  Fe  Fe56      1.0  0.12626  0.68995  0.39372  1.0000
  S   S114      1.0  0.12089  0.67605  0.37041  1.0000
  S   S115      1.0  0.12889  0.71771  0.43346  1.0000
  S   S116      1.0  0.11705  0.72425  0.39413  1.0000
  H   H634      1.0  0.20243  0.56159  0.33374  1.0000
  Fe  Fe57      1.0  0.12679  0.56833  0.33656  1.0000
  S   S117      1.0  0.12652  0.58648  0.31048  1.0000
  S   S118      1.0  0.13613  0.58120  0.35883  1.0000
  Fe  Fe58      1.0  0.11301  0.53036  0.32537  1.0000
  S   S119      1.0  0.11197  0.54624  0.29875  1.0000
  S   S120      1.0  0.09981  0.50024  0.32725  1.0000
  Fe  Fe59      1.0  0.14168  0.55672  0.30108  1.0000
  S   S121      1.0  0.16594  0.55272  0.27847  1.0000
  Fe  Fe60      1.0  0.09682  0.57408  0.31063  1.0000
  S   S122      1.0  0.06906  0.59139  0.29919  1.0000
  S   S123      1.0  0.14432  0.53896  0.32704  1.0000
  S   S124      1.0  0.09571  0.55797  0.33740  1.0000
  C   C370      1.0  0.18764  0.56953  0.33974  1.0000
  H   H635      1.0  0.06141  0.71587  0.37396  1.0000
  C   C371      1.0  0.03315  0.57942  0.29318  1.0000
  C   C372      1.0  0.05107  0.57415  0.30123  1.0000
  C   C373      1.0  0.05508  0.55461  0.31039  1.0000
  C   C374      1.0  0.04105  0.54054  0.31194  1.0000
  H   H636      1.0  0.03019  0.59438  0.28581  1.0000
  H   H637      1.0  0.06898  0.55019  0.31637  1.0000
  H   H638      1.0  0.04422  0.52567  0.31935  1.0000
  C   C375      1.0  0.04747  0.72685  0.42040  1.0000
  C   C376      1.0  0.04962  0.73663  0.40364  1.0000
  C   C377      1.0  0.03261  0.74059  0.39426  1.0000
  C   C378      1.0  0.01351  0.73419  0.40130  1.0000
  C   C379      1.0  0.01145  0.72396  0.41796  1.0000
  C   C380      1.0  0.02829  0.72061  0.42756  1.0000
  H   H639      1.0  0.06420  0.74178  0.39808  1.0000
  H   H640      1.0  0.03428  0.74866  0.38145  1.0000
  H   H641      1.0  0.02217  0.70961  0.37084  1.0000
  H   H642      1.0  0.02646  0.71317  0.44056  1.0000
  C   C381      1.0  0.12431  0.64945  0.36799  1.0000
  C   C382      1.0  0.13370  0.63428  0.37963  1.0000
  C   C383      1.0  0.13690  0.61344  0.37678  1.0000
  C   C384      1.0  0.13051  0.60747  0.36242  1.0000
  C   C385      1.0  0.12076  0.62262  0.35094  1.0000
  C   C386      1.0  0.11785  0.64348  0.35365  1.0000
  H   H643      1.0  0.13876  0.63863  0.39071  1.0000
  H   H644      1.0  0.14443  0.60186  0.38575  1.0000
  H   H645      1.0  0.11576  0.61830  0.33983  1.0000
  H   H646      1.0  0.11078  0.65510  0.34447  1.0000
  C   C387      1.0  0.01915  0.56518  0.29458  1.0000
  C   C388      1.0  0.15261  0.68542  0.47421  1.0000
  H   H647      1.0  0.31257  0.90023  0.44833  1.0000
  H   H648      1.0  0.30658  0.92563  0.34376  1.0000
  H   H649      1.0  0.14440  0.49104  0.25856  1.0000
  C   C389      1.0  0.26646  0.96039  0.40208  1.0000
  C   C390      1.0  0.27073  0.95560  0.41894  1.0000
  H   H650      1.0  0.09338  0.66903  0.46148  1.0000
  H   H651      1.0  0.14195  0.69696  0.46773  1.0000
  H   H652      1.0  0.05960  0.51280  0.28271  1.0000
  C   C391      1.0  0.19940  0.79788  0.41228  1.0000
  C   C392      1.0  0.21155  0.78410  0.40190  1.0000
  C   C393      1.0  0.20340  0.76707  0.39810  1.0000
  C   C394      1.0  0.18317  0.76326  0.40484  1.0000
  C   C395      1.0  0.17124  0.77667  0.41567  1.0000
  C   C396      1.0  0.17925  0.79395  0.41921  1.0000
  H   H653      1.0  0.22701  0.78690  0.39638  1.0000
  H   H654      1.0  0.21278  0.75694  0.38962  1.0000
  H   H655      1.0  0.15568  0.77403  0.42099  1.0000
  H   H656      1.0  0.16965  0.80450  0.42722  1.0000
  C   C397      1.0  0.26099  0.94500  0.39392  1.0000
  C   C398      1.0  0.26018  0.92487  0.40246  1.0000
  C   C399      1.0  0.26469  0.92009  0.41929  1.0000
  C   C400      1.0  0.26967  0.93563  0.42749  1.0000
  H   H657      1.0  0.25723  0.94872  0.38100  1.0000
  H   H658      1.0  0.25557  0.91325  0.39621  1.0000
  H   H659      1.0  0.27254  0.93228  0.44061  1.0000
  H   H660      1.0  0.99227  0.61928  0.38832  1.0000
  H   H661      1.0  0.29849  0.87849  0.45393  1.0000
  C   C401      1.0  0.16261  0.55442  0.24438  1.0000
  H   H662      1.0  0.20506  0.58348  0.30974  1.0000
  H   H663      1.0  0.21259  0.62782  0.29582  1.0000
  C   C402      1.0  0.07342  0.72283  0.48010  1.0000
  C   C403      1.0  0.31164  0.88546  0.45671  1.0000
  C   C404      1.0  0.19261  0.62748  0.32940  1.0000
  C   C405      1.0  0.06031  0.66832  0.36299  1.0000
  H   H664      1.0  0.22433  0.60463  0.28760  1.0000
  H   H665      1.0  0.04897  0.56490  0.24736  1.0000
  H   H666      1.0  0.08070  0.69816  0.36401  1.0000
  N   N28       1.0  0.31787  0.89816  0.37223  1.0000
  H   H667      1.0  0.17767  0.63672  0.47184  1.0000
  H   H668      1.0  0.14005  0.48316  0.33874  1.0000
  C   C406      1.0  0.13073  0.58770  0.24447  1.0000
  C   C407      1.0  0.07195  0.52747  0.24202  1.0000
  H   H669      1.0  0.03236  0.49375  0.32066  1.0000
  H   H670      1.0  0.04138  0.52512  0.25744  1.0000
  H   H671      1.0  0.11862  0.60081  0.24453  1.0000
  H   H672      1.0  0.19522  0.68849  0.46418  1.0000
  H   H673      1.0  0.06118  0.72231  0.47201  1.0000
  C   C408      1.0  0.20932  0.82042  0.48310  1.0000
  H   H674      1.0  0.30332  0.87082  0.38181  1.0000
  H   H675      1.0  0.99678  0.71905  0.42354  1.0000
  H   H676      1.0  0.05461  0.54675  0.27297  1.0000
  H   H677      1.0  0.30164  0.94813  0.35375  1.0000
  H   H678      1.0  0.06253  0.68637  0.47704  1.0000
  H   H679      1.0  0.27111  0.90175  0.46451  1.0000
  H   H680      1.0  0.30104  0.87199  0.35169  1.0000
  H   H681      1.0  0.18646  0.80400  0.47654  1.0000
  H   H682      1.0  0.17516  0.54173  0.24425  1.0000
  H   H683      1.0  0.18489  0.49285  0.26327  1.0000
  C   C409      1.0  0.10037  0.54541  0.24652  1.0000
  H   H684      1.0  0.07954  0.55072  0.27621  1.0000
  H   H685      1.0  0.07993  0.51202  0.24631  1.0000
  H   H686      1.0  0.30327  0.88641  0.40756  1.0000
  H   H687      1.0  0.21514  0.82714  0.47007  1.0000
  C   C410      1.0  0.09482  0.68267  0.46757  1.0000
  N   N29       1.0  0.20941  0.70191  0.43986  1.0000
  C   C411      1.0  0.20070  0.72419  0.44100  1.0000
  C   C412      1.0  0.23085  0.70115  0.43002  1.0000
  C   C413      1.0  0.21087  0.68997  0.45728  1.0000
  C   C414      1.0  0.19522  0.69245  0.43109  1.0000
  C   C415      1.0  0.17977  0.72833  0.45231  1.0000
  C   C416      1.0  0.23172  0.70793  0.41063  1.0000
  C   C417      1.0  0.15887  0.66629  0.46811  1.0000
  C   C418      1.0  0.20215  0.66966  0.42830  1.0000
  H   H688      1.0  0.21189  0.73240  0.44552  1.0000
  H   H689      1.0  0.19833  0.73237  0.42816  1.0000
  H   H690      1.0  0.23987  0.68548  0.43189  1.0000
  H   H691      1.0  0.24006  0.71118  0.43491  1.0000
  H   H692      1.0  0.06345  0.65242  0.34064  1.0000
  H   H693      1.0  0.21828  0.67380  0.45627  1.0000
  H   H694      1.0  0.17961  0.69278  0.43863  1.0000
  H   H695      1.0  0.19195  0.70170  0.41873  1.0000
  H   H696      1.0  0.27459  0.96738  0.42547  1.0000
  H   H697      1.0  0.15106  0.50778  0.30085  1.0000
  H   H698      1.0  0.21185  0.80347  0.45190  1.0000
  H   H699      1.0  0.24812  0.70842  0.40499  1.0000
  H   H700      1.0  0.22566  0.69689  0.40413  1.0000
  H   H701      1.0  0.22316  0.72353  0.40763  1.0000
  C   C419      1.0  0.04830  0.68358  0.38927  1.0000
  H   H702      1.0  0.26356  0.94115  0.47872  1.0000
  C   C420      1.0  0.06598  0.56432  0.24358  1.0000
  H   H703      1.0  0.19614  0.65923  0.43947  1.0000
  H   H704      1.0  0.21913  0.66547  0.42588  1.0000
  H   H705      1.0  0.19606  0.66663  0.41681  1.0000
  H   H706      1.0  0.05255  0.65491  0.36919  1.0000
  C   C421      1.0  0.07468  0.51879  0.27919  1.0000
  H   H707      1.0  0.19055  0.77097  0.46710  1.0000
  H   H708      1.0  0.29473  0.92609  0.46089  1.0000
  H   H709      1.0  0.08585  0.50763  0.27234  1.0000
  H   H710      1.0  0.06493  0.67658  0.41142  1.0000
  H   H711      1.0  0.25871  0.90811  0.48454  1.0000
  H   H712      1.0  0.10480  0.55734  0.25317  1.0000
  C   C422      1.0  0.29989  0.93151  0.35591  1.0000
  H   H713      1.0  0.28374  0.95677  0.47533  1.0000
  C   C423      1.0  0.11537  0.52583  0.25121  1.0000
  H   H714      1.0  0.06002  0.59732  0.24518  1.0000
  C   C424      1.0  0.27204  0.89806  0.47843  1.0000
  H   H715      1.0  0.09378  0.69611  0.45755  1.0000
  H   H716      1.0  0.00932  0.67691  0.38446  1.0000
  H   H717      1.0  0.08744  0.72492  0.47072  1.0000
  H   H718      1.0  0.23994  0.76204  0.44840  1.0000
  H   H719      1.0  0.07886  0.66536  0.39336  1.0000
  H   H720      1.0  0.15166  0.51065  0.27831  1.0000
  C   C425      1.0  0.07733  0.68514  0.48254  1.0000
  N   N30       1.0  0.05041  0.68795  0.37004  1.0000
  S   S125      1.0  0.00533  0.52819  0.30678  1.0000
  C   C426      1.0  0.20327  0.76563  0.47521  1.0000
  H   H721      1.0  0.07171  0.58296  0.26287  1.0000
  H   H722      1.0  0.28308  0.93023  0.35843  1.0000
  C   C427      1.0  0.29939  0.88658  0.37500  1.0000
  H   H723      1.0  0.11039  0.67994  0.47178  1.0000
  C   C428      1.0  0.02293  0.54588  0.30426  1.0000
  H   H724      1.0  0.17476  0.56813  0.33270  1.0000
  C   C429      1.0  0.17283  0.65152  0.47645  1.0000
  H   H725      1.0  0.04871  0.67685  0.33772  1.0000
  C   C430      1.0  0.20691  0.59895  0.31263  1.0000
  C   C431      1.0  0.21013  0.61187  0.29504  1.0000
  H   H726      1.0  0.20328  0.59215  0.34747  1.0000
  H   H727      1.0  0.19720  0.61180  0.28759  1.0000
  H   H728      1.0  0.20801  0.62601  0.33401  1.0000
  H   H729      1.0  0.22172  0.59691  0.31827  1.0000
  H   H730      1.0  0.23935  0.69941  0.46337  1.0000
  H   H731      1.0  0.07638  0.66396  0.36629  1.0000
  H   H732      1.0  0.16719  0.72257  0.44745  1.0000
  C   C432      1.0  0.22302  0.69871  0.46897  1.0000
  C   C433      1.0  0.22934  0.77593  0.44428  1.0000
  H   H733      1.0  0.19342  0.63928  0.31810  1.0000
  H   H734      1.0  0.00566  0.56904  0.28796  1.0000
  C   C434      1.0  0.22355  0.79134  0.45756  1.0000
  C   C435      1.0  0.20054  0.80010  0.48325  1.0000
  N   N31       1.0  0.21534  0.78305  0.47555  1.0000
  H   H735      1.0  0.21548  0.71404  0.47221  1.0000
  C   C436      1.0  0.28996  0.81448  0.47662  1.0000
  C   C437      1.0  0.31103  0.92106  0.37123  1.0000
  N   N32       1.0  0.18903  0.60701  0.32509  1.0000
  H   H736      1.0  0.07656  0.67483  0.33717  1.0000
  C   C438      1.0  0.18910  0.59216  0.34138  1.0000
  H   H737      1.0  0.08050  0.51907  0.29151  1.0000
  H   H738      1.0  0.18442  0.56109  0.35271  1.0000
  C   C439      1.0  0.06236  0.66848  0.34352  1.0000
  N   N33       1.0  0.07751  0.54409  0.25083  1.0000
  C   C440      1.0  0.17802  0.48760  0.25315  1.0000
  C   C441      1.0  0.01318  0.67984  0.37043  1.0000
  H   H739      1.0  0.02903  0.69974  0.35126  1.0000
  H   H740      1.0  0.17359  0.63646  0.29974  1.0000
  H   H741      1.0  0.13352  0.58634  0.27116  1.0000
  C   C442      1.0  0.15527  0.56297  0.25954  1.0000
  H   H742      1.0  0.16901  0.59446  0.31136  1.0000
  H   H743      1.0  0.04017  0.66998  0.39395  1.0000
  H   H744      1.0  0.06223  0.70898  0.33660  1.0000
  H   H745      1.0  0.22324  0.68831  0.48122  1.0000
  C   C443      1.0  0.16866  0.60795  0.31828  1.0000
  H   H746      1.0  0.17582  0.59698  0.35094  1.0000
  H   H747      1.0  0.17812  0.62889  0.35604  1.0000
  H   H748      1.0  0.21310  0.75275  0.46928  1.0000
  H   H749      1.0  0.31754  0.81963  0.45944  1.0000
  C   C444      1.0  0.06870  0.67930  0.39733  1.0000
  C   C445      1.0  0.17634  0.63701  0.34306  1.0000
  H   H750      1.0  0.17845  0.65326  0.34327  1.0000
  H   H751      1.0  0.08685  0.58748  0.24214  1.0000
  C   C446      1.0  0.13921  0.57954  0.25957  1.0000
  C   C447      1.0  0.16133  0.62756  0.30637  1.0000
  H   H752      1.0  0.07371  0.72801  0.34409  1.0000
  C   C448      1.0  0.07138  0.54107  0.26989  1.0000
  C   C449      1.0  0.06401  0.70471  0.36448  1.0000
  H   H753      1.0  0.28640  0.89761  0.35057  1.0000
  H   H754      1.0  0.13139  0.52884  0.24629  1.0000
  H   H755      1.0  0.18056  0.72186  0.46583  1.0000
  H   H756      1.0  0.16033  0.63715  0.34040  1.0000
  H   H757      1.0  0.15596  0.60661  0.32905  1.0000
  H   H758      1.0  0.15372  0.62301  0.29625  1.0000
  H   H759      1.0  0.17522  0.74524  0.45197  1.0000
  H   H760      1.0  0.04667  0.51121  0.23931  1.0000
  C   C450      1.0  0.02892  0.69525  0.36517  1.0000
  C   C451      1.0  0.29035  0.88323  0.35903  1.0000
  H   H761      1.0  0.23722  0.78366  0.43240  1.0000
  H   H762      1.0  0.03862  0.69669  0.39514  1.0000
  H   H763      1.0  0.04628  0.72865  0.34812  1.0000
  H   H764      1.0  0.31028  0.87230  0.48314  1.0000
  H   H765      1.0  0.06707  0.75620  0.47848  1.0000
  H   H766      1.0  0.14906  0.63780  0.31342  1.0000
  C   C452      1.0  0.06121  0.71811  0.34726  1.0000
  H   H767      1.0  0.07744  0.69264  0.39457  1.0000
  H   H768      1.0  0.27584  0.87632  0.36313  1.0000
  H   H769      1.0  0.23732  0.79913  0.45750  1.0000
  C   C453      1.0  0.29529  0.92423  0.47484  1.0000
  H   H770      1.0  0.28642  0.89421  0.38347  1.0000
  C   C454      1.0  0.31829  0.82939  0.48393  1.0000
  H   H771      1.0  0.21522  0.77128  0.44079  1.0000
  H   H772      1.0  0.13052  0.50004  0.29226  1.0000
  C   C455      1.0  0.30923  0.82133  0.47200  1.0000
  H   H773      1.0  0.01853  0.66515  0.36503  1.0000
  H   H774      1.0  0.11493  0.52208  0.26522  1.0000
  H   H775      1.0  0.29996  0.92471  0.38263  1.0000
  C   C456      1.0  0.14746  0.50046  0.29020  1.0000
  C   C457      1.0  0.31028  0.88789  0.47581  1.0000
  H   H776      1.0  0.31228  0.91095  0.40674  1.0000
  H   H777      1.0  0.31103  0.92747  0.47608  1.0000
  H   H778      1.0  0.99843  0.68665  0.36535  1.0000
  C   C458      1.0  0.27933  0.94175  0.48173  1.0000
  H   H779      1.0  0.11297  0.51254  0.24518  1.0000
  C   C459      1.0  0.04863  0.52568  0.24397  1.0000
  H   H780      1.0  0.04960  0.49567  0.34310  1.0000
  C   C460      1.0  0.07164  0.58395  0.24892  1.0000
  H   H781      1.0  0.27936  0.86420  0.47813  1.0000
  C   C461      1.0  0.31708  0.89448  0.40508  1.0000
  H   H782      1.0  0.98900  0.72344  0.48287  1.0000
  H   H783      1.0  0.25259  0.87421  0.47953  1.0000
  S   S126      1.0  0.99287  0.73934  0.38872  1.0000
  C   C462      1.0  0.26742  0.87575  0.48395  1.0000
  H   H784      1.0  0.00276  0.49527  0.34042  1.0000
  H   H785      1.0  0.01114  0.48149  0.30486  1.0000
  N   N34       1.0  0.29222  0.90265  0.48274  1.0000
  H   H786      1.0  0.25766  0.76178  0.46919  1.0000
  H   H787      1.0  0.17471  0.50162  0.24392  1.0000
  C   C463      1.0  0.99447  0.48285  0.33809  1.0000
  H   H788      1.0  0.24148  0.74404  0.48232  1.0000
  C   C464      1.0  0.24862  0.75819  0.48180  1.0000
  H   H789      1.0  0.24174  0.78955  0.48605  1.0000
  C   C465      1.0  0.20422  0.57309  0.63307  1.0000
  Fe  Fe61      1.0  0.30201  0.85353  0.57713  1.0000
  S   S127      1.0  0.26803  0.86618  0.57986  1.0000
  H   H790      1.0  0.19495  0.79520  0.49687  1.0000
  Fe  Fe62      1.0  0.30141  0.84813  0.53987  1.0000
  S   S128      1.0  0.26777  0.86046  0.53999  1.0000
  H   H791      1.0  0.03626  0.73192  0.60218  1.0000
  Fe  Fe63      1.0  0.27526  0.88449  0.55437  1.0000
  S   S129      1.0  0.26559  0.91801  0.54501  1.0000
  Fe  Fe64      1.0  0.26389  0.84073  0.56529  1.0000
  S   S130      1.0  0.23843  0.82074  0.57522  1.0000
  S   S131      1.0  0.30931  0.87351  0.55248  1.0000
  S   S132      1.0  0.29741  0.82675  0.56438  1.0000
  Fe  Fe65      1.0  0.17388  0.74062  0.54534  1.0000
  S   S133      1.0  0.18722  0.70746  0.55232  1.0000
  S   S134      1.0  0.19404  0.76643  0.53571  1.0000
  Fe  Fe66      1.0  0.13080  0.72818  0.54318  1.0000
  S   S135      1.0  0.14136  0.69439  0.54940  1.0000
  S   S136      1.0  0.09860  0.74177  0.53675  1.0000
  Fe  Fe67      1.0  0.15717  0.70392  0.56940  1.0000
  S   S137      1.0  0.15298  0.68774  0.59671  1.0000
  Fe  Fe68      1.0  0.17017  0.70072  0.53187  1.0000
  S   S138      1.0  0.18750  0.68007  0.51307  1.0000
  S   S139      1.0  0.14494  0.73790  0.56418  1.0000
  S   S140      1.0  0.15839  0.73361  0.52392  1.0000
  H   H792      1.0  0.26833  0.79046  0.52892  1.0000
  Fe  Fe69      1.0  0.14192  0.57203  0.64059  1.0000
  S   S141      1.0  0.13493  0.58267  0.66656  1.0000
  S   S142      1.0  0.15411  0.59061  0.61584  1.0000
  Fe  Fe70      1.0  0.12677  0.52977  0.65361  1.0000
  S   S143      1.0  0.11882  0.53764  0.68031  1.0000
  Fe  Fe71      1.0  0.10566  0.56869  0.66832  1.0000
  S   S144      1.0  0.07334  0.58226  0.67775  1.0000
  Fe  Fe72      1.0  0.14873  0.55040  0.67609  1.0000
  S   S145      1.0  0.16975  0.54076  0.69666  1.0000
  S   S146      1.0  0.11161  0.56030  0.64181  1.0000
  S   S147      1.0  0.15806  0.54042  0.64991  1.0000
  S   S148      1.0  0.01899  0.51122  0.68255  1.0000
  C   C466      1.0  0.15794  0.54402  0.71760  1.0000
  H   H793      1.0  0.03707  0.70603  0.59726  1.0000
  C   C467      1.0  0.27939  0.81650  0.49299  1.0000
  C   C468      1.0  0.13839  0.55566  0.72043  1.0000
  C   C469      1.0  0.28811  0.82532  0.50472  1.0000
  H   H794      1.0  0.17750  0.60556  0.63938  1.0000
  H   H795      1.0  0.13026  0.56263  0.70973  1.0000
  C   C470      1.0  0.05803  0.56246  0.67994  1.0000
  C   C471      1.0  0.03731  0.56525  0.68734  1.0000
  C   C472      1.0  0.02512  0.54942  0.68839  1.0000
  C   C473      1.0  0.03386  0.53079  0.68231  1.0000
  C   C474      1.0  0.05455  0.52798  0.67512  1.0000
  C   C475      1.0  0.06646  0.54390  0.67367  1.0000
  H   H796      1.0  0.03066  0.57963  0.69211  1.0000
  H   H797      1.0  0.00906  0.55160  0.69397  1.0000
  H   H798      1.0  0.06127  0.51379  0.67006  1.0000
  H   H799      1.0  0.08201  0.54184  0.66725  1.0000
  C   C476      1.0  0.07769  0.72756  0.54302  1.0000
  C   C477      1.0  0.08104  0.70630  0.54786  1.0000
  C   C478      1.0  0.06414  0.69556  0.55383  1.0000
  C   C479      1.0  0.04380  0.70597  0.55509  1.0000
  C   C480      1.0  0.04034  0.72704  0.54937  1.0000
  C   C481      1.0  0.05728  0.73780  0.54333  1.0000
  H   H800      1.0  0.09665  0.69819  0.54736  1.0000
  H   H801      1.0  0.06687  0.67918  0.55797  1.0000
  H   H802      1.0  0.02471  0.73521  0.55036  1.0000
  H   H803      1.0  0.05459  0.75424  0.53945  1.0000
  C   C482      1.0  0.15250  0.66079  0.60168  1.0000
  C   C483      1.0  0.14588  0.65260  0.61852  1.0000
  C   C484      1.0  0.14533  0.63127  0.62293  1.0000
  C   C485      1.0  0.15204  0.61781  0.61064  1.0000
  C   C486      1.0  0.15860  0.62603  0.59383  1.0000
  C   C487      1.0  0.15861  0.64740  0.58932  1.0000
  H   H804      1.0  0.14119  0.66280  0.62820  1.0000
  H   H805      1.0  0.14027  0.62519  0.63593  1.0000
  H   H806      1.0  0.16385  0.61578  0.58422  1.0000
  H   H807      1.0  0.16374  0.65345  0.57632  1.0000
  C   C488      1.0  0.22636  0.80576  0.56391  1.0000
  C   C489      1.0  0.21460  0.79092  0.57318  1.0000
  C   C490      1.0  0.20460  0.77875  0.56480  1.0000
  C   C491      1.0  0.20606  0.78148  0.54701  1.0000
  C   C492      1.0  0.21775  0.79643  0.53771  1.0000
  C   C493      1.0  0.22798  0.80841  0.54609  1.0000
  H   H808      1.0  0.21319  0.78877  0.58697  1.0000
  H   H809      1.0  0.19568  0.76734  0.57213  1.0000
  H   H810      1.0  0.21892  0.79874  0.52395  1.0000
  H   H811      1.0  0.23684  0.81986  0.53878  1.0000
  H   H812      1.0  0.09624  0.49712  0.72560  1.0000
  H   H813      1.0  0.04946  0.54119  0.62966  1.0000
  C   C494      1.0  0.22032  0.90562  0.57455  1.0000
  C   C495      1.0  0.26764  0.93696  0.55780  1.0000
  C   C496      1.0  0.26616  0.93255  0.57556  1.0000
  C   C497      1.0  0.08947  0.67738  0.63314  1.0000
  H   H814      1.0  0.09438  0.48242  0.68360  1.0000
  H   H815      1.0  0.09514  0.67789  0.52067  1.0000
  C   C498      1.0  0.26968  0.95709  0.55010  1.0000
  H   H816      1.0  0.26443  0.91712  0.58163  1.0000
  C   C499      1.0  0.16831  0.53507  0.73162  1.0000
  H   H817      1.0  0.26444  0.81128  0.49660  1.0000
  H   H818      1.0  0.27075  0.96064  0.53636  1.0000
  H   H819      1.0  0.24893  0.59970  0.65008  1.0000
  H   H820      1.0  0.24113  0.58082  0.62864  1.0000
  H   H821      1.0  0.21584  0.59925  0.66356  1.0000
  C   C500      1.0  0.25981  0.75979  0.53217  1.0000
  H   H822      1.0  0.11212  0.51541  0.71493  1.0000
  H   H823      1.0  0.07388  0.68206  0.63988  1.0000
  H   H824      1.0  0.29927  0.80126  0.53551  1.0000
  H   H825      1.0  0.10933  0.67621  0.57996  1.0000
  H   H826      1.0  0.22237  0.57305  0.66080  1.0000
  H   H827      1.0  0.22941  0.60343  0.61677  1.0000
  H   H828      1.0  0.15403  0.48208  0.65976  1.0000
  H   H829      1.0  0.18438  0.56899  0.66582  1.0000
  C   C501      1.0  0.21062  0.58681  0.65814  1.0000
  H   H830      1.0  0.19259  0.57912  0.68268  1.0000
  C   C502      1.0  0.00356  0.60488  0.64985  1.0000
  C   C503      1.0  0.19331  0.60967  0.63495  1.0000
  H   H831      1.0  0.07772  0.74461  0.59566  1.0000
  C   C504      1.0  0.26623  0.94832  0.58554  1.0000
  C   C505      1.0  0.16504  0.92597  0.56275  1.0000
  H   H832      1.0  0.07940  0.74461  0.49673  1.0000
  C   C506      1.0  0.24334  0.60844  0.63829  1.0000
  H   H833      1.0  0.26416  0.76897  0.56325  1.0000
  H   H834      1.0  0.26452  0.94498  0.59930  1.0000
  N   N35       1.0  0.29079  0.77081  0.54366  1.0000
  H   H835      1.0  0.17941  0.48391  0.69839  1.0000
  C   C507      1.0  0.19440  0.63024  0.64134  1.0000
  H   H836      1.0  0.99795  0.59225  0.65920  1.0000
  H   H837      1.0  0.23475  0.62352  0.64106  1.0000
  S   S149      1.0  0.02365  0.69273  0.56606  1.0000
  H   H838      1.0  0.30274  0.78085  0.57470  1.0000
  N   N36       1.0  0.12694  0.48387  0.71480  1.0000
  C   C508      1.0  0.09362  0.73597  0.59450  1.0000
  C   C509      1.0  0.12031  0.48172  0.69781  1.0000
  H   H839      1.0  0.25738  0.61159  0.62931  1.0000
  H   H840      1.0  0.24906  0.76053  0.54415  1.0000
  H   H841      1.0  0.19667  0.83196  0.48820  1.0000
  C   C510      1.0  0.02574  0.56501  0.64065  1.0000
  H   H842      1.0  0.22382  0.57034  0.60828  1.0000
  C   C511      1.0  0.19005  0.58261  0.66905  1.0000
  H   H843      1.0  0.17789  0.59622  0.66807  1.0000
  C   C512      1.0  0.29991  0.74837  0.54589  1.0000
  C   C513      1.0  0.17484  0.67481  0.49668  1.0000
  N   N37       1.0  0.20978  0.59181  0.63919  1.0000
  H   H844      1.0  0.05417  0.72297  0.58529  1.0000
  H   H845      1.0  0.17848  0.63879  0.64337  1.0000
  C   C514      1.0  0.23081  0.59571  0.63000  1.0000
  H   H846      1.0  0.08753  0.71495  0.57838  1.0000
  H   H847      1.0  0.02596  0.53260  0.63969  1.0000
  C   C515      1.0  0.27792  0.77711  0.55979  1.0000
  H   H848      1.0  0.21341  0.55869  0.63860  1.0000
  H   H849      1.0  0.02576  0.54750  0.61935  1.0000
  H   H850      1.0  0.30683  0.90529  0.52277  1.0000
  H   H851      1.0  0.20389  0.63994  0.63175  1.0000
  H   H852      1.0  0.06778  0.60927  0.63519  1.0000
  H   H853      1.0  0.29315  0.89715  0.60134  1.0000
  H   H854      1.0  0.05406  0.69942  0.62116  1.0000
  N   N38       1.0  0.20251  0.90738  0.56428  1.0000
  H   H855      1.0  0.15709  0.94181  0.56427  1.0000
  C   C516      1.0  0.20974  0.91559  0.54610  1.0000
  C   C517      1.0  0.19555  0.88677  0.56449  1.0000
  H   H856      1.0  0.02676  0.71094  0.51246  1.0000
  H   H857      1.0  0.29100  0.88401  0.50743  1.0000
  C   C518      1.0  0.14818  0.49057  0.71132  1.0000
  C   C519      1.0  0.21243  0.86977  0.55800  1.0000
  C   C520      1.0  0.27036  0.97273  0.56006  1.0000
  H   H858      1.0  0.23472  0.89755  0.56800  1.0000
  H   H859      1.0  0.27163  0.79379  0.55782  1.0000
  H   H860      1.0  0.19932  0.91292  0.53714  1.0000
  H   H861      1.0  0.22504  0.90700  0.54157  1.0000
  H   H862      1.0  0.18868  0.88087  0.57753  1.0000
  H   H863      1.0  0.18284  0.88819  0.55645  1.0000
  H   H864      1.0  0.21543  0.87813  0.59331  1.0000
  H   H865      1.0  0.16844  0.92543  0.54885  1.0000
  C   C521      1.0  0.27646  0.77431  0.53003  1.0000
  H   H866      1.0  0.05218  0.74352  0.49623  1.0000
  H   H867      1.0  0.07047  0.68551  0.58645  1.0000
  H   H868      1.0  0.22169  0.81850  0.49146  1.0000
  H   H869      1.0  0.22410  0.92112  0.57555  1.0000
  H   H870      1.0  0.18931  0.93655  0.57366  1.0000
  C   C522      1.0  0.30783  0.83132  0.50032  1.0000
  H   H871      1.0  0.20562  0.85527  0.55902  1.0000
  H   H872      1.0  0.20508  0.74953  0.50139  1.0000
  H   H873      1.0  0.15414  0.49211  0.72331  1.0000
  H   H874      1.0  0.31646  0.78567  0.54816  1.0000
  H   H875      1.0  0.14743  0.50611  0.70372  1.0000
  N   N39       1.0  0.03442  0.58438  0.63258  1.0000
  C   C523      1.0  0.02720  0.60040  0.64463  1.0000
  C   C524      1.0  0.05778  0.58050  0.63106  1.0000
  C   C525      1.0  0.02634  0.59230  0.61576  1.0000
  C   C526      1.0  0.06021  0.70219  0.50701  1.0000
  H   H876      1.0  0.30492  0.97463  0.62551  1.0000
  C   C527      1.0  0.03810  0.58294  0.59981  1.0000
  H   H877      1.0  0.03449  0.59595  0.65664  1.0000
  H   H878      1.0  0.03217  0.61547  0.63899  1.0000
  H   H879      1.0  0.09008  0.66232  0.62849  1.0000
  H   H880      1.0  0.06288  0.57381  0.64363  1.0000
  H   H881      1.0  0.00981  0.59017  0.61660  1.0000
  H   H882      1.0  0.02651  0.60924  0.61284  1.0000
  H   H883      1.0  0.02977  0.56079  0.65382  1.0000
  H   H884      1.0  0.30915  0.91249  0.57439  1.0000
  H   H885      1.0  0.06341  0.72304  0.61853  1.0000
  H   H886      1.0  0.28804  0.73900  0.55305  1.0000
  H   H887      1.0  0.26677  0.74358  0.53114  1.0000
  C   C528      1.0  0.29133  0.90038  0.50188  1.0000
  H   H888      1.0  0.02670  0.58157  0.59123  1.0000
  H   H889      1.0  0.06299  0.68753  0.51562  1.0000
  H   H890      1.0  0.04853  0.59354  0.59233  1.0000
  H   H891      1.0  0.03403  0.68771  0.50242  1.0000
  C   C529      1.0  0.18459  0.92162  0.57203  1.0000
  H   H892      1.0  0.03686  0.49293  0.65079  1.0000
  H   H893      1.0  0.22621  0.77321  0.50011  1.0000
  H   H894      1.0  0.11053  0.70741  0.58763  1.0000
  H   H895      1.0  0.26551  0.87183  0.49801  1.0000
  C   C530      1.0  0.09391  0.71382  0.59062  1.0000
  C   C531      1.0  0.03792  0.70337  0.50264  1.0000
  C   C532      1.0  0.06772  0.74277  0.48860  1.0000
  H   H896      1.0  0.15414  0.91479  0.56814  1.0000
  H   H897      1.0  0.09713  0.70785  0.62493  1.0000
  C   C533      1.0  0.04665  0.71807  0.59823  1.0000
  H   H898      1.0  0.06040  0.71412  0.51540  1.0000
  H   H899      1.0  0.19709  0.94865  0.54409  1.0000
  H   H900      1.0  0.99021  0.73979  0.49832  1.0000
  C   C534      1.0  0.03244  0.54572  0.63151  1.0000
  H   H901      1.0  0.27672  0.90891  0.50777  1.0000
  C   C535      1.0  0.07989  0.68099  0.59716  1.0000
  H   H902      1.0  0.21842  0.87368  0.54439  1.0000
  H   H903      1.0  0.06460  0.56878  0.62255  1.0000
  H   H904      1.0  0.20406  0.90243  0.60096  1.0000
  C   C536      1.0  0.10584  0.68212  0.50910  1.0000
  H   H905      1.0  0.11258  0.68868  0.61376  1.0000
  S   S150      1.0  0.11499  0.50165  0.64736  1.0000
  H   H906      1.0  0.08551  0.59460  0.62096  1.0000
  C   C537      1.0  0.09749  0.70255  0.49879  1.0000
  H   H907      1.0  0.15566  0.70432  0.49341  1.0000
  C   C538      1.0  0.30691  0.78508  0.53802  1.0000
  H   H908      1.0  0.06412  0.48784  0.64351  1.0000
  C   C539      1.0  0.21228  0.93863  0.54290  1.0000
  C   C540      1.0  0.30560  0.90646  0.60187  1.0000
  H   H909      1.0  0.22231  0.94269  0.55151  1.0000
  H   H910      1.0  0.29786  0.92178  0.60497  1.0000
  C   C541      1.0  0.16031  0.68955  0.48874  1.0000
  H   H911      1.0  0.22545  0.86633  0.56576  1.0000
  H   H912      1.0  0.17923  0.91513  0.58528  1.0000
  H   H913      1.0  0.19342  0.61333  0.62091  1.0000
  H   H914      1.0  0.12777  0.49213  0.68727  1.0000
  S   S151      1.0  0.32016  0.84069  0.51510  1.0000
  H   H915      1.0  0.00852  0.56747  0.64183  1.0000
  H   H916      1.0  0.27772  0.78029  0.58639  1.0000
  H   H917      1.0  0.21987  0.94226  0.52966  1.0000
  H   H918      1.0  0.10049  0.67485  0.64277  1.0000
  H   H919      1.0  0.12057  0.68401  0.51353  1.0000
  H   H920      1.0  0.06248  0.60905  0.61357  1.0000
  H   H921      1.0  0.31454  0.78445  0.51013  1.0000
  C   C542      1.0  0.28862  0.77339  0.57607  1.0000
  H   H922      1.0  0.28526  0.77242  0.51726  1.0000
  H   H923      1.0  0.20012  0.62853  0.65385  1.0000
  H   H924      1.0  0.10987  0.70625  0.48822  1.0000
  C   C543      1.0  0.11247  0.50044  0.72338  1.0000
  H   H925      1.0  0.31433  0.89846  0.61238  1.0000
  H   H926      1.0  0.10096  0.73625  0.60606  1.0000
  H   H927      1.0  0.31107  0.94609  0.57951  1.0000
  Fe  Fe73      1.0  0.99084  0.69955  0.55922  1.0000
  H   H928      1.0  0.19937  0.58687  0.60659  1.0000
  H   H929      1.0  0.20020  0.55966  0.61071  1.0000
  H   H930      1.0  0.25004  0.76453  0.52170  1.0000
  C   C544      1.0  0.20720  0.57277  0.61354  1.0000
  H   H931      1.0  0.18770  0.57130  0.63747  1.0000
  H   H932      1.0  0.04689  0.56743  0.60230  1.0000
  H   H933      1.0  0.18343  0.52601  0.72952  1.0000
  H   H934      1.0  0.29207  0.75673  0.58056  1.0000
  N   N40       1.0  0.07710  0.70315  0.49210  1.0000
  C   C545      1.0  0.30960  0.90718  0.50864  1.0000
  C   C546      1.0  0.09983  0.66754  0.59032  1.0000
  C   C547      1.0  0.06876  0.59962  0.62477  1.0000
  H   H935      1.0  0.10958  0.66921  0.50128  1.0000
  C   C548      1.0  0.26838  0.96845  0.57784  1.0000
  H   H936      1.0  0.09637  0.71469  0.50727  1.0000
  H   H937      1.0  0.23131  0.89468  0.59904  1.0000
  H   H938      1.0  0.27979  0.82700  0.51724  1.0000
  N   N41       1.0  0.08302  0.69978  0.60446  1.0000
  C   C549      1.0  0.21722  0.89455  0.59295  1.0000
  C   C550      1.0  0.06209  0.71020  0.61138  1.0000
  H   H939      1.0  0.09159  0.50354  0.69553  1.0000
  H   H940      1.0  0.07053  0.67098  0.60662  1.0000
  C   C551      1.0  0.09630  0.69408  0.61875  1.0000
  S   S152      1.0  0.31631  0.85267  0.60150  1.0000
  H   H941      1.0  0.09555  0.65460  0.58483  1.0000
  H   H942      1.0  0.10263  0.74445  0.58364  1.0000
  H   H943      1.0  0.25998  0.75482  0.49117  1.0000
  H   H944      1.0  0.10936  0.66063  0.60057  1.0000
  H   H945      1.0  0.07817  0.67042  0.49130  1.0000
  H   H946      1.0  0.31099  0.92366  0.50461  1.0000
  H   H947      1.0  0.27895  0.94196  0.49561  1.0000
  H   H948      1.0  0.30388  0.74266  0.53320  1.0000
  H   H949      1.0  0.29678  0.98001  0.64654  1.0000
  H   H950      1.0  0.19232  0.64451  0.49646  1.0000
  H   H951      1.0  0.99469  0.60763  0.63878  1.0000
  H   H952      1.0  0.31719  0.73000  0.56564  1.0000
  C   C552      1.0  0.18106  0.65589  0.49044  1.0000
  H   H953      1.0  0.00000  0.61897  0.65635  1.0000
  H   H954      1.0  0.03521  0.71268  0.49031  1.0000
  C   C553      1.0  0.31953  0.90749  0.58452  1.0000
  C   C554      1.0  0.09695  0.48673  0.69596  1.0000
  C   C555      1.0  0.19344  0.75585  0.49259  1.0000
  H   H955      1.0  0.18103  0.76670  0.49880  1.0000
  H   H956      1.0  0.18599  0.74268  0.49052  1.0000
  C   C556      1.0  0.31968  0.74246  0.55494  1.0000
  H   H957      1.0  0.98871  0.59650  0.59270  1.0000
  C   C557      1.0  0.23264  0.77670  0.48649  1.0000
  H   H958      1.0  0.32178  0.94440  0.63728  1.0000
  Fe  Fe74      1.0  0.15403  0.49846  0.81705  1.0000
  S   S153      1.0  0.14070  0.50939  0.84212  1.0000
  H   H959      1.0  0.03855  0.53359  0.79488  1.0000
  Fe  Fe75      1.0  0.13864  0.53801  0.79624  1.0000
  S   S154      1.0  0.12530  0.55263  0.81986  1.0000
  S   S155      1.0  0.12889  0.55609  0.77163  1.0000
  Fe  Fe76      1.0  0.15449  0.53794  0.83091  1.0000
  S   S156      1.0  0.16835  0.55339  0.84934  1.0000
  Fe  Fe77      1.0  0.11271  0.52298  0.82914  1.0000
  S   S157      1.0  0.07948  0.52588  0.84203  1.0000
  S   S158      1.0  0.16931  0.52631  0.80622  1.0000
  S   S159      1.0  0.12464  0.50893  0.80517  1.0000
  H   H960      1.0  0.24386  0.60715  0.88122  1.0000
  S   S160      1.0  0.27370  0.56644  0.90446  1.0000
  C   C558      1.0  0.14011  0.55037  0.75110  1.0000
  H   H961      1.0  0.11724  0.49043  0.75043  1.0000
  S   S161      1.0  0.27283  0.51718  0.91522  1.0000
  H   H962      1.0  0.31536  0.64580  0.92758  1.0000
  Fe  Fe78      1.0  0.27495  0.53875  0.89087  1.0000
  S   S162      1.0  0.26095  0.53422  0.86743  1.0000
  Fe  Fe79      1.0  0.27512  0.54412  0.92845  1.0000
  S   S163      1.0  0.25584  0.54645  0.95400  1.0000
  H   H963      1.0  0.25275  0.63083  0.84587  1.0000
  C   C559      1.0  0.30217  0.62140  0.85642  1.0000
  C   C560      1.0  0.26814  0.55449  0.96949  1.0000
  C   C561      1.0  0.12963  0.55898  0.73709  1.0000
  H   H964      1.0  0.25181  0.58000  0.85176  1.0000
  C   C562      1.0  0.28556  0.56462  0.96474  1.0000
  H   H965      1.0  0.22960  0.61192  0.86289  1.0000
  H   H966      1.0  0.29117  0.56824  0.95140  1.0000
  C   C563      1.0  0.31000  0.63346  0.93741  1.0000
  H   H967      1.0  0.06947  0.53495  0.80164  1.0000
  H   H968      1.0  0.08858  0.58173  0.78310  1.0000
  C   C564      1.0  0.29514  0.50193  0.96916  1.0000
  C   C565      1.0  0.28228  0.61182  0.86340  1.0000
  C   C566      1.0  0.19378  0.54632  0.85499  1.0000
  C   C567      1.0  0.20950  0.53551  0.84463  1.0000
  C   C568      1.0  0.22994  0.53177  0.84876  1.0000
  C   C569      1.0  0.23478  0.53836  0.86345  1.0000
  C   C570      1.0  0.21893  0.54836  0.87421  1.0000
  C   C571      1.0  0.19858  0.55259  0.86984  1.0000
  H   H969      1.0  0.20603  0.53073  0.83312  1.0000
  H   H970      1.0  0.24212  0.52403  0.84035  1.0000
  H   H971      1.0  0.22239  0.55322  0.88569  1.0000
  H   H972      1.0  0.18648  0.56090  0.87794  1.0000
  C   C572      1.0  0.05921  0.51689  0.83432  1.0000
  C   C573      1.0  0.06313  0.50123  0.82382  1.0000
  C   C574      1.0  0.04654  0.49402  0.81838  1.0000
  C   C575      1.0  0.02597  0.50280  0.82299  1.0000
  C   C576      1.0  0.02208  0.51878  0.83316  1.0000
  C   C577      1.0  0.03865  0.52557  0.83901  1.0000
  H   H973      1.0  0.07891  0.49460  0.82002  1.0000
  H   H974      1.0  0.23675  0.49201  0.91365  1.0000
  H   H975      1.0  0.03550  0.53762  0.84719  1.0000
  C   C578      1.0  0.07431  0.58100  0.77738  1.0000
  H   H976      1.0  0.30013  0.63288  0.84502  1.0000
  H   H977      1.0  0.16757  0.53143  0.75908  1.0000
  C   C579      1.0  0.06815  0.57758  0.81571  1.0000
  H   H978      1.0  0.05017  0.60426  0.76654  1.0000
  H   H979      1.0  0.00629  0.52554  0.83688  1.0000
  Fe  Fe80      1.0  0.30866  0.55981  0.90173  1.0000
  H   H980      1.0  0.28921  0.49211  0.96140  1.0000
  S   S164      1.0  0.00561  0.49296  0.81621  1.0000
  H   H981      1.0  0.29908  0.51563  0.96035  1.0000
  H   H982      1.0  0.08022  0.56434  0.81849  1.0000
  H   H983      1.0  0.04026  0.58565  0.80352  1.0000
  C   C580      1.0  0.28966  0.58876  0.84056  1.0000
  H   H984      1.0  0.09080  0.54812  0.79498  1.0000
  H   H985      1.0  0.08015  0.57628  0.76455  1.0000
  H   H986      1.0  0.08911  0.54272  0.76409  1.0000
  C   C581      1.0  0.07612  0.54543  0.79089  1.0000
  Fe  Fe81      1.0  0.30740  0.51313  0.91187  1.0000
  C   C582      1.0  0.08230  0.53325  0.77548  1.0000
  H   H987      1.0  0.05979  0.58140  0.82821  1.0000
  H   H988      1.0  0.24370  0.62623  0.81826  1.0000
  H   H989      1.0  0.26537  0.57661  0.86951  1.0000
  H   H990      1.0  0.07558  0.59112  0.80956  1.0000
  H   H991      1.0  0.30631  0.62945  0.86642  1.0000
  H   H992      1.0  0.22869  0.58882  0.87730  1.0000
  H   H993      1.0  0.28562  0.60070  0.87485  1.0000
  S   S165      1.0  0.30985  0.53324  0.88665  1.0000
  C   C583      1.0  0.05261  0.57219  0.80499  1.0000
  H   H994      1.0  0.03360  0.57771  0.77690  1.0000
  C   C584      1.0  0.22479  0.48615  0.88450  1.0000
  C   C585      1.0  0.23902  0.60011  0.87095  1.0000
  H   H995      1.0  0.25953  0.60185  0.81783  1.0000
  C   C586      1.0  0.29561  0.57030  0.97728  1.0000
  N   N42       1.0  0.06178  0.56541  0.78796  1.0000
  C   C587      1.0  0.04425  0.56297  0.77859  1.0000
  H   H996      1.0  0.28222  0.50669  0.97898  1.0000
  H   H997      1.0  0.31701  0.64541  0.96960  1.0000
  H   H998      1.0  0.26151  0.49628  0.88864  1.0000
  H   H999      1.0  0.19716  0.48227  0.90355  1.0000
  C   C588      1.0  0.03022  0.54685  0.78739  1.0000
  H   H1000     1.0  0.05715  0.60979  0.78639  1.0000
  H   H1001     1.0  0.28258  0.58109  0.83184  1.0000
  H   H1002     1.0  0.23662  0.60518  0.83334  1.0000
  N   N43       1.0  0.27321  0.60207  0.85081  1.0000
  H   H1003     1.0  0.04985  0.55977  0.76526  1.0000
  H   H1004     1.0  0.22480  0.50258  0.88612  1.0000
  H   H1005     1.0  0.27491  0.62762  0.83063  1.0000
  C   C589      1.0  0.31403  0.48957  0.97717  1.0000
  C   C590      1.0  0.30269  0.57114  0.85090  1.0000
  H   H1006     1.0  0.07417  0.61313  0.76700  1.0000
  H   H1007     1.0  0.01708  0.55395  0.79602  1.0000
  H   H1008     1.0  0.25848  0.49042  0.85891  1.0000
  C   C591      1.0  0.25775  0.58875  0.86043  1.0000
  H   H1009     1.0  0.06901  0.52677  0.77237  1.0000
  H   H1010     1.0  0.04462  0.55988  0.81305  1.0000
  S   S166      1.0  0.30974  0.53901  0.92664  1.0000
  H   H1011     1.0  0.28424  0.48416  0.86366  1.0000
  H   H1012     1.0  0.09432  0.52003  0.77870  1.0000
  H   H1013     1.0  0.02392  0.54024  0.77759  1.0000
  C   C592      1.0  0.26305  0.61907  0.83876  1.0000
  H   H1014     1.0  0.30912  0.57799  0.97355  1.0000
  C   C593      1.0  0.25009  0.61236  0.82648  1.0000
  C   C594      1.0  0.15935  0.53809  0.74836  1.0000
  H   H1015     1.0  0.29958  0.64024  0.94797  1.0000
  C   C595      1.0  0.06298  0.60320  0.77434  1.0000
  H   H1016     1.0  0.27084  0.62430  0.86867  1.0000
  H   H1017     1.0  0.10524  0.51632  0.74579  1.0000
  H   H1018     1.0  0.31554  0.60942  0.85352  1.0000
  H   H1019     1.0  0.31687  0.61852  0.97535  1.0000
  H   H1020     1.0  0.30039  0.59810  0.83179  1.0000
  C   C596      1.0  0.11740  0.50431  0.74083  1.0000
  H   H1021     1.0  0.30368  0.57410  0.86398  1.0000
  H   H1022     1.0  0.32175  0.60448  0.95041  1.0000
  H   H1023     1.0  0.29624  0.55647  0.85179  1.0000
  H   H1024     1.0  0.22765  0.48546  0.87055  1.0000
  H   H1025     1.0  0.13221  0.51050  0.73989  1.0000
  H   H1026     1.0  0.19191  0.49338  0.88274  1.0000
  H   H1027     1.0  0.11477  0.56852  0.73910  1.0000
  H   H1028     1.0  0.30068  0.62493  0.93110  1.0000
  H   H1029     1.0  0.31704  0.53190  0.97438  1.0000
  H   H1030     1.0  0.31892  0.56900  0.84456  1.0000
  H   H1031     1.0  0.10087  0.48218  0.86582  1.0000
  H   H1032     1.0  0.04964  0.48167  0.81050  1.0000
  C   C597      1.0  0.20246  0.48146  0.88983  1.0000
  H   H1033     1.0  0.15725  0.48077  0.78535  1.0000
  Fe  Fe82      1.0  0.42467  0.23119  0.04702  1.0000
  S   S167      1.0  0.42413  0.20079  0.03775  1.0000
  S   S168      1.0  0.40212  0.25971  0.03835  1.0000
  Fe  Fe83      1.0  0.46690  0.21555  0.06031  1.0000
  S   S169      1.0  0.46959  0.18441  0.05170  1.0000
  S   S170      1.0  0.49050  0.22434  0.07497  1.0000
  Fe  Fe84      1.0  0.45773  0.20186  0.02781  1.0000
  S   S171      1.0  0.47363  0.19810  0.00101  1.0000
  Fe  Fe85      1.0  0.43595  0.18572  0.06248  1.0000
  S   S172      1.0  0.42140  0.15971  0.07975  1.0000
  S   S173      1.0  0.45785  0.23291  0.03570  1.0000
  S   S174      1.0  0.43373  0.21622  0.07254  1.0000
  Fe  Fe86      1.0  0.61127  0.22558  0.05131  1.0000
  S   S175      1.0  0.58207  0.23054  0.03842  1.0000
  S   S176      1.0  0.62787  0.19325  0.05477  1.0000
  S   S177      1.0  0.61159  0.08071  0.17675  1.0000
  S   S178      1.0  0.62135  0.03180  0.19342  1.0000
  Fe  Fe87      1.0  0.59499  0.05290  0.18289  1.0000
  S   S179      1.0  0.56369  0.05373  0.19860  1.0000
  Fe  Fe88      1.0  0.46089  0.05035  0.13402  1.0000
  S   S180      1.0  0.47180  0.05020  0.15945  1.0000
  S   S181      1.0  0.46958  0.07436  0.11152  1.0000
  Fe  Fe89      1.0  0.44537  0.00832  0.14481  1.0000
  S   S182      1.0  0.45473  0.00518  0.17092  1.0000
  H   H1034     1.0  0.35523  0.45943  0.00837  1.0000
  Fe  Fe90      1.0  0.44192  0.03856  0.17064  1.0000
  S   S183      1.0  0.42324  0.04870  0.19470  1.0000
  Fe  Fe91      1.0  0.48368  0.01686  0.15784  1.0000
  S   S184      1.0  0.51366  0.99963  0.16566  1.0000
  S   S185      1.0  0.42975  0.04116  0.14540  1.0000
  S   S186      1.0  0.47550  0.01746  0.13148  1.0000
  H   H1035     1.0  0.65192  0.26162  0.99713  1.0000
  C   C598      1.0  0.47779  0.07487  0.22643  1.0000
  H   H1036     1.0  0.35454  0.23636  0.05255  1.0000
  H   H1037     1.0  0.58701  0.15916  0.04368  1.0000
  H   H1038     1.0  0.59537  0.02295  0.22423  1.0000
  H   H1039     1.0  0.54190  0.14792  0.07545  1.0000
  H   H1040     1.0  0.59976  0.18000  0.08592  1.0000
  C   C599      1.0  0.54951  0.03785  0.19065  1.0000
  C   C600      1.0  0.55982  0.02086  0.18284  1.0000
  C   C601      1.0  0.54860  0.00885  0.17560  1.0000
  C   C602      1.0  0.52713  0.01403  0.17587  1.0000
  C   C603      1.0  0.51673  0.03063  0.18415  1.0000
  C   C604      1.0  0.52791  0.04245  0.19165  1.0000
  H   H1041     1.0  0.57647  0.01706  0.18224  1.0000
  H   H1042     1.0  0.55669  0.99596  0.16929  1.0000
  H   H1043     1.0  0.50013  0.03447  0.18467  1.0000
  H   H1044     1.0  0.51991  0.05561  0.19761  1.0000
  C   C605      1.0  0.65215  0.11817  0.16927  1.0000
  C   C606      1.0  0.43691  0.04081  0.21236  1.0000
  C   C607      1.0  0.45693  0.03000  0.21019  1.0000
  H   H1045     1.0  0.41208  0.05295  0.23048  1.0000
  H   H1046     1.0  0.57542  0.14178  0.07127  1.0000
  H   H1047     1.0  0.46441  0.02743  0.19757  1.0000
  C   C608      1.0  0.62513  0.15044  0.12687  1.0000
  H   H1048     1.0  0.63714  0.11353  0.17557  1.0000
  H   H1049     1.0  0.63326  0.11321  0.09272  1.0000
  H   H1050     1.0  0.40170  0.06534  0.06449  1.0000
  S   S187      1.0  0.60247  0.04333  0.15656  1.0000
  C   C609      1.0  0.38331  0.27724  0.04921  1.0000
  C   C610      1.0  0.37462  0.29538  0.03978  1.0000
  C   C611      1.0  0.35871  0.30922  0.04751  1.0000
  C   C612      1.0  0.35157  0.30528  0.06488  1.0000
  C   C613      1.0  0.36062  0.28740  0.07440  1.0000
  C   C614      1.0  0.37625  0.27333  0.06660  1.0000
  H   H1051     1.0  0.38001  0.29860  0.02634  1.0000
  H   H1052     1.0  0.35207  0.32300  0.04006  1.0000
  H   H1053     1.0  0.35523  0.28422  0.08785  1.0000
  H   H1054     1.0  0.38256  0.25933  0.07396  1.0000
  C   C615      1.0  0.51603  0.22562  0.06486  1.0000
  C   C616      1.0  0.53093  0.23042  0.07397  1.0000
  C   C617      1.0  0.55139  0.23160  0.06616  1.0000
  C   C618      1.0  0.55697  0.22818  0.04913  1.0000
  C   C619      1.0  0.54202  0.22350  0.04002  1.0000
  C   C620      1.0  0.52166  0.22207  0.04788  1.0000
  H   H1055     1.0  0.52663  0.23326  0.08710  1.0000
  H   H1056     1.0  0.56272  0.23555  0.07319  1.0000
  H   H1057     1.0  0.54620  0.22097  0.02681  1.0000
  H   H1058     1.0  0.51029  0.21837  0.04075  1.0000
  C   C621      1.0  0.43528  0.13651  0.08908  1.0000
  C   C622      1.0  0.45622  0.13031  0.08361  1.0000
  C   C623      1.0  0.46647  0.11141  0.09082  1.0000
  C   C624      1.0  0.45607  0.09859  0.10376  1.0000
  C   C625      1.0  0.43518  0.10487  0.10939  1.0000
  C   C626      1.0  0.42484  0.12364  0.10198  1.0000
  H   H1059     1.0  0.46445  0.13995  0.07366  1.0000
  H   H1060     1.0  0.48258  0.10667  0.08630  1.0000
  H   H1061     1.0  0.42696  0.09523  0.11935  1.0000
  H   H1062     1.0  0.40865  0.12828  0.10631  1.0000
  C   C627      1.0  0.63804  0.18665  0.00571  1.0000
  H   H1063     1.0  0.53645  0.16912  0.99111  1.0000
  S   S188      1.0  0.62341  0.08942  0.12499  1.0000
  C   C628      1.0  0.43279  0.01983  0.09949  1.0000
  H   H1064     1.0  0.64870  0.13385  0.16243  1.0000
  C   C629      1.0  0.58142  0.15643  0.07138  1.0000
  H   H1065     1.0  0.34452  0.27160  0.04274  1.0000
  H   H1066     1.0  0.34467  0.25695  0.02600  1.0000
  H   H1067     1.0  0.44073  0.99872  0.07960  1.0000
  N   N44       1.0  0.44784  0.28182  0.07456  1.0000
  C   C630      1.0  0.47024  0.27960  0.06659  1.0000
  C   C631      1.0  0.43496  0.28005  0.06087  1.0000
  C   C632      1.0  0.44570  0.26409  0.08858  1.0000
  C   C633      1.0  0.44239  0.30222  0.08158  1.0000
  C   C634      1.0  0.48657  0.27909  0.07873  1.0000
  C   C635      1.0  0.43748  0.29566  0.04461  1.0000
  C   C636      1.0  0.42377  0.26209  0.09781  1.0000
  C   C637      1.0  0.41917  0.31156  0.08368  1.0000
  H   H1068     1.0  0.47432  0.26536  0.06020  1.0000
  H   H1069     1.0  0.47300  0.29255  0.05637  1.0000
  H   H1070     1.0  0.41823  0.28154  0.06552  1.0000
  H   H1071     1.0  0.43861  0.26436  0.05685  1.0000
  H   H1072     1.0  0.45179  0.24923  0.08351  1.0000
  H   H1073     1.0  0.45517  0.26485  0.09882  1.0000
  H   H1074     1.0  0.44811  0.30109  0.09417  1.0000
  H   H1075     1.0  0.45053  0.31408  0.07302  1.0000
  H   H1076     1.0  0.48795  0.26457  0.08763  1.0000
  H   H1077     1.0  0.50204  0.27947  0.07105  1.0000
  H   H1078     1.0  0.48346  0.29252  0.08597  1.0000
  H   H1079     1.0  0.43698  0.31157  0.04751  1.0000
  H   H1080     1.0  0.45208  0.29109  0.03634  1.0000
  H   H1081     1.0  0.42462  0.29573  0.03703  1.0000
  H   H1082     1.0  0.42454  0.24762  0.10684  1.0000
  H   H1083     1.0  0.41265  0.26076  0.08905  1.0000
  H   H1084     1.0  0.41791  0.27479  0.10562  1.0000
  H   H1085     1.0  0.41593  0.32007  0.09499  1.0000
  H   H1086     1.0  0.40799  0.30041  0.08569  1.0000
  H   H1087     1.0  0.41564  0.32329  0.07268  1.0000
  N   N45       1.0  0.57133  0.16724  0.08649  1.0000
  C   C638      1.0  0.58276  0.18525  0.08654  1.0000
  H   H1088     1.0  0.34576  0.29189  0.01477  1.0000
  C   C639      1.0  0.57369  0.15317  0.10302  1.0000
  C   C640      1.0  0.54886  0.17553  0.08521  1.0000
  C   C641      1.0  0.57664  0.19735  0.10206  1.0000
  Fe  Fe92      1.0  0.63874  0.05859  0.18527  1.0000
  C   C642      1.0  0.57196  0.13020  0.10324  1.0000
  C   C643      1.0  0.53450  0.15995  0.08348  1.0000
  Fe  Fe93      1.0  0.63026  0.02391  0.16680  1.0000
  H   H1089     1.0  0.39654  0.07262  0.10906  1.0000
  H   H1090     1.0  0.62287  0.16081  0.13646  1.0000
  H   H1091     1.0  0.33350  0.22793  0.04503  1.0000
  H   H1092     1.0  0.58916  0.15317  0.10706  1.0000
  H   H1093     1.0  0.56222  0.15888  0.11358  1.0000
  H   H1094     1.0  0.54169  0.18292  0.09669  1.0000
  H   H1095     1.0  0.54714  0.18833  0.07461  1.0000
  H   H1096     1.0  0.57933  0.18758  0.11426  1.0000
  H   H1097     1.0  0.58664  0.20965  0.10067  1.0000
  H   H1098     1.0  0.56041  0.20513  0.10276  1.0000
  H   H1099     1.0  0.46060  0.99752  0.09344  1.0000
  C   C644      1.0  0.60916  0.27503  0.00623  1.0000
  C   C645      1.0  0.63083  0.12361  0.10230  1.0000
  H   H1100     1.0  0.58566  0.12232  0.09567  1.0000
  H   H1101     1.0  0.55757  0.12770  0.09878  1.0000
  H   H1102     1.0  0.57198  0.12241  0.11655  1.0000
  H   H1103     1.0  0.52738  0.05825  0.22762  1.0000
  H   H1104     1.0  0.61755  0.12421  0.14498  1.0000
  H   H1105     1.0  0.32986  0.30354  0.99865  1.0000
  C   C646      1.0  0.44367  0.99966  0.09273  1.0000
  C   C647      1.0  0.57894  0.16872  0.05364  1.0000
  H   H1106     1.0  0.39934  0.99666  0.21102  1.0000
  H   H1107     1.0  0.42750  0.07237  0.09024  1.0000
  H   H1108     1.0  0.52126  0.16819  0.07687  1.0000
  H   H1109     1.0  0.41796  0.24322  0.98757  1.0000
  H   H1110     1.0  0.59833  0.15184  0.07216  1.0000
  H   H1111     1.0  0.59970  0.22341  0.99830  1.0000
  S   S189      1.0  0.63830  0.23842  0.03539  1.0000
  H   H1112     1.0  0.48193  0.05861  0.07048  1.0000
  H   H1113     1.0  0.47592  0.09163  0.22679  1.0000
  Fe  Fe94      1.0  0.64874  0.24446  0.05947  1.0000
  C   C648      1.0  0.45834  0.04033  0.08325  1.0000
  C   C649      1.0  0.63360  0.14441  0.09739  1.0000
  H   H1114     1.0  0.42142  0.05886  0.04784  1.0000
  H   H1115     1.0  0.46134  0.05921  0.05817  1.0000
  H   H1116     1.0  0.53770  0.08924  0.21153  1.0000
  H   H1117     1.0  0.43230  0.18650  0.00381  1.0000
  H   H1118     1.0  0.52827  0.15263  0.09621  1.0000
  C   C650      1.0  0.41865  0.06050  0.06166  1.0000
  H   H1119     1.0  0.58608  0.18305  0.05148  1.0000
  H   H1120     1.0  0.56246  0.17243  0.05140  1.0000
  H   H1121     1.0  0.46612  0.02695  0.07673  1.0000
  C   C651      1.0  0.62216  0.12969  0.13175  1.0000
  H   H1122     1.0  0.41093  0.03198  0.07549  1.0000
  C   C652      1.0  0.62537  0.11605  0.11951  1.0000
  C   C653      1.0  0.33795  0.24072  0.05060  1.0000
  C   C654      1.0  0.62640  0.18264  0.99347  1.0000
  C   C655      1.0  0.46721  0.02212  0.22438  1.0000
  H   H1123     1.0  0.60159  0.05570  0.23000  1.0000
  H   H1124     1.0  0.43750  0.99512  0.20900  1.0000
  H   H1125     1.0  0.61071  0.17937  0.99734  1.0000
  H   H1126     1.0  0.33272  0.45711  0.99933  1.0000
  H   H1127     1.0  0.45806  0.07404  0.07607  1.0000
  C   C656      1.0  0.63347  0.08081  0.22707  1.0000
  S   S190      1.0  0.33165  0.32230  0.07527  1.0000
  H   H1128     1.0  0.39317  0.05560  0.09455  1.0000
  C   C657      1.0  0.40258  0.05751  0.10445  1.0000
  C   C658      1.0  0.65255  0.06886  0.22283  1.0000
  H   H1129     1.0  0.33073  0.47120  0.01738  1.0000
  H   H1130     1.0  0.58070  0.19678  0.07513  1.0000
  H   H1131     1.0  0.60221  0.26090  0.01153  1.0000
  C   C659      1.0  0.63098  0.15789  0.10970  1.0000
  H   H1132     1.0  0.59754  0.28826  0.00985  1.0000
  H   H1133     1.0  0.32897  0.24192  0.06331  1.0000
  H   H1134     1.0  0.43564  0.02968  0.06301  1.0000
  H   H1135     1.0  0.40024  0.04556  0.11557  1.0000
  H   H1136     1.0  0.42695  0.07315  0.06328  1.0000
  H   H1137     1.0  0.32437  0.31211  0.01909  1.0000
  C   C660      1.0  0.40980  0.98406  0.20514  1.0000
  H   H1138     1.0  0.43405  0.05684  0.10882  1.0000
  H   H1139     1.0  0.60049  0.99201  0.16081  1.0000
  S   S191      1.0  0.64429  0.99066  0.16426  1.0000
  H   H1140     1.0  0.63126  0.18644  0.01887  1.0000
  C   C661      1.0  0.46485  0.05927  0.07131  1.0000
  H   H1141     1.0  0.48257  0.01341  0.22256  1.0000
  Fe  Fe95      1.0  0.62154  0.06963  0.15109  1.0000
  H   H1142     1.0  0.51024  0.09311  0.21355  1.0000
  N   N46       1.0  0.43539  0.03955  0.08770  1.0000
  H   H1143     1.0  0.52389  0.10539  0.22648  1.0000
  C   C662      1.0  0.42528  0.03937  0.07196  1.0000
  H   H1144     1.0  0.41613  0.01793  0.10276  1.0000
  H   H1145     1.0  0.62303  0.27548  0.01242  1.0000
  C   C663      1.0  0.42754  0.04446  0.22879  1.0000
  C   C664      1.0  0.42577  0.05713  0.09762  1.0000
  S   S192      1.0  0.63510  0.18399  0.10436  1.0000
  H   H1146     1.0  0.43845  0.02022  0.11189  1.0000
  H   H1147     1.0  0.41188  0.98920  0.19118  1.0000
  H   H1148     1.0  0.62895  0.23650  0.00143  1.0000
  S   S193      1.0  0.61974  0.23432  0.07525  1.0000
  Fe  Fe96      1.0  0.63829  0.20241  0.07775  1.0000
  C   C665      1.0  0.52351  0.09112  0.22089  1.0000
  H   H1149     1.0  0.63168  0.02429  0.22873  1.0000
  H   H1150     1.0  0.46575  0.03924  0.09509  1.0000
  C   C666      1.0  0.33568  0.26100  0.03830  1.0000
  H   H1151     1.0  0.61792  0.99131  0.22942  1.0000
  H   H1152     1.0  0.48592  0.07118  0.21381  1.0000
  C   C667      1.0  0.52398  0.07206  0.23456  1.0000
  C   C668      1.0  0.32964  0.29821  0.01252  1.0000
  H   H1153     1.0  0.63812  0.14990  0.08414  1.0000
  H   H1154     1.0  0.65093  0.10043  0.14911  1.0000
  S   S194      1.0  0.65011  0.04922  0.15926  1.0000
  S   S195      1.0  0.42878  0.98319  0.13903  1.0000
  C   C669      1.0  0.34004  0.46784  0.00515  1.0000
  H   H1155     1.0  0.43764  0.98638  0.10102  1.0000
  H   H1156     1.0  0.62379  0.08728  0.21723  1.0000
  C   C670      1.0  0.60482  0.23337  0.98647  1.0000
  H   H1157     1.0  0.46172  0.07127  0.22748  1.0000
  C   C671      1.0  0.43872  0.18817  0.99052  1.0000
  H   H1158     1.0  0.49539  0.04699  0.23606  1.0000
  H   H1159     1.0  0.57427  0.05599  0.23399  1.0000
  H   H1160     1.0  0.42172  0.00285  0.23585  1.0000
  C   C672      1.0  0.62622  0.23928  0.98783  1.0000
  C   C673      1.0  0.61408  0.27704  0.98664  1.0000
  H   H1161     1.0  0.57735  0.01033  0.28813  1.0000
  S   S196      1.0  0.62486  0.05564  0.32468  1.0000
  C   C674      1.0  0.61477  0.10962  0.33569  1.0000
  H   H1162     1.0  0.64442  0.00358  0.26367  1.0000
  H   H1163     1.0  0.47650  0.05717  0.25146  1.0000
  H   H1164     1.0  0.32830  0.12889  0.37536  1.0000
  Fe  Fe97      1.0  0.62057  0.02379  0.32096  1.0000
  S   S197      1.0  0.59154  0.00842  0.32765  1.0000
  H   H1165     1.0  0.35405  0.11065  0.35893  1.0000
  S   S198      1.0  0.63510  0.02644  0.29384  1.0000
  Fe  Fe98      1.0  0.47676  0.03813  0.31162  1.0000
  S   S199      1.0  0.48424  0.00818  0.30103  1.0000
  S   S200      1.0  0.50382  0.05581  0.31014  1.0000
  Fe  Fe99      1.0  0.42985  0.03729  0.31516  1.0000
  S   S201      1.0  0.43437  0.00784  0.30352  1.0000
  S   S202      1.0  0.39575  0.04928  0.32246  1.0000
  Fe  Fe100     1.0  0.45903  0.99790  0.32063  1.0000
  H   H1166     1.0  0.57125  0.00212  0.26947  1.0000
  Fe  Fe101     1.0  0.45911  0.02076  0.28478  1.0000
  S   S203      1.0  0.47042  0.01309  0.25819  1.0000
  S   S204      1.0  0.45357  0.02663  0.33334  1.0000
  S   S205      1.0  0.45251  0.05152  0.29436  1.0000
  C   C675      1.0  0.38293  0.04440  0.34346  1.0000
  C   C676      1.0  0.36137  0.04417  0.34596  1.0000
  C   C677      1.0  0.39370  0.04097  0.35767  1.0000
  H   H1167     1.0  0.35294  0.04674  0.33502  1.0000
  H   H1168     1.0  0.41025  0.04123  0.35594  1.0000
  H   H1169     1.0  0.52220  0.98273  0.28441  1.0000
  H   H1170     1.0  0.50980  0.09723  0.25866  1.0000
  H   H1171     1.0  0.43049  0.03905  0.25576  1.0000
  H   H1172     1.0  0.63690  0.16181  0.33619  1.0000
  C   C678      1.0  0.56741  0.02170  0.32227  1.0000
  C   C679      1.0  0.54974  0.01169  0.32635  1.0000
  C   C680      1.0  0.53025  0.02184  0.32240  1.0000
  C   C681      1.0  0.52825  0.04220  0.31447  1.0000
  C   C682      1.0  0.54597  0.05212  0.31018  1.0000
  C   C683      1.0  0.56550  0.04189  0.31398  1.0000
  C   C684      1.0  0.65048  0.13468  0.32396  1.0000
  H   H1173     1.0  0.51667  0.01415  0.32595  1.0000
  H   H1174     1.0  0.54454  0.06788  0.30409  1.0000
  H   H1175     1.0  0.57902  0.04973  0.31074  1.0000
  C   C685      1.0  0.38295  0.03772  0.37422  1.0000
  H   H1176     1.0  0.37578  0.98419  0.31417  1.0000
  H   H1177     1.0  0.52179  0.06333  0.26990  1.0000
  H   H1178     1.0  0.35127  0.10276  0.38949  1.0000
  C   C686      1.0  0.41907  0.98360  0.25993  1.0000
  H   H1179     1.0  0.42339  0.99093  0.35504  1.0000
  N   N47       1.0  0.50511  0.07066  0.24773  1.0000
  C   C687      1.0  0.60214  0.01249  0.26707  1.0000
  H   H1180     1.0  0.61039  0.12657  0.33407  1.0000
  H   H1181     1.0  0.57037  0.02914  0.27087  1.0000
  H   H1182     1.0  0.35641  0.07586  0.39675  1.0000
  H   H1183     1.0  0.47302  0.10841  0.26977  1.0000
  C   C688      1.0  0.52323  0.03483  0.25962  1.0000
  H   H1184     1.0  0.60374  0.10319  0.34625  1.0000
  H   H1185     1.0  0.40785  0.99559  0.26600  1.0000
  C   C689      1.0  0.58910  0.04868  0.23865  1.0000
  H   H1186     1.0  0.33779  0.09459  0.35228  1.0000
  C   C690      1.0  0.64743  0.00915  0.24991  1.0000
  H   H1187     1.0  0.33781  0.12058  0.34304  1.0000
  H   H1188     1.0  0.61251  0.10325  0.32413  1.0000
  C   C691      1.0  0.63699  0.10321  0.34039  1.0000
  N   N48       1.0  0.65395  0.11153  0.32771  1.0000
  C   C692      1.0  0.35072  0.04025  0.36249  1.0000
  C   C693      1.0  0.62800  0.02175  0.24288  1.0000
  H   H1189     1.0  0.62432  0.98128  0.25021  1.0000
  H   H1190     1.0  0.37870  0.00207  0.36237  1.0000
  S   S206      1.0  0.34887  0.03260  0.39780  1.0000
  H   H1191     1.0  0.58898  0.05247  0.25172  1.0000
  H   H1192     1.0  0.49797  0.05320  0.27262  1.0000
  H   H1193     1.0  0.46502  0.08641  0.26359  1.0000
  H   H1194     1.0  0.36508  0.00559  0.32612  1.0000
  H   H1195     1.0  0.35296  0.99001  0.38483  1.0000
  C   C694      1.0  0.49722  0.09143  0.25361  1.0000
  H   H1196     1.0  0.61283  0.09490  0.24707  1.0000
  H   H1197     1.0  0.52702  0.02603  0.27195  1.0000
  H   H1198     1.0  0.63997  0.08605  0.34240  1.0000
  H   H1199     1.0  0.60700  0.02593  0.27143  1.0000
  C   C695      1.0  0.47829  0.09216  0.26749  1.0000
  H   H1200     1.0  0.39997  0.00270  0.33693  1.0000
  H   H1201     1.0  0.63671  0.10765  0.35325  1.0000
  H   H1202     1.0  0.45678  0.98399  0.23773  1.0000
  C   C696      1.0  0.51163  0.05624  0.26311  1.0000
  H   H1203     1.0  0.55108  0.99616  0.33292  1.0000
  C   C697      1.0  0.65386  0.10291  0.31122  1.0000
  C   C698      1.0  0.63988  0.07704  0.25678  1.0000
  C   C699      1.0  0.39495  0.98881  0.33339  1.0000
  H   H1204     1.0  0.57636  0.02028  0.24182  1.0000
  H   H1205     1.0  0.33427  0.03947  0.36424  1.0000
  C   C700      1.0  0.36145  0.03726  0.37672  1.0000
  C   C701      1.0  0.32638  0.08465  0.38741  1.0000
  H   H1206     1.0  0.33848  0.09195  0.40972  1.0000
  H   H1207     1.0  0.39140  0.03536  0.38514  1.0000
  H   H1208     1.0  0.63963  0.10945  0.30521  1.0000
  Fe  Fe102     1.0  0.64139  0.05725  0.29787  1.0000
  C   C702      1.0  0.62732  0.08516  0.24395  1.0000
  H   H1209     1.0  0.38670  0.00764  0.31009  1.0000
  S   S207      1.0  0.65035  0.00926  0.33109  1.0000
  H   H1210     1.0  0.48225  0.08362  0.27987  1.0000
  H   H1211     1.0  0.53808  0.03578  0.25120  1.0000
  S   S208      1.0  0.63246  0.08334  0.27773  1.0000
  H   H1212     1.0  0.65359  0.08602  0.31369  1.0000
  H   H1213     1.0  0.62652  0.03724  0.24712  1.0000
  C   C703      1.0  0.59182  0.02527  0.23791  1.0000
  N   N49       1.0  0.60805  0.01258  0.24806  1.0000
  H   H1214     1.0  0.49287  0.10328  0.24298  1.0000
  H   H1215     1.0  0.51351  0.02581  0.25427  1.0000
  C   C704      1.0  0.57890  0.01352  0.27400  1.0000
  H   H1216     1.0  0.61052  0.99869  0.27418  1.0000
  C   C705      1.0  0.33853  0.11019  0.35525  1.0000
  C   C706      1.0  0.61204  0.99098  0.24327  1.0000
  H   H1217     1.0  0.53782  0.99747  0.29285  1.0000
  C   C707      1.0  0.43792  0.03664  0.24307  1.0000
  H   H1218     1.0  0.40923  0.98087  0.32653  1.0000
  H   H1219     1.0  0.63732  0.14012  0.31637  1.0000
  C   C708      1.0  0.37950  0.99681  0.32036  1.0000
  C   C709      1.0  0.64718  0.14712  0.33925  1.0000
  H   H1220     1.0  0.65363  0.99591  0.24273  1.0000
  H   H1221     1.0  0.63920  0.13956  0.35107  1.0000
  C   C710      1.0  0.48869  0.06176  0.24103  1.0000
  C   C711      1.0  0.41793  0.98707  0.24052  1.0000
  H   H1222     1.0  0.40707  0.98797  0.37533  1.0000
  C   C712      1.0  0.34405  0.08938  0.39630  1.0000
  H   H1223     1.0  0.33381  0.07614  0.37674  1.0000
  H   H1224     1.0  0.43453  0.98540  0.26297  1.0000
  H   H1225     1.0  0.35792  0.99542  0.35376  1.0000
  H   H1226     1.0  0.40132  0.98768  0.23900  1.0000
  C   C713      1.0  0.37175  0.98869  0.36021  1.0000
  C   C714      1.0  0.45761  0.02509  0.24084  1.0000
  H   H1227     1.0  0.53797  0.07212  0.24087  1.0000
  C   C715      1.0  0.53618  0.98161  0.29087  1.0000
  H   H1228     1.0  0.57975  0.98678  0.24127  1.0000
  Fe  Fe103     1.0  0.42748  0.01621  0.68388  1.0000
  S   S209      1.0  0.44587  0.00832  0.65940  1.0000
  H   H1229     1.0  0.43017  0.03110  0.73364  1.0000
  Fe  Fe104     1.0  0.43482  0.06016  0.67668  1.0000
  S   S210      1.0  0.45335  0.05623  0.65102  1.0000
  S   S211      1.0  0.42972  0.09053  0.68704  1.0000
  Fe  Fe105     1.0  0.42845  0.03769  0.64764  1.0000
  S   S212      1.0  0.41639  0.03539  0.62262  1.0000
  Fe  Fe106     1.0  0.46886  0.02727  0.66496  1.0000
  S   S213      1.0  0.50271  0.01360  0.66531  1.0000
  S   S214      1.0  0.40865  0.04442  0.67211  1.0000
  S   S215      1.0  0.45173  0.03240  0.69067  1.0000
  C   C716      1.0  0.59964  0.01172  0.73470  1.0000
  H   H1230     1.0  0.43099  0.98713  0.63384  1.0000
  Fe  Fe107     1.0  0.60745  0.05200  0.66266  1.0000
  S   S216      1.0  0.60104  0.04058  0.69038  1.0000
  S   S217      1.0  0.57963  0.06359  0.64851  1.0000
  Fe  Fe108     1.0  0.62600  0.05846  0.69363  1.0000
  S   S218      1.0  0.61838  0.07878  0.71462  1.0000
  Fe  Fe109     1.0  0.62695  0.01539  0.68488  1.0000
  C   C717      1.0  0.35323  0.05041  0.62803  1.0000
  S   S219      1.0  0.63104  0.07190  0.66605  1.0000
  S   S220      1.0  0.63182  0.02535  0.65667  1.0000
  H   H1231     1.0  0.32737  0.99715  0.67326  1.0000
  C   C718      1.0  0.64942  0.06054  0.73409  1.0000
  H   H1232     1.0  0.34114  0.05579  0.63772  1.0000
  H   H1233     1.0  0.55417  0.06574  0.69884  1.0000
  H   H1234     1.0  0.64265  0.11281  0.70180  1.0000
  H   H1235     1.0  0.53597  0.05298  0.69140  1.0000
  H   H1236     1.0  0.32511  0.01993  0.63762  1.0000
  H   H1237     1.0  0.36016  0.03815  0.58756  1.0000
  H   H1238     1.0  0.54470  0.07607  0.67923  1.0000
  C   C719      1.0  0.49493  0.04812  0.71237  1.0000
  C   C720      1.0  0.41980  0.98468  0.61026  1.0000
  S   S221      1.0  0.41401  0.99099  0.70153  1.0000
  C   C721      1.0  0.38990  0.04001  0.61902  1.0000
  H   H1239     1.0  0.52246  0.07544  0.71576  1.0000
  C   C722      1.0  0.37399  0.04661  0.63147  1.0000
  H   H1240     1.0  0.48836  0.11447  0.70321  1.0000
  H   H1241     1.0  0.37771  0.04908  0.64369  1.0000
  C   C723      1.0  0.42941  0.09134  0.70902  1.0000
  C   C724      1.0  0.42183  0.10997  0.71543  1.0000
  C   C725      1.0  0.48646  0.09411  0.72649  1.0000
  C   C726      1.0  0.48614  0.09802  0.70701  1.0000
  C   C727      1.0  0.43751  0.07442  0.71997  1.0000
  H   H1242     1.0  0.46719  0.98630  0.63231  1.0000
  H   H1243     1.0  0.48657  0.10840  0.65682  1.0000
  H   H1244     1.0  0.44371  0.06013  0.71507  1.0000
  C   C728      1.0  0.52359  0.02816  0.66083  1.0000
  C   C729      1.0  0.54254  0.01962  0.66674  1.0000
  C   C730      1.0  0.55975  0.03035  0.66306  1.0000
  C   C731      1.0  0.55826  0.04967  0.65323  1.0000
  C   C732      1.0  0.53930  0.05825  0.64729  1.0000
  C   C733      1.0  0.52194  0.04763  0.65121  1.0000
  H   H1245     1.0  0.54395  0.00468  0.67427  1.0000
  H   H1246     1.0  0.57424  0.02360  0.66771  1.0000
  H   H1247     1.0  0.53805  0.07317  0.63964  1.0000
  H   H1248     1.0  0.50747  0.05431  0.64648  1.0000
  H   H1249     1.0  0.42871  0.99448  0.60044  1.0000
  H   H1250     1.0  0.47296  0.10387  0.73270  1.0000
  N   N50       1.0  0.50157  0.08425  0.69626  1.0000
  H   H1251     1.0  0.48080  0.00616  0.60615  1.0000
  H   H1252     1.0  0.45344  0.00797  0.60784  1.0000
  H   H1253     1.0  0.48508  0.07803  0.73191  1.0000
  H   H1254     1.0  0.34593  0.00541  0.64700  1.0000
  H   H1255     1.0  0.64809  0.00262  0.62716  1.0000
  H   H1256     1.0  0.38739  0.98123  0.64995  1.0000
  H   H1257     1.0  0.47608  0.08686  0.66888  1.0000
  H   H1258     1.0  0.47007  0.09724  0.70476  1.0000
  H   H1259     1.0  0.60238  0.99790  0.72789  1.0000
  H   H1260     1.0  0.52771  0.09728  0.70148  1.0000
  H   H1261     1.0  0.47154  0.11158  0.67694  1.0000
  H   H1262     1.0  0.49773  0.03235  0.70856  1.0000
  H   H1263     1.0  0.47006  0.99197  0.59317  1.0000
  C   C734      1.0  0.49405  0.06392  0.69616  1.0000
  C   C735      1.0  0.36387  0.04049  0.59982  1.0000
  C   C736      1.0  0.34802  0.04741  0.61220  1.0000
  H   H1264     1.0  0.40653  0.04663  0.71258  1.0000
  H   H1265     1.0  0.51412  0.08521  0.66947  1.0000
  H   H1266     1.0  0.61453  0.01789  0.73286  1.0000
  H   H1267     1.0  0.58812  0.02280  0.72795  1.0000
  H   H1268     1.0  0.39727  0.00222  0.66972  1.0000
  H   H1269     1.0  0.50224  0.05597  0.68521  1.0000
  C   C737      1.0  0.39373  0.05005  0.72292  1.0000
  C   C738      1.0  0.38469  0.03692  0.60319  1.0000
  H   H1270     1.0  0.51037  0.10941  0.67730  1.0000
  C   C739      1.0  0.48310  0.10065  0.67000  1.0000
  H   H1271     1.0  0.47759  0.06653  0.69369  1.0000
  H   H1272     1.0  0.41574  0.12318  0.70704  1.0000
  C   C740      1.0  0.50345  0.09494  0.67816  1.0000
  H   H1273     1.0  0.60609  0.99619  0.66552  1.0000
  C   C741      1.0  0.63076  0.07386  0.73317  1.0000
  H   H1274     1.0  0.33498  0.00487  0.61193  1.0000
  H   H1275     1.0  0.39687  0.03189  0.59343  1.0000
  C   C742      1.0  0.52266  0.08187  0.70215  1.0000
  C   C743      1.0  0.54013  0.06832  0.69220  1.0000
  H   H1276     1.0  0.42459  0.00754  0.72914  1.0000
  H   H1277     1.0  0.38962  0.01863  0.72510  1.0000
  H   H1278     1.0  0.39793  0.06138  0.73019  1.0000
  H   H1279     1.0  0.50769  0.04866  0.71973  1.0000
  C   C744      1.0  0.32951  0.00498  0.64542  1.0000
  C   C745      1.0  0.42197  0.11167  0.73265  1.0000
  S   S222      1.0  0.65147  0.03208  0.69071  1.0000
  H   H1280     1.0  0.64669  0.11337  0.67929  1.0000
  C   C746      1.0  0.46800  0.99717  0.60593  1.0000
  H   H1281     1.0  0.40567  0.99468  0.61509  1.0000
  H   H1282     1.0  0.37980  0.05802  0.71713  1.0000
  N   N51       1.0  0.32784  0.98696  0.63646  1.0000
  H   H1283     1.0  0.36824  0.99984  0.62462  1.0000
  H   H1284     1.0  0.63998  0.98893  0.61232  1.0000
  C   C747      1.0  0.34001  0.98952  0.61894  1.0000
  H   H1285     1.0  0.48000  0.04971  0.72088  1.0000
  C   C748      1.0  0.65377  0.99179  0.61764  1.0000
  C   C749      1.0  0.39800  0.98575  0.67312  1.0000
  H   H1286     1.0  0.37069  0.99010  0.60476  1.0000
  C   C750      1.0  0.36372  0.98774  0.61831  1.0000
  C   C751      1.0  0.38846  0.03009  0.73417  1.0000
  H   H1287     1.0  0.50048  0.09876  0.73015  1.0000
  C   C752      1.0  0.65490  0.11198  0.69066  1.0000
  H   H1288     1.0  0.55871  0.98211  0.63477  1.0000
  S   S223      1.0  0.62541  0.98246  0.69612  1.0000
  Fe  Fe110     1.0  0.65499  0.04383  0.66257  1.0000
  H   H1289     1.0  0.32854  0.04516  0.48639  1.0000
  Fe  Fe111     1.0  0.44134  0.07284  0.78482  1.0000
  S   S224      1.0  0.42007  0.06157  0.80776  1.0000
  S   S225      1.0  0.42980  0.09827  0.76512  1.0000
  Fe  Fe112     1.0  0.47888  0.04520  0.79676  1.0000
  S   S226      1.0  0.46080  0.03144  0.82044  1.0000
  S   S227      1.0  0.51284  0.03388  0.79181  1.0000
  Fe  Fe113     1.0  0.43711  0.03000  0.80333  1.0000
  S   S228      1.0  0.42204  0.00291  0.79913  1.0000
  Fe  Fe114     1.0  0.44585  0.06430  0.82274  1.0000
  S   S229      1.0  0.44593  0.07683  0.84791  1.0000
  S   S230      1.0  0.45657  0.04154  0.77937  1.0000
  S   S231      1.0  0.46572  0.07784  0.80005  1.0000
  Fe  Fe115     1.0  0.63704  0.06575  0.80573  1.0000
  C   C753      1.0  0.42993  0.09485  0.74367  1.0000
  C   C754      1.0  0.38982  0.23038  0.85854  1.0000
  Fe  Fe116     1.0  0.59226  0.08280  0.81530  1.0000
  S   S232      1.0  0.59130  0.06615  0.84166  1.0000
  S   S233      1.0  0.56302  0.10102  0.80690  1.0000
  Fe  Fe117     1.0  0.62200  0.07688  0.84161  1.0000
  H   H1290     1.0  0.63948  0.24844  0.95533  1.0000
  Fe  Fe118     1.0  0.60880  0.03890  0.82950  1.0000
  H   H1291     1.0  0.32936  0.26018  0.87424  1.0000
  S   S234      1.0  0.62174  0.09542  0.81562  1.0000
  S   S235      1.0  0.60742  0.05504  0.80307  1.0000
  Fe  Fe119     1.0  0.42614  0.22984  0.89172  1.0000
  S   S236      1.0  0.40758  0.20387  0.90018  1.0000
  S   S237      1.0  0.41181  0.26361  0.88681  1.0000
  Fe  Fe120     1.0  0.46772  0.20037  0.89093  1.0000
  S   S238      1.0  0.45169  0.17240  0.89970  1.0000
  S   S239      1.0  0.50264  0.19274  0.88419  1.0000
  Fe  Fe121     1.0  0.42947  0.18638  0.88106  1.0000
  S   S240      1.0  0.41894  0.17099  0.86069  1.0000
  Fe  Fe122     1.0  0.43164  0.19234  0.91792  1.0000
  S   S241      1.0  0.42045  0.18224  0.94544  1.0000
  S   S242      1.0  0.44651  0.21341  0.87117  1.0000
  S   S243      1.0  0.44919  0.21931  0.91057  1.0000
  S   S244      1.0  0.61705  0.22950  0.93153  1.0000
  H   H1292     1.0  0.38012  0.19549  0.84686  1.0000
  Fe  Fe123     1.0  0.60167  0.22448  0.90954  1.0000
  S   S245      1.0  0.56846  0.23945  0.90790  1.0000
  S   S246      1.0  0.60882  0.19017  0.91401  1.0000
  H   H1293     1.0  0.62325  0.08737  0.77345  1.0000
  H   H1294     1.0  0.40083  0.25877  0.84510  1.0000
  H   H1295     1.0  0.56489  0.20561  0.93898  1.0000
  H   H1296     1.0  0.56837  0.23971  0.95079  1.0000
  H   H1297     1.0  0.39655  0.21397  0.85890  1.0000
  C   C755      1.0  0.38558  0.27482  0.89181  1.0000
  C   C756      1.0  0.37067  0.26347  0.90132  1.0000
  C   C757      1.0  0.35001  0.27294  0.90491  1.0000
  C   C758      1.0  0.34395  0.29386  0.89912  1.0000
  C   C759      1.0  0.35892  0.30522  0.88970  1.0000
  C   C760      1.0  0.37959  0.29575  0.88611  1.0000
  H   H1298     1.0  0.37504  0.24741  0.90591  1.0000
  H   H1299     1.0  0.33858  0.26401  0.91223  1.0000
  H   H1300     1.0  0.35455  0.32131  0.88516  1.0000
  H   H1301     1.0  0.39099  0.30472  0.87880  1.0000
  C   C761      1.0  0.43547  0.18633  0.96080  1.0000
  C   C762      1.0  0.42723  0.18443  0.97808  1.0000
  H   H1302     1.0  0.36534  0.26505  0.84559  1.0000
  H   H1303     1.0  0.64334  0.08968  0.90502  1.0000
  C   C763      1.0  0.46685  0.19541  0.96847  1.0000
  C   C764      1.0  0.45533  0.19183  0.95602  1.0000
  S   S247      1.0  0.64977  0.17582  0.87459  1.0000
  H   H1304     1.0  0.49138  0.03143  0.84222  1.0000
  H   H1305     1.0  0.48219  0.19954  0.96470  1.0000
  H   H1306     1.0  0.46190  0.19308  0.94276  1.0000
  C   C765      1.0  0.52028  0.20521  0.89220  1.0000
  C   C766      1.0  0.54124  0.19654  0.89105  1.0000
  C   C767      1.0  0.55611  0.20677  0.89598  1.0000
  C   C768      1.0  0.55010  0.22575  0.90220  1.0000
  C   C769      1.0  0.52904  0.23415  0.90381  1.0000
  C   C770      1.0  0.51414  0.22390  0.89889  1.0000
  H   H1307     1.0  0.54598  0.18191  0.88621  1.0000
  H   H1308     1.0  0.57223  0.20009  0.89479  1.0000
  H   H1309     1.0  0.52426  0.24884  0.90860  1.0000
  H   H1310     1.0  0.49804  0.23075  0.89980  1.0000
  C   C771      1.0  0.62938  0.11475  0.86753  1.0000
  H   H1311     1.0  0.42990  0.28063  0.94226  1.0000
  C   C772      1.0  0.37265  0.20650  0.83707  1.0000
  C   C773      1.0  0.44700  0.25089  0.94585  1.0000
  H   H1312     1.0  0.48056  0.12537  0.86536  1.0000
  C   C774      1.0  0.43804  0.10303  0.85125  1.0000
  C   C775      1.0  0.42848  0.11752  0.83920  1.0000
  C   C776      1.0  0.42241  0.13815  0.84241  1.0000
  C   C777      1.0  0.42615  0.14464  0.85753  1.0000
  C   C778      1.0  0.43584  0.13019  0.86952  1.0000
  C   C779      1.0  0.44163  0.10950  0.86642  1.0000
  H   H1313     1.0  0.42556  0.11278  0.82748  1.0000
  H   H1314     1.0  0.41491  0.14915  0.83304  1.0000
  H   H1315     1.0  0.43866  0.13487  0.88127  1.0000
  H   H1316     1.0  0.44886  0.09842  0.87588  1.0000
  C   C780      1.0  0.52659  0.05287  0.79559  1.0000
  C   C781      1.0  0.54339  0.04707  0.80486  1.0000
  C   C782      1.0  0.55401  0.06201  0.80879  1.0000
  C   C783      1.0  0.54839  0.08280  0.80294  1.0000
  C   C784      1.0  0.53147  0.08871  0.79372  1.0000
  C   C785      1.0  0.52050  0.07371  0.79009  1.0000
  H   H1317     1.0  0.54783  0.03105  0.80950  1.0000
  H   H1318     1.0  0.56632  0.05737  0.81662  1.0000
  H   H1319     1.0  0.52706  0.10478  0.78917  1.0000
  H   H1320     1.0  0.50766  0.07822  0.78271  1.0000
  C   C786      1.0  0.42391  0.01681  0.73976  1.0000
  C   C787      1.0  0.50429  0.13883  0.87376  1.0000
  C   C788      1.0  0.50641  0.03040  0.87330  1.0000
  C   C789      1.0  0.37985  0.04815  0.76673  1.0000
  H   H1321     1.0  0.41642  0.22676  0.94508  1.0000
  H   H1322     1.0  0.60715  0.09403  0.74671  1.0000
  H   H1323     1.0  0.47690  0.02622  0.88880  1.0000
  C   C790      1.0  0.35951  0.25659  0.85801  1.0000
  H   H1324     1.0  0.46543  0.13730  0.83540  1.0000
  H   H1325     1.0  0.62262  0.15822  0.82680  1.0000
  N   N52       1.0  0.49236  0.14574  0.84378  1.0000
  C   C791      1.0  0.57932  0.01590  0.78199  1.0000
  H   H1326     1.0  0.53414  0.21037  0.98408  1.0000
  C   C792      1.0  0.51320  0.22796  0.96718  1.0000
  H   H1327     1.0  0.49411  0.99786  0.84543  1.0000
  H   H1328     1.0  0.48219  0.10893  0.81946  1.0000
  H   H1329     1.0  0.51821  0.16284  0.84318  1.0000
  C   C793      1.0  0.52630  0.20755  0.97340  1.0000
  H   H1330     1.0  0.53305  0.99963  0.84348  1.0000
  H   H1331     1.0  0.63393  0.99795  0.81373  1.0000
  S   S248      1.0  0.62373  0.08983  0.86628  1.0000
  H   H1332     1.0  0.33272  0.28049  0.85741  1.0000
  H   H1333     1.0  0.45838  0.17258  0.82803  1.0000
  C   C794      1.0  0.46856  0.17956  0.83474  1.0000
  H   H1334     1.0  0.65375  0.28012  0.97881  1.0000
  H   H1335     1.0  0.37870  0.19415  0.87773  1.0000
  C   C795      1.0  0.49554  0.13070  0.85959  1.0000
  H   H1336     1.0  0.50515  0.22657  0.95626  1.0000
  H   H1337     1.0  0.39744  0.24079  0.83101  1.0000
  C   C796      1.0  0.53881  0.03350  0.85402  1.0000
  H   H1338     1.0  0.50929  0.16408  0.82355  1.0000
  C   C797      1.0  0.43948  0.00526  0.75173  1.0000
  N   N53       1.0  0.51808  0.02573  0.85624  1.0000
  H   H1339     1.0  0.54626  0.02438  0.88052  1.0000
  H   H1340     1.0  0.48405  0.10338  0.84165  1.0000
  H   H1341     1.0  0.45857  0.19261  0.84039  1.0000
  H   H1342     1.0  0.40894  0.03046  0.77148  1.0000
  H   H1343     1.0  0.56388  0.02311  0.77837  1.0000
  H   H1344     1.0  0.33944  0.22608  0.87574  1.0000
  H   H1345     1.0  0.52831  0.13326  0.81638  1.0000
  H   H1346     1.0  0.56569  0.05652  0.76751  1.0000
  C   C798      1.0  0.39400  0.00308  0.75816  1.0000
  C   C799      1.0  0.39154  0.29830  0.94164  1.0000
  C   C800      1.0  0.63572  0.00794  0.75990  1.0000
  H   H1347     1.0  0.36135  0.23855  0.83204  1.0000
  H   H1348     1.0  0.50596  0.11646  0.85669  1.0000
  H   H1349     1.0  0.38624  0.26182  0.96987  1.0000
  C   C801      1.0  0.51222  0.15325  0.83522  1.0000
  H   H1350     1.0  0.64883  0.11755  0.84345  1.0000
  H   H1351     1.0  0.56265  0.99535  0.80087  1.0000
  H   H1352     1.0  0.37747  0.00680  0.76345  1.0000
  H   H1353     1.0  0.63797  0.02371  0.75409  1.0000
  N   N54       1.0  0.58653  0.18080  0.84467  1.0000
  C   C802      1.0  0.58526  0.16435  0.85978  1.0000
  C   C803      1.0  0.60488  0.19162  0.84514  1.0000
  C   C804      1.0  0.58945  0.17161  0.82815  1.0000
  C   C805      1.0  0.56660  0.19561  0.84562  1.0000
  C   C806      1.0  0.56847  0.15032  0.86063  1.0000
  C   C807      1.0  0.60360  0.20384  0.86039  1.0000
  H   H1354     1.0  0.38462  0.98765  0.73836  1.0000
  C   C808      1.0  0.56617  0.21509  0.83240  1.0000
  H   H1355     1.0  0.60035  0.15427  0.86030  1.0000
  H   H1356     1.0  0.58221  0.17124  0.87193  1.0000
  H   H1357     1.0  0.60785  0.20232  0.83323  1.0000
  H   H1358     1.0  0.61931  0.18039  0.84561  1.0000
  H   H1359     1.0  0.57501  0.16611  0.82609  1.0000
  H   H1360     1.0  0.59259  0.18349  0.81709  1.0000
  H   H1361     1.0  0.55336  0.18792  0.84390  1.0000
  H   H1362     1.0  0.56261  0.20078  0.85846  1.0000
  H   H1363     1.0  0.55264  0.15905  0.86215  1.0000
  H   H1364     1.0  0.57060  0.14174  0.84946  1.0000
  H   H1365     1.0  0.56964  0.13859  0.87204  1.0000
  H   H1366     1.0  0.34347  0.22431  0.84578  1.0000
  H   H1367     1.0  0.59004  0.21606  0.86122  1.0000
  H   H1368     1.0  0.60374  0.19357  0.87265  1.0000
  N   N55       1.0  0.40195  0.02190  0.74802  1.0000
  H   H1369     1.0  0.60588  0.22472  0.97542  1.0000
  H   H1370     1.0  0.52045  0.20130  0.94083  1.0000
  H   H1371     1.0  0.57740  0.22513  0.83421  1.0000
  H   H1372     1.0  0.55054  0.22432  0.83411  1.0000
  H   H1373     1.0  0.56898  0.21135  0.81912  1.0000
  N   N56       1.0  0.59586  0.01712  0.76677  1.0000
  C   C809      1.0  0.41178  0.23917  0.97647  1.0000
  C   C810      1.0  0.65110  0.26391  0.98315  1.0000
  H   H1374     1.0  0.40965  0.27211  0.96945  1.0000
  H   H1375     1.0  0.43900  0.98516  0.83074  1.0000
  H   H1376     1.0  0.43594  0.98958  0.75691  1.0000
  H   H1377     1.0  0.44744  0.23468  0.94386  1.0000
  C   C811      1.0  0.61618  0.00752  0.77302  1.0000
  C   C812      1.0  0.60734  0.15362  0.82615  1.0000
  H   H1378     1.0  0.39916  0.22998  0.98205  1.0000
  H   H1379     1.0  0.41591  0.12616  0.73746  1.0000
  H   H1380     1.0  0.62470  0.29549  0.95386  1.0000
  H   H1381     1.0  0.57940  0.06718  0.74816  1.0000
  H   H1382     1.0  0.60196  0.04726  0.77027  1.0000
  H   H1383     1.0  0.38447  0.21021  0.82609  1.0000
  C   C813      1.0  0.55364  0.21313  0.94876  1.0000
  H   H1384     1.0  0.60497  0.13991  0.83560  1.0000
  H   H1385     1.0  0.47619  0.02280  0.86733  1.0000
  H   H1386     1.0  0.57347  0.00771  0.75343  1.0000
  H   H1387     1.0  0.37755  0.30807  0.93715  1.0000
  C   C814      1.0  0.54224  0.17441  0.93632  1.0000
  H   H1388     1.0  0.39372  0.23499  0.87041  1.0000
  C   C815      1.0  0.48245  0.13619  0.83153  1.0000
  H   H1389     1.0  0.58238  0.21523  0.95871  1.0000
  H   H1390     1.0  0.62072  0.15045  0.89566  1.0000
  C   C816      1.0  0.42822  0.26518  0.93931  1.0000
  H   H1391     1.0  0.45522  0.00346  0.74444  1.0000
  H   H1392     1.0  0.51515  0.03111  0.82932  1.0000
  H   H1393     1.0  0.51213  0.01880  0.88374  1.0000
  H   H1394     1.0  0.61762  0.21162  0.85885  1.0000
  C   C817      1.0  0.40149  0.03758  0.76004  1.0000
  H   H1395     1.0  0.40504  0.30480  0.93406  1.0000
  C   C818      1.0  0.50684  0.03612  0.84147  1.0000
  H   H1396     1.0  0.49308  0.15099  0.87958  1.0000
  C   C819      1.0  0.40222  0.24224  0.84344  1.0000
  C   C820      1.0  0.50341  0.05985  0.83930  1.0000
  H   H1397     1.0  0.41086  0.04991  0.75423  1.0000
  N   N57       1.0  0.36663  0.23368  0.85849  1.0000
  H   H1398     1.0  0.38453  0.21601  0.94326  1.0000
  H   H1399     1.0  0.53069  0.99471  0.86614  1.0000
  C   C821      1.0  0.39515  0.98443  0.74835  1.0000
  H   H1400     1.0  0.32756  0.25648  0.85240  1.0000
  C   C822      1.0  0.52246  0.00284  0.85534  1.0000
  H   H1401     1.0  0.56881  0.17445  0.95894  1.0000
  H   H1402     1.0  0.51795  0.06626  0.83419  1.0000
  H   H1403     1.0  0.49661  0.06605  0.85133  1.0000
  H   H1404     1.0  0.59239  0.24660  0.98526  1.0000
  H   H1405     1.0  0.42448  0.22917  0.96988  1.0000
  C   C823      1.0  0.62929  0.26163  0.96074  1.0000
  H   H1406     1.0  0.50644  0.10918  0.82668  1.0000
  H   H1407     1.0  0.48444  0.14478  0.81846  1.0000
  C   C824      1.0  0.63481  0.18335  0.97626  1.0000
  H   H1408     1.0  0.48525  0.17342  0.85646  1.0000
  H   H1409     1.0  0.63570  0.99797  0.74994  1.0000
  H   H1410     1.0  0.54502  0.14294  0.82825  1.0000
  H   H1411     1.0  0.47511  0.04818  0.87337  1.0000
  H   H1412     1.0  0.60828  0.04194  0.74922  1.0000
  C   C825      1.0  0.53007  0.13692  0.82918  1.0000
  C   C826      1.0  0.47764  0.16424  0.84922  1.0000
  C   C827      1.0  0.40322  0.25919  0.96558  1.0000
  H   H1413     1.0  0.59536  0.98867  0.75662  1.0000
  H   H1414     1.0  0.46425  0.15929  0.85819  1.0000
  H   H1415     1.0  0.36613  0.26295  0.86777  1.0000
  H   H1416     1.0  0.36982  0.03692  0.77367  1.0000
  C   C828      1.0  0.36187  0.19957  0.87830  1.0000
  H   H1417     1.0  0.64504  0.11075  0.93428  1.0000
  H   H1418     1.0  0.46142  0.25597  0.93859  1.0000
  N   N58       1.0  0.63014  0.26046  0.97959  1.0000
  N   N59       1.0  0.40703  0.25960  0.94643  1.0000
  C   C829      1.0  0.64254  0.12474  0.85478  1.0000
  H   H1419     1.0  0.61905  0.29248  0.98260  1.0000
  H   H1420     1.0  0.48069  0.18619  0.82545  1.0000
  C   C830      1.0  0.38339  0.23212  0.94603  1.0000
  H   H1421     1.0  0.65141  0.28338  0.94986  1.0000
  H   H1422     1.0  0.37203  0.05789  0.75637  1.0000
  C   C831      1.0  0.50364  0.99156  0.85583  1.0000
  H   H1423     1.0  0.57254  0.98426  0.78175  1.0000
  C   C832      1.0  0.62156  0.12418  0.88227  1.0000
  S   S249      1.0  0.63012  0.22928  0.89075  1.0000
  C   C833      1.0  0.40473  0.23952  0.94064  1.0000
  H   H1424     1.0  0.37815  0.23216  0.95983  1.0000
  H   H1425     1.0  0.50952  0.04555  0.87603  1.0000
  C   C834      1.0  0.62694  0.14333  0.88432  1.0000
  Fe  Fe124     1.0  0.62630  0.19546  0.93469  1.0000
  C   C835      1.0  0.48953  0.11315  0.82988  1.0000
  H   H1426     1.0  0.52276  0.24064  0.96370  1.0000
  H   H1427     1.0  0.40228  0.99771  0.76953  1.0000
  H   H1428     1.0  0.55922  0.15201  0.98491  1.0000
  H   H1429     1.0  0.37141  0.24136  0.93858  1.0000
  C   C836      1.0  0.63063  0.07987  0.76253  1.0000
  H   H1430     1.0  0.39311  0.27594  0.92446  1.0000
  H   H1431     1.0  0.53174  0.17028  0.92807  1.0000
  C   C837      1.0  0.64078  0.15289  0.87186  1.0000
  C   C838      1.0  0.59061  0.00553  0.75343  1.0000
  H   H1432     1.0  0.56716  0.03214  0.86530  1.0000
  H   H1433     1.0  0.53680  0.05034  0.85474  1.0000
  H   H1434     1.0  0.35494  0.19195  0.86950  1.0000
  H   H1435     1.0  0.51927  0.14456  0.86919  1.0000
  S   S250      1.0  0.59544  0.00865  0.83604  1.0000
  H   H1436     1.0  0.53183  0.12255  0.83811  1.0000
  S   S251      1.0  0.61965  0.17874  0.96113  1.0000
  C   C839      1.0  0.59665  0.03964  0.76053  1.0000
  C   C840      1.0  0.57610  0.99406  0.79072  1.0000
  H   H1437     1.0  0.64509  0.15398  0.91555  1.0000
  H   H1438     1.0  0.50711  0.12604  0.88418  1.0000
  C   C841      1.0  0.35662  0.22317  0.87498  1.0000
  H   H1439     1.0  0.36055  0.22957  0.88604  1.0000
  C   C842      1.0  0.65154  0.12060  0.92287  1.0000
  H   H1440     1.0  0.54937  0.15981  0.94311  1.0000
  H   H1441     1.0  0.49404  0.99121  0.86845  1.0000
  H   H1442     1.0  0.54738  0.03131  0.84115  1.0000
  H   H1443     1.0  0.39105  0.29982  0.95532  1.0000
  H   H1444     1.0  0.55441  0.18185  0.92773  1.0000
  H   H1445     1.0  0.61131  0.11657  0.89218  1.0000
  H   H1446     1.0  0.51752  0.17996  0.95663  1.0000
  H   H1447     1.0  0.49241  0.06555  0.82980  1.0000
  H   H1448     1.0  0.43041  0.26612  0.92510  1.0000
  H   H1449     1.0  0.60810  0.14857  0.81338  1.0000
  H   H1450     1.0  0.54363  0.22485  0.94099  1.0000
  C   C843      1.0  0.64838  0.14360  0.85704  1.0000
  C   C844      1.0  0.36012  0.22646  0.84327  1.0000
  C   C845      1.0  0.55361  0.02362  0.86720  1.0000
  H   H1451     1.0  0.53784  0.15545  0.97289  1.0000
  H   H1452     1.0  0.58258  0.02467  0.79195  1.0000
  C   C846      1.0  0.39124  0.27592  0.93853  1.0000
  C   C847      1.0  0.52941  0.18877  0.94877  1.0000
  C   C848      1.0  0.48247  0.03186  0.87539  1.0000
  H   H1453     1.0  0.38170  0.05857  0.77594  1.0000
  H   H1454     1.0  0.35489  0.19421  0.89140  1.0000
  H   H1455     1.0  0.55966  0.22699  0.97102  1.0000
  C   C849      1.0  0.63494  0.28164  0.94986  1.0000
  H   H1456     1.0  0.44014  0.01384  0.76243  1.0000
  H   H1457     1.0  0.56003  0.00748  0.86530  1.0000
  C   C850      1.0  0.62155  0.08366  0.74735  1.0000
  H   H1458     1.0  0.40772  0.24062  0.92645  1.0000
  H   H1459     1.0  0.37519  0.27271  0.94324  1.0000
  H   H1460     1.0  0.51510  0.19693  0.97961  1.0000
  H   H1461     1.0  0.41894  0.23597  0.84310  1.0000
  Fe  Fe125     1.0  0.63810  0.19471  0.89657  1.0000
  C   C851      1.0  0.57609  0.05242  0.75588  1.0000
  H   H1462     1.0  0.61889  0.01512  0.78391  1.0000
  H   H1463     1.0  0.41192  0.18008  0.98186  1.0000
  C   C852      1.0  0.56675  0.22425  0.95798  1.0000
  Fe  Fe126     1.0  0.64654  0.23111  0.91337  1.0000
  H   H1464     1.0  0.61345  0.26004  0.95831  1.0000
  S   S252      1.0  0.63979  0.04777  0.83184  1.0000
  H   H1465     1.0  0.44448  0.06326  0.74565  1.0000
  H   H1466     1.0  0.37169  0.03215  0.73924  1.0000
  N   N60       1.0  0.54149  0.19765  0.95988  1.0000
  H   H1467     1.0  0.36204  0.19805  0.83208  1.0000
  C   C853      1.0  0.33588  0.26348  0.86065  1.0000
  H   H1468     1.0  0.56789  0.04443  0.74827  1.0000
  C   C854      1.0  0.55649  0.18122  0.96846  1.0000
  H   H1469     1.0  0.63453  0.14506  0.93694  1.0000
  H   H1470     1.0  0.63291  0.28099  0.93639  1.0000
  H   H1471     1.0  0.44775  0.25196  0.95947  1.0000
  H   H1472     1.0  0.58951  0.98626  0.79717  1.0000
  H   H1473     1.0  0.63771  0.22741  0.98190  1.0000
  H   H1474     1.0  0.50107  0.23240  0.97774  1.0000
  H   H1475     1.0  0.59920  0.27817  0.98134  1.0000
  H   H1476     1.0  0.64075  0.12044  0.91349  1.0000
  C   C855      1.0  0.54667  0.16355  0.97991  1.0000
  H   H1477     1.0  0.56508  0.18797  0.97678  1.0000
  C   C856      1.0  0.60706  0.98569  0.82753  1.0000
  C   C857      1.0  0.64939  0.06676  0.76347  1.0000
  C   C858      1.0  0.45859  0.19364  0.98576  1.0000
  C   C859      1.0  0.43793  0.07620  0.73729  1.0000
  C   C860      1.0  0.64817  0.14295  0.92705  1.0000
  H   H1478     1.0  0.64949  0.00168  0.76656  1.0000
  C   C861      1.0  0.62593  0.98458  0.81682  1.0000
  H   H1479     1.0  0.61599  0.99100  0.77801  1.0000
  Fe  Fe127     1.0  0.41791  0.70826  0.07651  1.0000
  S   S253      1.0  0.42610  0.67364  0.08212  1.0000
  S   S254      1.0  0.41042  0.72537  0.09999  1.0000
  Fe  Fe128     1.0  0.42753  0.70753  0.03819  1.0000
  S   S255      1.0  0.43689  0.67358  0.04144  1.0000
  S   S256      1.0  0.43432  0.72298  0.01124  1.0000
  Fe  Fe129     1.0  0.40827  0.67166  0.06043  1.0000
  S   S257      1.0  0.39292  0.64567  0.05348  1.0000
  Fe  Fe130     1.0  0.45365  0.67824  0.06251  1.0000
  S   S258      1.0  0.48606  0.66067  0.06339  1.0000
  S   S259      1.0  0.39789  0.70605  0.05613  1.0000
  S   S260      1.0  0.44646  0.71259  0.05801  1.0000
  Fe  Fe131     1.0  0.62031  0.71482  0.05037  1.0000
  S   S261      1.0  0.60447  0.68680  0.05818  1.0000
  S   S262      1.0  0.62688  0.72774  0.02249  1.0000
  Fe  Fe132     1.0  0.62297  0.72083  0.08743  1.0000
  S   S263      1.0  0.60755  0.69266  0.09743  1.0000
  S   S264      1.0  0.63136  0.73704  0.10842  1.0000
  Fe  Fe133     1.0  0.62840  0.67723  0.07647  1.0000
  C   C862      1.0  0.60817  0.97637  0.16029  1.0000
  Fe  Fe134     1.0  0.58551  0.70477  0.07814  1.0000
  S   S265      1.0  0.55045  0.71182  0.08350  1.0000
  C   C863      1.0  0.52587  0.85243  0.12433  1.0000
  S   S266      1.0  0.59989  0.73362  0.06921  1.0000
  S   S267      1.0  0.58078  0.86677  0.15508  1.0000
  Fe  Fe135     1.0  0.62803  0.85178  0.17945  1.0000
  S   S268      1.0  0.60119  0.87456  0.18837  1.0000
  Fe  Fe136     1.0  0.58231  0.85225  0.18199  1.0000
  S   S269      1.0  0.55274  0.84694  0.19841  1.0000
  H   H1480     1.0  0.47910  0.63187  0.00641  1.0000
  S   S270      1.0  0.60900  0.82804  0.17535  1.0000
  Fe  Fe137     1.0  0.44273  0.82692  0.12870  1.0000
  S   S271      1.0  0.44454  0.81146  0.15550  1.0000
  S   S272      1.0  0.43662  0.81240  0.10610  1.0000
  Fe  Fe138     1.0  0.46055  0.86538  0.13529  1.0000
  S   S273      1.0  0.46407  0.85241  0.16226  1.0000
  S   S274      1.0  0.47516  0.89424  0.12485  1.0000
  Fe  Fe139     1.0  0.47562  0.82217  0.15227  1.0000
  S   S275      1.0  0.50478  0.80074  0.15708  1.0000
  Fe  Fe140     1.0  0.43274  0.84304  0.16326  1.0000
  S   S276      1.0  0.40873  0.85109  0.18546  1.0000
  S   S277      1.0  0.47463  0.83576  0.12516  1.0000
  S   S278      1.0  0.42817  0.85803  0.13651  1.0000
  H   H1481     1.0  0.43785  0.93856  0.21076  1.0000
  C   C864      1.0  0.46229  0.91873  0.12952  1.0000
  C   C865      1.0  0.44198  0.92131  0.13778  1.0000
  C   C866      1.0  0.43195  0.94111  0.14078  1.0000
  C   C867      1.0  0.44231  0.95842  0.13598  1.0000
  C   C868      1.0  0.46276  0.95580  0.12800  1.0000
  C   C869      1.0  0.47261  0.93607  0.12462  1.0000
  H   H1482     1.0  0.43383  0.90811  0.14157  1.0000
  H   H1483     1.0  0.41607  0.94302  0.14681  1.0000
  H   H1484     1.0  0.63548  0.63051  0.00325  1.0000
  H   H1485     1.0  0.48826  0.93424  0.11809  1.0000
  C   C870      1.0  0.53973  0.83287  0.18773  1.0000
  C   C871      1.0  0.55061  0.81778  0.17796  1.0000
  C   C872      1.0  0.53982  0.80703  0.16911  1.0000
  C   C873      1.0  0.51825  0.81164  0.16992  1.0000
  C   C874      1.0  0.50750  0.82615  0.18017  1.0000
  C   C875      1.0  0.51822  0.83709  0.18875  1.0000
  H   H1486     1.0  0.56729  0.81441  0.17719  1.0000
  H   H1487     1.0  0.54820  0.79552  0.16142  1.0000
  H   H1488     1.0  0.49086  0.82886  0.18155  1.0000
  H   H1489     1.0  0.50987  0.84911  0.19588  1.0000
  H   H1490     1.0  0.47889  0.83382  0.21076  1.0000
  H   H1491     1.0  0.60539  0.63292  0.02019  1.0000
  H   H1492     1.0  0.59246  0.92605  0.22568  1.0000
  S   S279      1.0  0.61258  0.83053  0.12364  1.0000
  C   C876      1.0  0.62344  0.76293  0.11268  1.0000
  C   C877      1.0  0.61984  0.77917  0.09967  1.0000
  C   C878      1.0  0.61612  0.79973  0.10333  1.0000
  C   C879      1.0  0.61552  0.80430  0.12005  1.0000
  C   C880      1.0  0.61812  0.78805  0.13319  1.0000
  C   C881      1.0  0.62242  0.76753  0.12946  1.0000
  H   H1493     1.0  0.62076  0.77592  0.08668  1.0000
  H   H1494     1.0  0.61720  0.79129  0.14614  1.0000
  H   H1495     1.0  0.62512  0.75509  0.13963  1.0000
  C   C882      1.0  0.37247  0.63106  0.06239  1.0000
  C   C883      1.0  0.36690  0.61731  0.05258  1.0000
  H   H1496     1.0  0.38416  0.85803  0.11946  1.0000
  C   C884      1.0  0.34718  0.61912  0.08573  1.0000
  C   C885      1.0  0.36240  0.63198  0.07902  1.0000
  H   H1497     1.0  0.41180  0.60042  0.07311  1.0000
  H   H1498     1.0  0.36645  0.64244  0.08676  1.0000
  C   C886      1.0  0.50422  0.67460  0.06899  1.0000
  C   C887      1.0  0.49787  0.69421  0.07390  1.0000
  C   C888      1.0  0.51236  0.70547  0.07793  1.0000
  C   C889      1.0  0.53332  0.69712  0.07748  1.0000
  C   C890      1.0  0.53984  0.67746  0.07256  1.0000
  C   C891      1.0  0.52528  0.66622  0.06830  1.0000
  H   H1499     1.0  0.48174  0.70071  0.07476  1.0000
  H   H1500     1.0  0.50724  0.72078  0.08136  1.0000
  H   H1501     1.0  0.55599  0.67087  0.07224  1.0000
  H   H1502     1.0  0.53031  0.65101  0.06457  1.0000
  C   C892      1.0  0.43038  0.78760  0.10493  1.0000
  C   C893      1.0  0.43176  0.78100  0.08881  1.0000
  C   C894      1.0  0.42636  0.76173  0.08713  1.0000
  C   C895      1.0  0.41903  0.74901  0.10157  1.0000
  C   C896      1.0  0.41780  0.75554  0.11772  1.0000
  C   C897      1.0  0.42368  0.77461  0.11943  1.0000
  H   H1503     1.0  0.43687  0.79094  0.07749  1.0000
  H   H1504     1.0  0.42726  0.75699  0.07462  1.0000
  H   H1505     1.0  0.41218  0.74578  0.12896  1.0000
  H   H1506     1.0  0.42272  0.77937  0.13190  1.0000
  H   H1507     1.0  0.56691  0.83512  0.13062  1.0000
  C   C898      1.0  0.61878  0.71646  0.00631  1.0000
  C   C899      1.0  0.60613  0.70095  0.01031  1.0000
  H   H1508     1.0  0.40788  0.65429  0.00865  1.0000
  H   H1509     1.0  0.60053  0.69624  0.02341  1.0000
  H   H1510     1.0  0.52416  0.67246  0.02454  1.0000
  C   C900      1.0  0.40023  0.71152  0.00058  1.0000
  H   H1511     1.0  0.58065  0.96474  0.15653  1.0000
  H   H1512     1.0  0.47823  0.56755  0.07558  1.0000
  C   C901      1.0  0.35997  0.84633  0.17199  1.0000
  H   H1513     1.0  0.39422  0.70868  0.01393  1.0000
  N   N61       1.0  0.43801  0.60682  0.08427  1.0000
  H   H1514     1.0  0.63519  0.65709  0.00150  1.0000
  C   C902      1.0  0.44517  0.62054  0.06840  1.0000
  C   C903      1.0  0.46085  0.62482  0.09996  1.0000
  C   C904      1.0  0.44867  0.58494  0.08444  1.0000
  H   H1515     1.0  0.62680  0.64689  0.04763  1.0000
  H   H1516     1.0  0.64953  0.61553  0.04551  1.0000
  C   C905      1.0  0.34273  0.81635  0.12940  1.0000
  H   H1517     1.0  0.53242  0.78232  0.22681  1.0000
  H   H1518     1.0  0.43969  0.60375  0.11149  1.0000
  H   H1519     1.0  0.51700  0.91338  0.14789  1.0000
  H   H1520     1.0  0.46120  0.62377  0.06821  1.0000
  H   H1521     1.0  0.40675  0.62282  0.08366  1.0000
  H   H1522     1.0  0.33199  0.82461  0.12034  1.0000
  C   C906      1.0  0.63646  0.84837  0.22465  1.0000
  C   C907      1.0  0.49806  0.71758  0.03030  1.0000
  H   H1523     1.0  0.38721  0.59631  0.09878  1.0000
  H   H1524     1.0  0.39444  0.81100  0.17292  1.0000
  H   H1525     1.0  0.54651  0.74372  0.99962  1.0000
  H   H1526     1.0  0.36310  0.83272  0.18159  1.0000
  H   H1527     1.0  0.35323  0.49623  0.99885  1.0000
  H   H1528     1.0  0.53210  0.93550  0.12678  1.0000
  H   H1529     1.0  0.46673  0.94800  0.16776  1.0000
  H   H1530     1.0  0.61920  0.66227  0.02883  1.0000
  H   H1531     1.0  0.47874  0.57947  0.09435  1.0000
  N   N62       1.0  0.49629  0.75840  0.11552  1.0000
  C   C908      1.0  0.48996  0.76677  0.09811  1.0000
  C   C909      1.0  0.49552  0.73551  0.11801  1.0000
  C   C910      1.0  0.51835  0.76211  0.11528  1.0000
  C   C911      1.0  0.48182  0.76961  0.12875  1.0000
  C   C912      1.0  0.47458  0.72911  0.11596  1.0000
  C   C913      1.0  0.52876  0.75354  0.13137  1.0000
  C   C914      1.0  0.47902  0.75821  0.14710  1.0000
  H   H1532     1.0  0.49925  0.75777  0.08815  1.0000
  H   H1533     1.0  0.47350  0.76518  0.09765  1.0000
  H   H1534     1.0  0.49947  0.72811  0.13067  1.0000
  H   H1535     1.0  0.50765  0.72774  0.10890  1.0000
  H   H1536     1.0  0.52845  0.75553  0.10432  1.0000
  H   H1537     1.0  0.51941  0.77888  0.11340  1.0000
  H   H1538     1.0  0.46595  0.77326  0.12488  1.0000
  H   H1539     1.0  0.47222  0.73070  0.10232  1.0000
  H   H1540     1.0  0.47449  0.71258  0.12097  1.0000
  H   H1541     1.0  0.46128  0.73809  0.12301  1.0000
  H   H1542     1.0  0.52150  0.76171  0.14236  1.0000
  H   H1543     1.0  0.54516  0.75642  0.12896  1.0000
  H   H1544     1.0  0.52919  0.73666  0.13462  1.0000
  H   H1545     1.0  0.47571  0.76980  0.15622  1.0000
  H   H1546     1.0  0.49263  0.74748  0.15094  1.0000
  H   H1547     1.0  0.46511  0.75021  0.14920  1.0000
  H   H1548     1.0  0.52900  0.72675  0.04467  1.0000
  C   C915      1.0  0.40877  0.85685  0.21890  1.0000
  C   C916      1.0  0.52500  0.94012  0.17989  1.0000
  N   N63       1.0  0.64521  0.91107  0.21260  1.0000
  C   C917      1.0  0.54320  0.69681  0.02458  1.0000
  C   C918      1.0  0.44710  0.62739  0.98706  1.0000
  H   H1549     1.0  0.50157  0.70125  0.03571  1.0000
  H   H1550     1.0  0.46064  0.63979  0.09167  1.0000
  H   H1551     1.0  0.52181  0.95676  0.18167  1.0000
  C   C919      1.0  0.62938  0.97169  0.16160  1.0000
  H   H1552     1.0  0.48043  0.92265  0.16796  1.0000
  H   H1553     1.0  0.43517  0.80144  0.23192  1.0000
  H   H1554     1.0  0.47505  0.65184  0.01977  1.0000
  H   H1555     1.0  0.44724  0.67172  0.00421  1.0000
  H   H1556     1.0  0.40512  0.63788  0.99301  1.0000
  H   H1557     1.0  0.56041  0.69337  0.02354  1.0000
  H   H1558     1.0  0.53772  0.69330  0.03840  1.0000
  C   C920      1.0  0.42284  0.95146  0.23452  1.0000
  H   H1559     1.0  0.51012  0.74086  0.01140  1.0000
  H   H1560     1.0  0.51150  0.71687  0.00433  1.0000
  H   H1561     1.0  0.38994  0.84244  0.15702  1.0000
  H   H1562     1.0  0.33497  0.80427  0.13794  1.0000
  H   H1563     1.0  0.49625  0.72754  0.04057  1.0000
  C   C921      1.0  0.41927  0.71891  0.99586  1.0000
  H   H1564     1.0  0.53569  0.96481  0.15270  1.0000
  H   H1565     1.0  0.57139  0.73794  0.02747  1.0000
  S   S280      1.0  0.32280  0.58897  0.08518  1.0000
  C   C922      1.0  0.53558  0.68076  0.01560  1.0000
  C   C923      1.0  0.44472  0.61259  0.05127  1.0000
  C   C924      1.0  0.53344  0.95053  0.13069  1.0000
  C   C925      1.0  0.34377  0.48753  0.99281  1.0000
  H   H1566     1.0  0.59082  0.67959  0.00053  1.0000
  C   C926      1.0  0.35149  0.60468  0.05920  1.0000
  H   H1567     1.0  0.65348  0.83811  0.12644  1.0000
  H   H1568     1.0  0.63746  0.88580  0.20148  1.0000
  H   H1569     1.0  0.33801  0.61588  0.99584  1.0000
  C   C927      1.0  0.40400  0.59448  0.10010  1.0000
  H   H1570     1.0  0.48267  0.71946  0.02566  1.0000
  C   C928      1.0  0.38461  0.84267  0.11540  1.0000
  C   C929      1.0  0.49957  0.94743  0.15938  1.0000
  C   C930      1.0  0.41506  0.60676  0.08441  1.0000
  H   H1571     1.0  0.59433  0.63925  0.04080  1.0000
  H   H1572     1.0  0.43737  0.62095  0.99860  1.0000
  C   C931      1.0  0.52829  0.79525  0.23464  1.0000
  C   C932      1.0  0.51762  0.89898  0.17397  1.0000
  H   H1573     1.0  0.49761  0.96414  0.16071  1.0000
  C   C933      1.0  0.56076  0.73031  0.03763  1.0000
  H   H1574     1.0  0.61414  0.81216  0.09304  1.0000
  Fe  Fe141     1.0  0.60198  0.88750  0.16083  1.0000
  C   C934      1.0  0.48146  0.93832  0.17079  1.0000
  C   C935      1.0  0.60049  0.69168  0.99730  1.0000
  Fe  Fe142     1.0  0.60931  0.84437  0.14862  1.0000
  N   N64       1.0  0.64684  0.64013  0.02447  1.0000
  C   C936      1.0  0.62790  0.93581  0.15857  1.0000
  C   C937      1.0  0.42807  0.81704  0.22829  1.0000
  H   H1575     1.0  0.64141  0.68397  0.02951  1.0000
  H   H1576     1.0  0.51450  0.84446  0.22485  1.0000
  H   H1577     1.0  0.39022  0.78503  0.17332  1.0000
  H   H1578     1.0  0.48669  0.78475  0.12950  1.0000
  H   H1579     1.0  0.42875  0.61175  0.04888  1.0000
  C   C938      1.0  0.49170  0.78972  0.09212  1.0000
  H   H1580     1.0  0.48427  0.79975  0.10190  1.0000
  H   H1581     1.0  0.33663  0.83258  0.15111  1.0000
  H   H1582     1.0  0.51076  0.88728  0.16884  1.0000
  H   H1583     1.0  0.40083  0.87214  0.21538  1.0000
  C   C939      1.0  0.52469  0.91510  0.15903  1.0000
  H   H1584     1.0  0.44323  0.57696  0.07495  1.0000
  H   H1585     1.0  0.50806  0.79221  0.08824  1.0000
  C   C940      1.0  0.41243  0.85051  0.23596  1.0000
  H   H1586     1.0  0.44415  0.57568  0.09682  1.0000
  H   H1587     1.0  0.48348  0.79481  0.08071  1.0000
  H   H1588     1.0  0.47955  0.59407  0.07337  1.0000
  C   C941      1.0  0.37350  0.84406  0.15469  1.0000
  H   H1589     1.0  0.50721  0.81218  0.21806  1.0000
  H   H1590     1.0  0.54728  0.95618  0.12285  1.0000
  H   H1591     1.0  0.35799  0.80673  0.16729  1.0000
  H   H1592     1.0  0.37456  0.61641  0.03972  1.0000
  C   C942      1.0  0.38668  0.82517  0.13035  1.0000
  H   H1593     1.0  0.60870  0.93867  0.20871  1.0000
  H   H1594     1.0  0.55240  0.94152  0.15068  1.0000
  H   H1595     1.0  0.54155  0.91003  0.15540  1.0000
  N   N65       1.0  0.37001  0.82690  0.14542  1.0000
  C   C943      1.0  0.37115  0.80663  0.15681  1.0000
  H   H1596     1.0  0.38785  0.81031  0.12513  1.0000
  H   H1597     1.0  0.55810  0.94281  0.17800  1.0000
  H   H1598     1.0  0.33967  0.61982  0.09866  1.0000
  H   H1599     1.0  0.34617  0.84765  0.13273  1.0000
  H   H1600     1.0  0.36944  0.79398  0.14958  1.0000
  C   C944      1.0  0.34872  0.83188  0.13984  1.0000
  C   C945      1.0  0.55046  0.72675  0.00296  1.0000
  H   H1601     1.0  0.42794  0.62834  0.10291  1.0000
  H   H1602     1.0  0.55290  0.91647  0.18078  1.0000
  H   H1603     1.0  0.48204  0.93843  0.18454  1.0000
  C   C946      1.0  0.53621  0.94886  0.14972  1.0000
  H   H1604     1.0  0.42994  0.81312  0.20170  1.0000
  H   H1605     1.0  0.51422  0.93278  0.19001  1.0000
  C   C947      1.0  0.40685  0.65367  0.99501  1.0000
  C   C948      1.0  0.62535  0.72293  0.98910  1.0000
  H   H1606     1.0  0.47333  0.97458  0.21044  1.0000
  H   H1607     1.0  0.44692  0.92506  0.23031  1.0000
  H   H1608     1.0  0.40965  0.57774  0.10091  1.0000
  H   H1609     1.0  0.33268  0.52357  0.01155  1.0000
  C   C949      1.0  0.52789  0.85796  0.14202  1.0000
  H   H1610     1.0  0.34320  0.84966  0.17080  1.0000
  H   H1611     1.0  0.39834  0.84051  0.10562  1.0000
  H   H1612     1.0  0.64301  0.93933  0.19521  1.0000
  H   H1613     1.0  0.60084  0.91431  0.20670  1.0000
  C   C950      1.0  0.62469  0.91164  0.22390  1.0000
  S   S281      1.0  0.59224  0.92158  0.15370  1.0000
  N   N66       1.0  0.52119  0.93737  0.16225  1.0000
  C   C951      1.0  0.64466  0.64221  0.00574  1.0000
  H   H1614     1.0  0.50576  0.90504  0.18393  1.0000
  C   C952      1.0  0.65487  0.84129  0.21467  1.0000
  C   C953      1.0  0.60577  0.92343  0.21558  1.0000
  C   C954      1.0  0.60674  0.94051  0.15715  1.0000
  H   H1615     1.0  0.63128  0.91031  0.18972  1.0000
  S   S282      1.0  0.63062  0.86652  0.15211  1.0000
  H   H1616     1.0  0.45109  0.62370  0.04079  1.0000
  C   C955      1.0  0.41516  0.84346  0.20642  1.0000
  H   H1617     1.0  0.54368  0.88287  0.10768  1.0000
  C   C956      1.0  0.60892  0.63285  0.03334  1.0000
  H   H1618     1.0  0.45685  0.84912  0.22028  1.0000
  H   H1619     1.0  0.54726  0.93145  0.19825  1.0000
  C   C957      1.0  0.63919  0.95137  0.16070  1.0000
  H   H1620     1.0  0.63567  0.92034  0.15749  1.0000
  H   H1621     1.0  0.35602  0.80864  0.12142  1.0000
  C   C958      1.0  0.42518  0.82365  0.21114  1.0000
  C   C959      1.0  0.55439  0.81036  0.12256  1.0000
  H   H1622     1.0  0.40515  0.60029  0.11219  1.0000
  H   H1623     1.0  0.37087  0.84243  0.10896  1.0000
  S   S283      1.0  0.64325  0.64326  0.08002  1.0000
  H   H1624     1.0  0.53306  0.74831  0.02913  1.0000
  C   C960      1.0  0.51430  0.72402  0.01528  1.0000
  H   H1625     1.0  0.56089  0.87093  0.12263  1.0000
  C   C961      1.0  0.44074  0.61561  0.10010  1.0000
  C   C962      1.0  0.54712  0.93211  0.18430  1.0000
  H   H1626     1.0  0.62132  0.89566  0.22855  1.0000
  H   H1627     1.0  0.57525  0.83017  0.10968  1.0000
  H   H1628     1.0  0.56765  0.71423  0.04146  1.0000
  H   H1629     1.0  0.44134  0.64729  0.01375  1.0000
  H   H1630     1.0  0.64613  0.60729  0.02600  1.0000
  H   H1631     1.0  0.61305  0.61683  0.03937  1.0000
  H   H1632     1.0  0.55975  0.73860  0.04890  1.0000
  H   H1633     1.0  0.57974  0.88595  0.09668  1.0000
  C   C963      1.0  0.59695  0.96086  0.15792  1.0000
  H   H1634     1.0  0.49677  0.94664  0.14620  1.0000
  H   H1635     1.0  0.56693  0.72411  0.00528  1.0000
  H   H1636     1.0  0.65360  0.82089  0.16334  1.0000
  N   N67       1.0  0.43152  0.97157  0.23013  1.0000
  H   H1637     1.0  0.36396  0.85962  0.17723  1.0000
  H   H1638     1.0  0.56429  0.80058  0.13162  1.0000
  H   H1639     1.0  0.51273  0.85748  0.15016  1.0000
  C   C964      1.0  0.47388  0.64854  0.00673  1.0000
  H   H1640     1.0  0.51807  0.83851  0.12669  1.0000
  N   N68       1.0  0.53662  0.71928  0.01869  1.0000
  H   H1641     1.0  0.34744  0.59421  0.05145  1.0000
  H   H1642     1.0  0.40482  0.79693  0.15504  1.0000
  H   H1643     1.0  0.53953  0.84690  0.14854  1.0000
  H   H1644     1.0  0.55648  0.80303  0.11068  1.0000
  C   C965      1.0  0.56105  0.83196  0.11902  1.0000
  H   H1645     1.0  0.53842  0.81014  0.12904  1.0000
  H   H1646     1.0  0.42197  0.92285  0.22460  1.0000
  C   C966      1.0  0.45126  0.65498  0.00299  1.0000
  H   H1647     1.0  0.53156  0.87383  0.14124  1.0000
  H   H1648     1.0  0.53648  0.86186  0.08740  1.0000
  C   C967      1.0  0.55540  0.86911  0.11049  1.0000
  N   N69       1.0  0.54572  0.84958  0.11229  1.0000
  H   H1649     1.0  0.58758  0.85889  0.09928  1.0000
  H   H1650     1.0  0.51990  0.96204  0.12756  1.0000
  H   H1651     1.0  0.37409  0.70237  0.99169  1.0000
  H   H1652     1.0  0.62270  0.85454  0.21870  1.0000
  H   H1653     1.0  0.51455  0.86484  0.11852  1.0000
  H   H1654     1.0  0.57048  0.87069  0.08365  1.0000
  H   H1655     1.0  0.40224  0.82477  0.13433  1.0000
  C   C968      1.0  0.62570  0.64646  0.03391  1.0000
  H   H1656     1.0  0.52403  0.83052  0.08105  1.0000
  H   H1657     1.0  0.46186  0.62812  0.11303  1.0000
  H   H1658     1.0  0.37078  0.85921  0.14670  1.0000
  H   H1659     1.0  0.53118  0.89031  0.17993  1.0000
  S   S284      1.0  0.64531  0.70451  0.06762  1.0000
  C   C969      1.0  0.53875  0.73168  0.03263  1.0000
  H   H1660     1.0  0.47508  0.61449  0.09606  1.0000
  C   C970      1.0  0.47258  0.58161  0.08189  1.0000
  C   C971      1.0  0.34159  0.60539  0.07588  1.0000
  H   H1661     1.0  0.49594  0.79402  0.23344  1.0000
  C   C972      1.0  0.52359  0.83401  0.09428  1.0000
  H   H1662     1.0  0.52479  0.81920  0.10268  1.0000
  C   C973      1.0  0.57431  0.87093  0.09666  1.0000
  H   H1663     1.0  0.50823  0.84312  0.09760  1.0000
  H   H1664     1.0  0.32946  0.64260  0.99500  1.0000
  C   C974      1.0  0.54114  0.84666  0.09488  1.0000
  H   H1665     1.0  0.43555  0.63593  0.06801  1.0000
  H   H1666     1.0  0.55534  0.83944  0.08733  1.0000
  H   H1667     1.0  0.45453  0.59750  0.05026  1.0000
  H   H1668     1.0  0.48469  0.65759  0.99787  1.0000
  C   C975      1.0  0.39140  0.79980  0.16489  1.0000
  C   C976      1.0  0.64309  0.90092  0.19732  1.0000
  H   H1669     1.0  0.54885  0.66887  0.01217  1.0000
  C   C977      1.0  0.38884  0.70799  0.98797  1.0000
  H   H1670     1.0  0.55688  0.70024  0.98828  1.0000
  C   C978      1.0  0.64640  0.94829  0.21911  1.0000
  H   H1671     1.0  0.47080  0.96905  0.12405  1.0000
  C   C979      1.0  0.43329  0.93366  0.22443  1.0000
  H   H1672     1.0  0.46953  0.94787  0.21651  1.0000
  H   H1673     1.0  0.52875  0.68683  0.00376  1.0000
  H   H1674     1.0  0.54009  0.80574  0.23023  1.0000
  H   H1675     1.0  0.48146  0.85724  0.21917  1.0000
  C   C980      1.0  0.47349  0.84343  0.22117  1.0000
  H   H1676     1.0  0.48598  0.95923  0.22715  1.0000
  H   H1677     1.0  0.40587  0.95354  0.23381  1.0000
  H   H1678     1.0  0.63251  0.95943  0.21619  1.0000
  H   H1679     1.0  0.64762  0.81174  0.14545  1.0000
  H   H1680     1.0  0.32292  0.50338  0.02701  1.0000
  N   N70       1.0  0.32463  0.50115  0.98743  1.0000
  C   C981      1.0  0.50632  0.80606  0.23180  1.0000
  C   C982      1.0  0.65118  0.93221  0.20634  1.0000
  C   C983      1.0  0.47133  0.96219  0.22130  1.0000
  H   H1681     1.0  0.39236  0.66370  0.99189  1.0000
  H   H1682     1.0  0.63769  0.78781  0.16899  1.0000
  H   H1683     1.0  0.46295  0.61936  0.98874  1.0000
  H   H1684     1.0  0.44145  0.97022  0.20292  1.0000
  C   C984      1.0  0.45329  0.96914  0.23481  1.0000
  H   H1685     1.0  0.65422  0.68015  0.00824  1.0000
  H   H1686     1.0  0.40235  0.96990  0.20705  1.0000
  H   H1687     1.0  0.64442  0.94198  0.23269  1.0000
  C   C985      1.0  0.33839  0.63069  0.98730  1.0000
  H   H1688     1.0  0.62484  0.91849  0.23569  1.0000
  C   C986      1.0  0.65465  0.78801  0.16593  1.0000
  C   C987      1.0  0.43119  0.98018  0.21158  1.0000
  C   C988      1.0  0.55043  0.71679  0.98672  1.0000
  C   C989      1.0  0.65398  0.61807  0.03140  1.0000
  Fe  Fe143     1.0  0.59823  0.87950  0.30905  1.0000
  S   S285      1.0  0.60908  0.88311  0.28091  1.0000
  S   S286      1.0  0.56421  0.88240  0.32024  1.0000
  Fe  Fe144     1.0  0.62729  0.90637  0.28677  1.0000
  C   C990      1.0  0.44481  0.80534  0.35922  1.0000
  Fe  Fe145     1.0  0.63673  0.86062  0.28769  1.0000
  S   S287      1.0  0.61480  0.90460  0.31442  1.0000
  S   S288      1.0  0.62451  0.85468  0.31558  1.0000
  Fe  Fe146     1.0  0.46265  0.84593  0.30176  1.0000
  S   S289      1.0  0.45226  0.86155  0.27713  1.0000
  S   S290      1.0  0.49692  0.83356  0.30118  1.0000
  Fe  Fe147     1.0  0.41738  0.84867  0.32001  1.0000
  S   S291      1.0  0.40396  0.86409  0.29619  1.0000
  S   S292      1.0  0.40062  0.84437  0.34728  1.0000
  Fe  Fe148     1.0  0.42735  0.84138  0.28232  1.0000
  S   S293      1.0  0.42547  0.82111  0.26220  1.0000
  Fe  Fe149     1.0  0.43032  0.88269  0.29297  1.0000
  S   S294      1.0  0.42820  0.91659  0.28382  1.0000
  S   S295      1.0  0.43877  0.82433  0.30648  1.0000
  S   S296      1.0  0.44271  0.86866  0.31736  1.0000
  C   C991      1.0  0.37450  0.84017  0.35414  1.0000
  C   C992      1.0  0.36111  0.83785  0.34273  1.0000
  C   C993      1.0  0.34058  0.83435  0.34878  1.0000
  C   C994      1.0  0.36702  0.83910  0.37166  1.0000
  H   H1689     1.0  0.36661  0.83855  0.32924  1.0000
  H   H1690     1.0  0.37724  0.84077  0.38062  1.0000
  H   H1691     1.0  0.47157  0.78798  0.33251  1.0000
  H   H1692     1.0  0.36138  0.96553  0.33937  1.0000
  C   C995      1.0  0.57086  0.93722  0.29854  1.0000
  H   H1693     1.0  0.54760  0.93630  0.33046  1.0000
  H   H1694     1.0  0.58166  0.92887  0.28897  1.0000
  C   C996      1.0  0.64834  0.92842  0.35753  1.0000
  H   H1695     1.0  0.46677  0.81761  0.23934  1.0000
  H   H1696     1.0  0.39787  0.93090  0.33977  1.0000
  H   H1697     1.0  0.40739  0.86089  0.24548  1.0000
  C   C997      1.0  0.43815  0.92940  0.29780  1.0000
  C   C998      1.0  0.43688  0.92230  0.31524  1.0000
  C   C999      1.0  0.44464  0.93288  0.32632  1.0000
  C   C1000     1.0  0.45307  0.95095  0.32000  1.0000
  C   C1001     1.0  0.45470  0.95783  0.30252  1.0000
  C   C1002     1.0  0.44725  0.94707  0.29145  1.0000
  H   H1698     1.0  0.42908  0.90922  0.32035  1.0000
  H   H1699     1.0  0.44341  0.92746  0.33982  1.0000
  C   C1003     1.0  0.34643  0.83571  0.37770  1.0000
  H   H1700     1.0  0.44874  0.95233  0.27795  1.0000
  H   H1701     1.0  0.59829  0.96408  0.24113  1.0000
  C   C1004     1.0  0.53434  0.96828  0.30840  1.0000
  C   C1005     1.0  0.35226  0.90231  0.35249  1.0000
  H   H1702     1.0  0.48028  0.85496  0.34910  1.0000
  C   C1006     1.0  0.54575  0.86909  0.31417  1.0000
  C   C1007     1.0  0.55152  0.85348  0.30368  1.0000
  C   C1008     1.0  0.53636  0.84284  0.29964  1.0000
  C   C1009     1.0  0.51529  0.84816  0.30559  1.0000
  C   C1010     1.0  0.50947  0.86413  0.31570  1.0000
  C   C1011     1.0  0.52469  0.87419  0.32029  1.0000
  H   H1703     1.0  0.56768  0.84932  0.29897  1.0000
  H   H1704     1.0  0.54101  0.83042  0.29188  1.0000
  H   H1705     1.0  0.49331  0.86840  0.32031  1.0000
  H   H1706     1.0  0.52014  0.88587  0.32874  1.0000
  H   H1707     1.0  0.43630  0.81162  0.34807  1.0000
  H   H1708     1.0  0.40021  0.95177  0.32278  1.0000
  H   H1709     1.0  0.41747  0.79453  0.37427  1.0000
  H   H1710     1.0  0.48664  0.86392  0.24837  1.0000
  Fe  Fe150     1.0  0.64205  0.88015  0.31877  1.0000
  H   H1711     1.0  0.48517  0.79255  0.28157  1.0000
  H   H1712     1.0  0.40031  0.95335  0.36890  1.0000
  C   C1012     1.0  0.53282  0.93487  0.32589  1.0000
  H   H1713     1.0  0.37874  0.93841  0.32508  1.0000
  H   H1714     1.0  0.65341  0.94809  0.33375  1.0000
  H   H1715     1.0  0.50770  0.85638  0.26111  1.0000
  H   H1716     1.0  0.49051  0.78404  0.34745  1.0000
  H   H1717     1.0  0.36063  0.89773  0.34019  1.0000
  H   H1718     1.0  0.41679  0.95626  0.34949  1.0000
  H   H1719     1.0  0.47779  0.85071  0.37235  1.0000
  H   H1720     1.0  0.32454  0.89559  0.34498  1.0000
  H   H1721     1.0  0.49397  0.78221  0.26195  1.0000
  H   H1722     1.0  0.37599  0.97204  0.38591  1.0000
  H   H1723     1.0  0.52102  0.97630  0.31631  1.0000
  H   H1724     1.0  0.44351  0.84537  0.35164  1.0000
  H   H1725     1.0  0.51806  0.93243  0.35212  1.0000
  H   H1726     1.0  0.48924  0.82462  0.34076  1.0000
  H   H1727     1.0  0.57453  0.92967  0.31125  1.0000
  C   C1013     1.0  0.50351  0.85896  0.24791  1.0000
  C   C1014     1.0  0.48558  0.79603  0.26750  1.0000
  H   H1728     1.0  0.48824  0.82737  0.26901  1.0000
  H   H1729     1.0  0.52669  0.83377  0.24261  1.0000
  C   C1015     1.0  0.32964  0.89165  0.38745  1.0000
  H   H1730     1.0  0.43582  0.79919  0.38716  1.0000
  H   H1731     1.0  0.62161  0.85270  0.25020  1.0000
  H   H1732     1.0  0.46649  0.82483  0.33191  1.0000
  H   H1733     1.0  0.34095  0.83475  0.39120  1.0000
  H   H1734     1.0  0.46683  0.81208  0.38606  1.0000
  C   C1016     1.0  0.45386  0.83890  0.36154  1.0000
  H   H1735     1.0  0.36307  0.89672  0.36211  1.0000
  N   N71       1.0  0.46280  0.81691  0.35928  1.0000
  H   H1736     1.0  0.47499  0.78994  0.37535  1.0000
  S   S297      1.0  0.46025  0.96571  0.33403  1.0000
  C   C1017     1.0  0.48391  0.79470  0.33696  1.0000
  H   H1737     1.0  0.46055  0.86985  0.36149  1.0000
  H   H1738     1.0  0.43021  0.97044  0.37112  1.0000
  H   H1739     1.0  0.50818  0.79682  0.36756  1.0000
  C   C1018     1.0  0.46935  0.85413  0.36101  1.0000
  C   C1019     1.0  0.42867  0.80502  0.37535  1.0000
  H   H1740     1.0  0.33706  0.87528  0.35806  1.0000
  H   H1741     1.0  0.41933  0.82032  0.37652  1.0000
  H   H1742     1.0  0.45035  0.78888  0.35773  1.0000
  H   H1743     1.0  0.50176  0.82453  0.36422  1.0000
  H   H1744     1.0  0.33644  0.87510  0.38792  1.0000
  C   C1020     1.0  0.49776  0.81030  0.37219  1.0000
  C   C1021     1.0  0.38912  0.94420  0.33248  1.0000
  C   C1022     1.0  0.33307  0.83332  0.36627  1.0000
  C   C1023     1.0  0.47477  0.80696  0.37379  1.0000
  H   H1745     1.0  0.48944  0.92590  0.29803  1.0000
  H   H1746     1.0  0.49643  0.79589  0.32606  1.0000
  C   C1024     1.0  0.40511  0.96506  0.35820  1.0000
  N   N72       1.0  0.53160  0.94619  0.30818  1.0000
  S   S298      1.0  0.62809  0.93572  0.26891  1.0000
  C   C1025     1.0  0.54837  0.93578  0.29604  1.0000
  H   H1747     1.0  0.34894  0.91934  0.35088  1.0000
  H   H1748     1.0  0.44394  0.83978  0.37399  1.0000
  H   H1749     1.0  0.49838  0.95578  0.30953  1.0000
  H   H1750     1.0  0.64274  0.94064  0.36587  1.0000
  H   H1751     1.0  0.50048  0.91763  0.31728  1.0000
  C   C1026     1.0  0.50400  0.92436  0.30383  1.0000
  H   H1752     1.0  0.53308  0.91807  0.32593  1.0000
  H   H1753     1.0  0.54823  0.96915  0.31454  1.0000
  H   H1754     1.0  0.54635  0.94178  0.28255  1.0000
  H   H1755     1.0  0.54740  0.91903  0.29717  1.0000
  C   C1027     1.0  0.47565  0.81637  0.34204  1.0000
  H   H1756     1.0  0.41482  0.96846  0.26601  1.0000
  N   N73       1.0  0.49741  0.82293  0.24264  1.0000
  C   C1028     1.0  0.64473  0.95013  0.27557  1.0000
  H   H1757     1.0  0.35414  0.96605  0.37699  1.0000
  C   C1029     1.0  0.37612  0.95888  0.34461  1.0000
  H   H1758     1.0  0.55001  0.97593  0.28230  1.0000
  H   H1759     1.0  0.51545  0.95824  0.34177  1.0000
  H   H1760     1.0  0.51548  0.91343  0.29687  1.0000
  H   H1761     1.0  0.57439  0.95324  0.29662  1.0000
  C   C1030     1.0  0.36348  0.97823  0.37790  1.0000
  C   C1031     1.0  0.63586  0.84741  0.24250  1.0000
  C   C1032     1.0  0.63866  0.95978  0.29028  1.0000
  C   C1033     1.0  0.51544  0.94204  0.33981  1.0000
  H   H1762     1.0  0.46192  0.97134  0.29742  1.0000
  C   C1034     1.0  0.51088  0.94580  0.30242  1.0000
  H   H1763     1.0  0.50175  0.81106  0.38510  1.0000
  H   H1764     1.0  0.64372  0.81456  0.34864  1.0000
  H   H1765     1.0  0.46925  0.79874  0.26484  1.0000
  H   H1766     1.0  0.42392  0.94531  0.24814  1.0000
  C   C1035     1.0  0.49656  0.81515  0.26138  1.0000
  H   H1767     1.0  0.51074  0.87214  0.24059  1.0000
  H   H1768     1.0  0.51080  0.95244  0.28881  1.0000
  H   H1769     1.0  0.37101  0.94872  0.35630  1.0000
  H   H1770     1.0  0.34292  0.90037  0.38653  1.0000
  H   H1771     1.0  0.32401  0.92958  0.37207  1.0000
  H   H1772     1.0  0.46669  0.84003  0.24852  1.0000
  H   H1773     1.0  0.65118  0.90329  0.24857  1.0000
  H   H1774     1.0  0.49991  0.94003  0.33717  1.0000
  H   H1775     1.0  0.51233  0.81176  0.26545  1.0000
  H   H1776     1.0  0.58999  0.97395  0.26081  1.0000
  C   C1036     1.0  0.65163  0.97210  0.29515  1.0000
  N   N74       1.0  0.38698  0.97531  0.34909  1.0000
  H   H1777     1.0  0.45487  0.95827  0.24672  1.0000
  H   H1778     1.0  0.62377  0.95811  0.29772  1.0000
  C   C1037     1.0  0.33228  0.89223  0.35668  1.0000
  H   H1779     1.0  0.63442  0.92407  0.35338  1.0000
  H   H1780     1.0  0.52938  0.78862  0.24809  1.0000
  H   H1781     1.0  0.32522  0.89264  0.47751  1.0000
  C   C1038     1.0  0.59365  0.97864  0.24692  1.0000
  H   H1782     1.0  0.33355  0.83399  0.48046  1.0000
  C   C1039     1.0  0.42177  0.83042  0.24077  1.0000
  H   H1783     1.0  0.32698  0.88772  0.41518  1.0000
  C   C1040     1.0  0.51105  0.83966  0.23876  1.0000
  H   H1784     1.0  0.33042  0.83244  0.33983  1.0000
  C   C1041     1.0  0.47560  0.83071  0.23873  1.0000
  C   C1042     1.0  0.65345  0.83869  0.25040  1.0000
  S   S299      1.0  0.65306  0.83512  0.27277  1.0000
  H   H1785     1.0  0.32592  0.87482  0.45310  1.0000
  H   H1786     1.0  0.64666  0.97986  0.30634  1.0000
  C   C1043     1.0  0.41685  0.97968  0.36526  1.0000
  Fe  Fe151     1.0  0.40991  0.90676  0.65327  1.0000
  S   S300      1.0  0.43022  0.89993  0.62927  1.0000
  S   S301      1.0  0.38984  0.93759  0.65075  1.0000
  Fe  Fe152     1.0  0.42499  0.86552  0.67243  1.0000
  S   S302      1.0  0.44597  0.85519  0.64932  1.0000
  S   S303      1.0  0.42604  0.84399  0.69727  1.0000
  Fe  Fe153     1.0  0.45510  0.88688  0.64589  1.0000
  S   S304      1.0  0.48648  0.89837  0.64009  1.0000
  Fe  Fe154     1.0  0.41895  0.86917  0.63476  1.0000
  S   S305      1.0  0.40945  0.85851  0.61152  1.0000
  S   S306      1.0  0.43555  0.89652  0.66961  1.0000
  S   S307      1.0  0.39730  0.87667  0.65816  1.0000
  H   H1787     1.0  0.50189  0.86814  0.71879  1.0000
  Fe  Fe155     1.0  0.60492  0.86294  0.64730  1.0000
  S   S308      1.0  0.60724  0.88627  0.66435  1.0000
  S   S309      1.0  0.57559  0.84799  0.64962  1.0000
  Fe  Fe156     1.0  0.62411  0.90226  0.64111  1.0000
  S   S310      1.0  0.61657  0.93645  0.63479  1.0000
  Fe  Fe157     1.0  0.63850  0.86862  0.66828  1.0000
  H   H1788     1.0  0.34265  0.91442  0.60868  1.0000
  S   S311      1.0  0.61951  0.88044  0.62353  1.0000
  S   S312      1.0  0.63531  0.84377  0.65285  1.0000
  H   H1789     1.0  0.42151  0.96379  0.63283  1.0000
  C   C1044     1.0  0.35925  0.89961  0.56018  1.0000
  H   H1790     1.0  0.60732  0.87803  0.70012  1.0000
  H   H1791     1.0  0.49408  0.81141  0.68486  1.0000
  C   C1045     1.0  0.49367  0.85464  0.71988  1.0000
  C   C1046     1.0  0.41439  0.87461  0.71828  1.0000
  C   C1047     1.0  0.61718  0.94868  0.65261  1.0000
  N   N75       1.0  0.45349  0.96437  0.62153  1.0000
  H   H1792     1.0  0.47236  0.83099  0.68001  1.0000
  C   C1048     1.0  0.62590  0.94786  0.68116  1.0000
  C   C1049     1.0  0.62432  0.93756  0.66739  1.0000
  C   C1050     1.0  0.55171  0.90843  0.67648  1.0000
  H   H1793     1.0  0.62930  0.92115  0.66803  1.0000
  C   C1051     1.0  0.38340  0.85744  0.60880  1.0000
  C   C1052     1.0  0.36719  0.85993  0.62208  1.0000
  N   N76       1.0  0.49213  0.84847  0.70271  1.0000
  C   C1053     1.0  0.35841  0.85252  0.59036  1.0000
  C   C1054     1.0  0.37888  0.85381  0.59292  1.0000
  H   H1794     1.0  0.37043  0.86259  0.63438  1.0000
  H   H1795     1.0  0.33880  0.96296  0.56309  1.0000
  H   H1796     1.0  0.39134  0.85179  0.58259  1.0000
  C   C1055     1.0  0.42146  0.85378  0.71711  1.0000
  H   H1797     1.0  0.41118  0.94765  0.70472  1.0000
  C   C1056     1.0  0.46898  0.97914  0.62040  1.0000
  H   H1798     1.0  0.33445  0.85986  0.63008  1.0000
  H   H1799     1.0  0.56930  0.92998  0.66039  1.0000
  C   C1057     1.0  0.51112  0.88372  0.64208  1.0000
  C   C1058     1.0  0.51373  0.86237  0.64658  1.0000
  C   C1059     1.0  0.53367  0.85154  0.64843  1.0000
  C   C1060     1.0  0.55108  0.86197  0.64599  1.0000
  C   C1061     1.0  0.54848  0.88325  0.64116  1.0000
  C   C1062     1.0  0.52859  0.89405  0.63917  1.0000
  H   H1800     1.0  0.50047  0.85418  0.64850  1.0000
  H   H1801     1.0  0.53565  0.83501  0.65188  1.0000
  H   H1802     1.0  0.56187  0.89128  0.63885  1.0000
  H   H1803     1.0  0.52672  0.91047  0.63523  1.0000
  C   C1063     1.0  0.39419  0.95244  0.66589  1.0000
  C   C1064     1.0  0.40070  0.94301  0.68141  1.0000
  C   C1065     1.0  0.47906  0.81971  0.69011  1.0000
  C   C1066     1.0  0.51682  0.94166  0.67155  1.0000
  H   H1804     1.0  0.40183  0.92648  0.68462  1.0000
  H   H1805     1.0  0.52150  0.82835  0.70168  1.0000
  C   C1067     1.0  0.40584  0.95498  0.69283  1.0000
  H   H1806     1.0  0.33574  0.92570  0.55510  1.0000
  C   C1068     1.0  0.34679  0.85833  0.61960  1.0000
  C   C1069     1.0  0.63380  0.86452  0.71274  1.0000
  C   C1070     1.0  0.59996  0.87631  0.72739  1.0000
  H   H1807     1.0  0.44373  0.94373  0.60674  1.0000
  H   H1808     1.0  0.36745  0.90161  0.54700  1.0000
  C   C1071     1.0  0.43154  0.97495  0.62549  1.0000
  C   C1072     1.0  0.34229  0.85456  0.60378  1.0000
  H   H1809     1.0  0.35520  0.84949  0.57815  1.0000
  H   H1810     1.0  0.41471  0.97262  0.60420  1.0000
  H   H1811     1.0  0.53102  0.86441  0.70179  1.0000
  H   H1812     1.0  0.48024  0.92793  0.60962  1.0000
  C   C1073     1.0  0.45787  0.94750  0.63596  1.0000
  H   H1813     1.0  0.37079  0.97236  0.62384  1.0000
  C   C1074     1.0  0.62020  0.96917  0.68021  1.0000
  C   C1075     1.0  0.55278  0.92775  0.66320  1.0000
  H   H1814     1.0  0.44883  0.93470  0.63586  1.0000
  H   H1815     1.0  0.46828  0.80807  0.69392  1.0000
  H   H1816     1.0  0.46495  0.83354  0.71217  1.0000
  C   C1076     1.0  0.56048  0.97061  0.64625  1.0000
  H   H1817     1.0  0.51291  0.83707  0.68143  1.0000
  H   H1818     1.0  0.51308  0.93445  0.66081  1.0000
  C   C1077     1.0  0.49945  0.95973  0.67487  1.0000
  H   H1819     1.0  0.51499  0.93011  0.68306  1.0000
  H   H1820     1.0  0.35485  0.89552  0.59616  1.0000
  H   H1821     1.0  0.53666  0.97038  0.68461  1.0000
  H   H1822     1.0  0.48471  0.95354  0.67983  1.0000
  H   H1823     1.0  0.43685  0.96010  0.65752  1.0000
  H   H1824     1.0  0.35851  0.93165  0.56110  1.0000
  H   H1825     1.0  0.55433  0.91127  0.68926  1.0000
  C   C1078     1.0  0.39230  0.97387  0.66196  1.0000
  H   H1826     1.0  0.54918  0.92381  0.65101  1.0000
  H   H1827     1.0  0.35385  0.95853  0.58089  1.0000
  H   H1828     1.0  0.37125  0.89360  0.56874  1.0000
  C   C1079     1.0  0.47682  0.94176  0.60032  1.0000
  H   H1829     1.0  0.46106  0.86975  0.72400  1.0000
  C   C1080     1.0  0.54385  0.95412  0.68376  1.0000
  C   C1081     1.0  0.34718  0.92058  0.56440  1.0000
  H   H1830     1.0  0.33291  0.73603  0.54603  1.0000
  C   C1082     1.0  0.64060  0.91418  0.72882  1.0000
  H   H1831     1.0  0.52317  0.87082  0.68040  1.0000
  H   H1832     1.0  0.34776  0.94735  0.62692  1.0000
  H   H1833     1.0  0.49807  0.88964  0.69616  1.0000
  C   C1083     1.0  0.42514  0.84037  0.73205  1.0000
  C   C1084     1.0  0.51362  0.84200  0.69401  1.0000
  N   N77       1.0  0.33639  0.92098  0.58240  1.0000
  H   H1834     1.0  0.56384  0.89589  0.67237  1.0000
  N   N78       1.0  0.53872  0.94687  0.66803  1.0000
  H   H1835     1.0  0.33445  0.79053  0.52037  1.0000
  C   C1085     1.0  0.45558  0.95433  0.60547  1.0000
  H   H1836     1.0  0.57187  0.93926  0.69514  1.0000
  C   C1086     1.0  0.37102  0.92175  0.59434  1.0000
  C   C1087     1.0  0.48106  0.82972  0.70597  1.0000
  H   H1837     1.0  0.34891  0.88791  0.56045  1.0000
  H   H1838     1.0  0.47448  0.94073  0.63450  1.0000
  C   C1088     1.0  0.32602  0.94254  0.58504  1.0000
  H   H1839     1.0  0.50256  0.96883  0.68454  1.0000
  C   C1089     1.0  0.33807  0.96050  0.57721  1.0000
  H   H1840     1.0  0.54387  0.85097  0.68471  1.0000
  C   C1090     1.0  0.45328  0.95376  0.65415  1.0000
  S   S313      1.0  0.65113  0.86222  0.69380  1.0000
  C   C1091     1.0  0.61313  0.87330  0.71221  1.0000
  H   H1841     1.0  0.48963  0.95117  0.59832  1.0000
  H   H1842     1.0  0.43054  0.82421  0.73124  1.0000
  H   H1843     1.0  0.37794  0.92625  0.58114  1.0000
  H   H1844     1.0  0.62929  0.92695  0.72349  1.0000
  H   H1845     1.0  0.58406  0.88339  0.72683  1.0000
  C   C1092     1.0  0.52844  0.85828  0.69024  1.0000
  C   C1093     1.0  0.41065  0.88186  0.73429  1.0000
  C   C1094     1.0  0.33732  0.94743  0.63910  1.0000
  H   H1846     1.0  0.53683  0.90241  0.67725  1.0000
  H   H1847     1.0  0.63213  0.93947  0.69231  1.0000
  Fe  Fe158     1.0  0.65028  0.86337  0.63034  1.0000
  H   H1848     1.0  0.47013  0.89561  0.70002  1.0000
  H   H1849     1.0  0.32952  0.97493  0.58174  1.0000
  H   H1850     1.0  0.46318  0.86477  0.69504  1.0000
  H   H1851     1.0  0.48305  0.89617  0.67897  1.0000
  C   C1095     1.0  0.64110  0.85837  0.72864  1.0000
  C   C1096     1.0  0.53935  0.96359  0.65303  1.0000
  H   H1852     1.0  0.38296  0.90977  0.59981  1.0000
  H   H1853     1.0  0.47648  0.93600  0.58801  1.0000
  H   H1854     1.0  0.48873  0.81750  0.71506  1.0000
  H   H1855     1.0  0.56954  0.96649  0.69118  1.0000
  H   H1856     1.0  0.45240  0.96582  0.59427  1.0000
  H   H1857     1.0  0.45659  0.93983  0.66345  1.0000
  C   C1097     1.0  0.48336  0.88766  0.69202  1.0000
  C   C1098     1.0  0.33621  0.96750  0.64701  1.0000
  H   H1858     1.0  0.41137  0.88506  0.70690  1.0000
  C   C1099     1.0  0.56709  0.95267  0.68578  1.0000
  H   H1859     1.0  0.32189  0.94397  0.59888  1.0000
  H   H1860     1.0  0.46327  0.96490  0.65603  1.0000
  H   H1861     1.0  0.32656  0.96542  0.65964  1.0000
  H   H1862     1.0  0.48507  0.97081  0.61921  1.0000
  H   H1863     1.0  0.36882  0.93509  0.60165  1.0000
  H   H1864     1.0  0.48346  0.86217  0.67795  1.0000
  C   C1100     1.0  0.48015  0.86514  0.69150  1.0000
  H   H1865     1.0  0.53342  0.95876  0.64209  1.0000
  C   C1101     1.0  0.61081  0.96989  0.65191  1.0000
  H   H1866     1.0  0.57236  0.95788  0.64218  1.0000
  H   H1867     1.0  0.53691  0.94499  0.69542  1.0000
  C   C1102     1.0  0.35071  0.91250  0.59565  1.0000
  C   C1103     1.0  0.40492  0.97630  0.68850  1.0000
  H   H1868     1.0  0.35191  0.96845  0.65014  1.0000
  H   H1869     1.0  0.57788  0.95203  0.67391  1.0000
  H   H1870     1.0  0.34388  0.93430  0.64798  1.0000
  H   H1871     1.0  0.65223  0.90955  0.70252  1.0000
  H   H1872     1.0  0.63252  0.90045  0.73085  1.0000
  H   H1873     1.0  0.33695  0.97817  0.61101  1.0000
  H   H1874     1.0  0.32461  0.75500  0.56033  1.0000
  H   H1875     1.0  0.32615  0.89132  0.58297  1.0000
  H   H1876     1.0  0.49674  0.97006  0.66292  1.0000
  H   H1877     1.0  0.50325  0.84213  0.72740  1.0000
  H   H1878     1.0  0.65226  0.96307  0.63329  1.0000
  H   H1879     1.0  0.60504  0.97851  0.64057  1.0000
  H   H1880     1.0  0.56589  0.97867  0.65560  1.0000
  H   H1881     1.0  0.52907  0.97784  0.65620  1.0000
  C   C1104     1.0  0.47286  0.85970  0.73114  1.0000
  H   H1882     1.0  0.32447  0.89745  0.50500  1.0000
  H   H1883     1.0  0.40468  0.89791  0.73513  1.0000
  H   H1884     1.0  0.32983  0.76438  0.52276  1.0000
  H   H1885     1.0  0.64398  0.95012  0.73358  1.0000
  C   C1105     1.0  0.61181  0.98000  0.66588  1.0000
  C   C1106     1.0  0.32210  0.78052  0.52193  1.0000
  Fe  Fe159     1.0  0.41747  0.70119  0.89303  1.0000
  S   S314      1.0  0.43596  0.66920  0.89382  1.0000
  S   S315      1.0  0.42200  0.72113  0.86723  1.0000
  Fe  Fe160     1.0  0.40240  0.69502  0.93099  1.0000
  S   S316      1.0  0.42012  0.66344  0.93416  1.0000
  S   S317      1.0  0.38326  0.70450  0.95520  1.0000
  Fe  Fe161     1.0  0.44626  0.67685  0.91736  1.0000
  S   S318      1.0  0.47756  0.66950  0.92719  1.0000
  Fe  Fe162     1.0  0.40792  0.65836  0.91054  1.0000
  S   S319      1.0  0.39767  0.62622  0.91438  1.0000
  S   S320      1.0  0.42932  0.70906  0.91594  1.0000
  S   S321      1.0  0.38862  0.68971  0.90803  1.0000
  Fe  Fe163     1.0  0.63558  0.68051  0.90485  1.0000
  S   S322      1.0  0.63849  0.70312  0.92258  1.0000
  N   N79       1.0  0.49927  0.92502  0.80390  1.0000
  Fe  Fe164     1.0  0.58936  0.69768  0.90256  1.0000
  S   S323      1.0  0.58914  0.72090  0.92035  1.0000
  S   S324      1.0  0.56153  0.69848  0.88854  1.0000
  Fe  Fe165     1.0  0.61976  0.72677  0.90529  1.0000
  S   S325      1.0  0.62599  0.76006  0.89813  1.0000
  Fe  Fe166     1.0  0.60763  0.69533  0.93586  1.0000
  S   S326      1.0  0.59909  0.68622  0.96432  1.0000
  S   S327      1.0  0.61912  0.70490  0.88665  1.0000
  S   S328      1.0  0.60562  0.67138  0.91901  1.0000
  Fe  Fe167     1.0  0.42160  0.83966  0.82809  1.0000
  S   S329      1.0  0.43655  0.83270  0.80197  1.0000
  S   S330      1.0  0.40432  0.81878  0.84869  1.0000
  Fe  Fe168     1.0  0.43468  0.88317  0.82275  1.0000
  S   S331      1.0  0.45120  0.87921  0.79663  1.0000
  S   S332      1.0  0.43627  0.91090  0.83592  1.0000
  Fe  Fe169     1.0  0.42361  0.86530  0.79275  1.0000
  S   S333      1.0  0.40826  0.87814  0.76908  1.0000
  Fe  Fe170     1.0  0.46265  0.84725  0.80804  1.0000
  S   S334      1.0  0.49593  0.83423  0.80179  1.0000
  S   S335      1.0  0.40609  0.87127  0.81841  1.0000
  S   S336      1.0  0.44868  0.85215  0.83462  1.0000
  Fe  Fe171     1.0  0.62190  0.84932  0.81854  1.0000
  S   S337      1.0  0.59126  0.85077  0.80921  1.0000
  H   H1886     1.0  0.53852  0.75747  0.85956  1.0000
  Fe  Fe172     1.0  0.62037  0.89654  0.81061  1.0000
  S   S338      1.0  0.58936  0.90086  0.80137  1.0000
  H   H1887     1.0  0.43502  0.60502  0.97506  1.0000
  Fe  Fe173     1.0  0.58134  0.87779  0.82367  1.0000
  S   S339      1.0  0.54967  0.88028  0.83859  1.0000
  Fe  Fe174     1.0  0.60187  0.87358  0.78751  1.0000
  C   C1107     1.0  0.35826  0.58692  0.90829  1.0000
  S   S340      1.0  0.61133  0.87532  0.83455  1.0000
  C   C1108     1.0  0.39034  0.80388  0.80657  1.0000
  C   C1109     1.0  0.32843  0.61835  0.94377  1.0000
  C   C1110     1.0  0.60739  0.93093  0.75373  1.0000
  C   C1111     1.0  0.60562  0.94960  0.82498  1.0000
  C   C1112     1.0  0.62470  0.94834  0.81458  1.0000
  C   C1113     1.0  0.34820  0.64584  0.94551  1.0000
  H   H1888     1.0  0.53952  0.79268  0.86918  1.0000
  C   C1114     1.0  0.65326  0.93949  0.74271  1.0000
  H   H1889     1.0  0.59778  0.93614  0.82830  1.0000
  C   C1115     1.0  0.60732  0.87059  0.74325  1.0000
  H   H1890     1.0  0.38601  0.58566  0.92005  1.0000
  C   C1116     1.0  0.51106  0.84639  0.81232  1.0000
  C   C1117     1.0  0.50524  0.84932  0.82946  1.0000
  C   C1118     1.0  0.51707  0.85980  0.83759  1.0000
  C   C1119     1.0  0.53454  0.86758  0.82849  1.0000
  C   C1120     1.0  0.54008  0.86496  0.81129  1.0000
  C   C1121     1.0  0.52867  0.85395  0.80333  1.0000
  H   H1891     1.0  0.49183  0.84323  0.83654  1.0000
  H   H1892     1.0  0.51268  0.86188  0.85088  1.0000
  H   H1893     1.0  0.55287  0.87186  0.80391  1.0000
  H   H1894     1.0  0.53308  0.85195  0.79001  1.0000
  C   C1122     1.0  0.43287  0.93630  0.82528  1.0000
  C   C1123     1.0  0.43790  0.95241  0.83284  1.0000
  C   C1124     1.0  0.37482  0.59538  0.91268  1.0000
  H   H1895     1.0  0.44357  0.94908  0.84512  1.0000
  S   S341      1.0  0.32301  0.58935  0.89211  1.0000
  H   H1896     1.0  0.56096  0.72415  0.97625  1.0000
  H   H1897     1.0  0.34929  0.58062  0.95622  1.0000
  H   H1898     1.0  0.33845  0.61329  0.93226  1.0000
  C   C1125     1.0  0.59691  0.96815  0.83147  1.0000
  H   H1899     1.0  0.48834  0.96453  0.78172  1.0000
  H   H1900     1.0  0.50896  0.96550  0.79419  1.0000
  H   H1901     1.0  0.42484  0.83733  0.75942  1.0000
  H   H1902     1.0  0.50877  0.90050  0.76676  1.0000
  C   C1126     1.0  0.42254  0.96120  0.80148  1.0000
  N   N80       1.0  0.64626  0.91851  0.74549  1.0000
  S   S342      1.0  0.63645  0.81605  0.82605  1.0000
  C   C1127     1.0  0.33089  0.52057  0.97699  1.0000
  C   C1128     1.0  0.49229  0.96432  0.79478  1.0000
  H   H1903     1.0  0.62452  0.71902  0.96279  1.0000
  C   C1129     1.0  0.63253  0.77947  0.84685  1.0000
  C   C1130     1.0  0.62637  0.77549  0.87790  1.0000
  C   C1131     1.0  0.62532  0.79695  0.87718  1.0000
  C   C1132     1.0  0.62750  0.80965  0.86141  1.0000
  C   C1133     1.0  0.63153  0.80094  0.84614  1.0000
  C   C1134     1.0  0.49041  0.90794  0.81592  1.0000
  C   C1135     1.0  0.62931  0.76689  0.86259  1.0000
  H   H1904     1.0  0.62310  0.80380  0.88891  1.0000
  H   H1905     1.0  0.62684  0.82611  0.86110  1.0000
  H   H1906     1.0  0.64061  0.57943  0.89509  1.0000
  C   C1136     1.0  0.37705  0.61628  0.90763  1.0000
  C   C1137     1.0  0.36252  0.62861  0.89803  1.0000
  C   C1138     1.0  0.34613  0.62008  0.89343  1.0000
  H   H1907     1.0  0.36400  0.64468  0.89404  1.0000
  H   H1908     1.0  0.51249  0.78111  0.84629  1.0000
  C   C1139     1.0  0.39681  0.71101  0.97064  1.0000
  C   C1140     1.0  0.41575  0.71855  0.96593  1.0000
  H   H1909     1.0  0.42189  0.72116  0.95261  1.0000
  C   C1141     1.0  0.50071  0.67759  0.91610  1.0000
  C   C1142     1.0  0.51701  0.67850  0.92537  1.0000
  C   C1143     1.0  0.53575  0.68479  0.91707  1.0000
  C   C1144     1.0  0.53843  0.69000  0.89938  1.0000
  C   C1145     1.0  0.52222  0.68889  0.89006  1.0000
  C   C1146     1.0  0.50337  0.68278  0.89838  1.0000
  H   H1910     1.0  0.51515  0.67433  0.93905  1.0000
  H   H1911     1.0  0.54817  0.68552  0.92436  1.0000
  H   H1912     1.0  0.52434  0.69261  0.87634  1.0000
  H   H1913     1.0  0.49106  0.68177  0.89108  1.0000
  C   C1147     1.0  0.41772  0.74840  0.86276  1.0000
  C   C1148     1.0  0.42703  0.75789  0.84723  1.0000
  C   C1149     1.0  0.42366  0.77947  0.84295  1.0000
  C   C1150     1.0  0.41059  0.79176  0.85406  1.0000
  C   C1151     1.0  0.40135  0.78228  0.86961  1.0000
  C   C1152     1.0  0.40506  0.76074  0.87403  1.0000
  H   H1914     1.0  0.43686  0.74846  0.83843  1.0000
  H   H1915     1.0  0.43086  0.78652  0.83094  1.0000
  H   H1916     1.0  0.39113  0.79164  0.87825  1.0000
  H   H1917     1.0  0.39769  0.75366  0.88597  1.0000
  H   H1918     1.0  0.34303  0.58910  0.97719  1.0000
  H   H1919     1.0  0.34727  0.53325  0.95313  1.0000
  H   H1920     1.0  0.50447  0.93311  0.77643  1.0000
  N   N81       1.0  0.34102  0.62633  0.95508  1.0000
  H   H1921     1.0  0.52990  0.93227  0.79366  1.0000
  C   C1153     1.0  0.37869  0.83738  0.79011  1.0000
  H   H1922     1.0  0.52506  0.89702  0.78322  1.0000
  H   H1923     1.0  0.62383  0.90100  0.76121  1.0000
  H   H1924     1.0  0.33668  0.51082  0.95109  1.0000
  C   C1154     1.0  0.49773  0.92121  0.78597  1.0000
  H   H1925     1.0  0.59047  0.81924  0.84431  1.0000
  H   H1926     1.0  0.57948  0.76630  0.83722  1.0000
  H   H1927     1.0  0.55833  0.82376  0.83021  1.0000
  H   H1928     1.0  0.41357  0.80910  0.78398  1.0000
  H   H1929     1.0  0.63361  0.85672  0.75609  1.0000
  H   H1930     1.0  0.35060  0.84130  0.81809  1.0000
  C   C1155     1.0  0.48969  0.90879  0.83514  1.0000
  H   H1931     1.0  0.48207  0.89571  0.84222  1.0000
  H   H1932     1.0  0.34808  0.84909  0.78130  1.0000
  N   N82       1.0  0.37199  0.82010  0.80323  1.0000
  H   H1933     1.0  0.53502  0.71913  0.98223  1.0000
  C   C1156     1.0  0.41448  0.86852  0.74920  1.0000
  C   C1157     1.0  0.42194  0.84775  0.74802  1.0000
  H   H1934     1.0  0.57798  0.78913  0.80962  1.0000
  H   H1935     1.0  0.57225  0.84007  0.85109  1.0000
  C   C1158     1.0  0.42549  0.94073  0.80943  1.0000
  C   C1159     1.0  0.35739  0.81404  0.83526  1.0000
  H   H1936     1.0  0.35170  0.79673  0.80753  1.0000
  H   H1937     1.0  0.53235  0.95083  0.81480  1.0000
  N   N83       1.0  0.47636  0.74813  0.89379  1.0000
  C   C1160     1.0  0.49730  0.73743  0.89821  1.0000
  C   C1161     1.0  0.46756  0.73336  0.88509  1.0000
  C   C1162     1.0  0.46284  0.75166  0.91036  1.0000
  C   C1163     1.0  0.47920  0.76821  0.88271  1.0000
  C   C1164     1.0  0.50935  0.74917  0.90785  1.0000
  C   C1165     1.0  0.47905  0.72876  0.86750  1.0000
  C   C1166     1.0  0.44048  0.76249  0.90921  1.0000
  C   C1167     1.0  0.46144  0.77839  0.87217  1.0000
  H   H1938     1.0  0.49571  0.72238  0.90620  1.0000
  H   H1939     1.0  0.50791  0.73383  0.88654  1.0000
  H   H1940     1.0  0.45119  0.73857  0.88327  1.0000
  H   H1941     1.0  0.46721  0.71827  0.89332  1.0000
  H   H1942     1.0  0.46187  0.73672  0.91874  1.0000
  H   H1943     1.0  0.46966  0.76143  0.91758  1.0000
  H   H1944     1.0  0.48185  0.77984  0.89059  1.0000
  H   H1945     1.0  0.49350  0.76608  0.87342  1.0000
  H   H1946     1.0  0.51149  0.76468  0.90117  1.0000
  H   H1947     1.0  0.50208  0.75016  0.92119  1.0000
  H   H1948     1.0  0.52509  0.74033  0.90870  1.0000
  H   H1949     1.0  0.46993  0.71933  0.86187  1.0000
  H   H1950     1.0  0.48059  0.74288  0.85840  1.0000
  H   H1951     1.0  0.49447  0.71950  0.86848  1.0000
  H   H1952     1.0  0.44013  0.77878  0.90344  1.0000
  H   H1953     1.0  0.43218  0.76278  0.92235  1.0000
  H   H1954     1.0  0.43138  0.75438  0.90245  1.0000
  H   H1955     1.0  0.45673  0.79468  0.87456  1.0000
  H   H1956     1.0  0.44726  0.77103  0.87490  1.0000
  H   H1957     1.0  0.46682  0.77890  0.85829  1.0000
  C   C1168     1.0  0.57943  0.78304  0.83742  1.0000
  C   C1169     1.0  0.57504  0.82304  0.85159  1.0000
  C   C1170     1.0  0.35462  0.81068  0.79843  1.0000
  H   H1958     1.0  0.57536  0.81668  0.86517  1.0000
  H   H1959     1.0  0.47531  0.86783  0.74173  1.0000
  H   H1960     1.0  0.45816  0.65381  0.95939  1.0000
  C   C1171     1.0  0.52178  0.92498  0.80571  1.0000
  H   H1961     1.0  0.36983  0.61477  0.96594  1.0000
  C   C1172     1.0  0.63471  0.96597  0.81042  1.0000
  H   H1962     1.0  0.54740  0.75633  0.87975  1.0000
  H   H1963     1.0  0.35685  0.57083  0.91221  1.0000
  H   H1964     1.0  0.34214  0.80698  0.77543  1.0000
  C   C1173     1.0  0.46211  0.65723  0.97165  1.0000
  H   H1965     1.0  0.65326  0.94085  0.77074  1.0000
  H   H1966     1.0  0.33516  0.62975  0.88583  1.0000
  H   H1967     1.0  0.42452  0.67814  0.98493  1.0000
  H   H1968     1.0  0.33962  0.82112  0.80002  1.0000
  C   C1174     1.0  0.50868  0.90028  0.78069  1.0000
  H   H1969     1.0  0.36756  0.86519  0.77406  1.0000
  H   H1970     1.0  0.46510  0.68655  0.98104  1.0000
  H   H1971     1.0  0.51072  0.80242  0.83025  1.0000
  H   H1972     1.0  0.54487  0.77282  0.83171  1.0000
  C   C1175     1.0  0.42536  0.66172  0.98324  1.0000
  C   C1176     1.0  0.55779  0.81608  0.84361  1.0000
  C   C1177     1.0  0.52646  0.93613  0.82015  1.0000
  H   H1973     1.0  0.59567  0.93146  0.76524  1.0000
  H   H1974     1.0  0.36281  0.78708  0.78100  1.0000
  H   H1975     1.0  0.36800  0.66908  0.94458  1.0000
  N   N84       1.0  0.55834  0.79312  0.84439  1.0000
  H   H1976     1.0  0.44140  0.72865  0.97477  1.0000
  C   C1178     1.0  0.58775  0.79152  0.81912  1.0000
  S   S343      1.0  0.63664  0.92506  0.80670  1.0000
  H   H1977     1.0  0.51686  0.80617  0.85039  1.0000
  H   H1978     1.0  0.65219  0.56681  0.91344  1.0000
  C   C1179     1.0  0.55370  0.78405  0.86277  1.0000
  H   H1979     1.0  0.56583  0.75103  0.86187  1.0000
  C   C1180     1.0  0.43542  0.97283  0.82469  1.0000
  H   H1980     1.0  0.63506  0.73501  0.98587  1.0000
  H   H1981     1.0  0.61006  0.94691  0.74876  1.0000
  H   H1982     1.0  0.56634  0.78553  0.87015  1.0000
  H   H1983     1.0  0.35442  0.63428  0.98460  1.0000
  H   H1984     1.0  0.64951  0.96514  0.80244  1.0000
  H   H1985     1.0  0.36786  0.81216  0.77079  1.0000
  H   H1986     1.0  0.59112  0.78392  0.84589  1.0000
  H   H1987     1.0  0.48027  0.92290  0.83943  1.0000
  H   H1988     1.0  0.50021  0.88743  0.78695  1.0000
  H   H1989     1.0  0.47778  0.64836  0.97280  1.0000
  H   H1990     1.0  0.41107  0.97912  0.74254  1.0000
  S   S344      1.0  0.59063  0.87656  0.76173  1.0000
  H   H1991     1.0  0.48116  0.92243  0.78389  1.0000
  H   H1992     1.0  0.41679  0.78406  0.79551  1.0000
  H   H1993     1.0  0.62969  0.75050  0.86286  1.0000
  C   C1181     1.0  0.61946  0.71386  0.97602  1.0000
  C   C1182     1.0  0.34385  0.59922  0.89854  1.0000
  H   H1994     1.0  0.42156  0.92845  0.80350  1.0000
  C   C1183     1.0  0.51958  0.79513  0.84091  1.0000
  C   C1184     1.0  0.44148  0.61973  0.97118  1.0000
  H   H1995     1.0  0.50937  0.97523  0.85401  1.0000
  H   H1996     1.0  0.54291  0.82320  0.85018  1.0000
  H   H1997     1.0  0.46960  0.94437  0.80495  1.0000
  H   H1998     1.0  0.58231  0.96886  0.83972  1.0000
  H   H1999     1.0  0.36906  0.57904  0.96954  1.0000
  C   C1185     1.0  0.42678  0.72278  0.97850  1.0000
  C   C1186     1.0  0.60704  0.69815  0.98011  1.0000
  H   H2000     1.0  0.35326  0.82251  0.84658  1.0000
  H   H2001     1.0  0.37777  0.64539  0.95588  1.0000
  H   H2002     1.0  0.37630  0.83722  0.82330  1.0000
  H   H2003     1.0  0.47824  0.68310  0.96028  1.0000
  C   C1187     1.0  0.35467  0.58860  0.96567  1.0000
  C   C1188     1.0  0.48588  0.94524  0.80667  1.0000
  H   H2004     1.0  0.33482  0.65812  0.94358  1.0000
  H   H2005     1.0  0.34343  0.80756  0.83361  1.0000
  H   H2006     1.0  0.36993  0.80142  0.83848  1.0000
  C   C1189     1.0  0.35735  0.80387  0.78045  1.0000
  H   H2007     1.0  0.58948  0.80797  0.81794  1.0000
  C   C1190     1.0  0.36424  0.82925  0.81963  1.0000
  C   C1191     1.0  0.55122  0.76096  0.86584  1.0000
  H   H2008     1.0  0.45536  0.61725  0.96157  1.0000
  H   H2009     1.0  0.45077  0.68932  0.96297  1.0000
  H   H2010     1.0  0.39074  0.84451  0.79466  1.0000
  H   H2011     1.0  0.40039  0.80940  0.81449  1.0000
  H   H2012     1.0  0.38519  0.78972  0.81418  1.0000
  C   C1192     1.0  0.32739  0.63048  0.97150  1.0000
  H   H2013     1.0  0.48479  0.94880  0.81988  1.0000
  H   H2014     1.0  0.51350  0.93908  0.83032  1.0000
  H   H2015     1.0  0.47436  0.90712  0.81348  1.0000
  H   H2016     1.0  0.39003  0.97130  0.75743  1.0000
  H   H2017     1.0  0.36967  0.60851  0.94545  1.0000
  C   C1193     1.0  0.62787  0.86134  0.74389  1.0000
  C   C1194     1.0  0.36325  0.65578  0.95365  1.0000
  C   C1195     1.0  0.36131  0.85487  0.78520  1.0000
  H   H2018     1.0  0.35589  0.86462  0.79558  1.0000
  H   H2019     1.0  0.60350  0.78319  0.81568  1.0000
  H   H2020     1.0  0.49942  0.89275  0.81371  1.0000
  H   H2021     1.0  0.50546  0.90660  0.83900  1.0000
  C   C1196     1.0  0.54258  0.78934  0.83372  1.0000
  S   S345      1.0  0.63370  0.87029  0.79525  1.0000
  H   H2022     1.0  0.41623  0.96454  0.78946  1.0000
  C   C1197     1.0  0.40491  0.79674  0.79095  1.0000
  H   H2023     1.0  0.38644  0.83194  0.77801  1.0000
  H   H2024     1.0  0.62982  0.92074  0.77115  1.0000
  C   C1198     1.0  0.34440  0.51782  0.95975  1.0000
  H   H2025     1.0  0.52988  0.90889  0.80757  1.0000
  H   H2026     1.0  0.53928  0.92652  0.82651  1.0000
  H   H2027     1.0  0.54484  0.79810  0.82072  1.0000
  H   H2028     1.0  0.32513  0.48298  0.96678  1.0000
  H   H2029     1.0  0.39687  0.79055  0.78210  1.0000
  H   H2030     1.0  0.63561  0.77257  0.83511  1.0000
  H   H2031     1.0  0.42930  0.63031  0.96492  1.0000
  C   C1199     1.0  0.35959  0.61023  0.95778  1.0000
  C   C1200     1.0  0.62735  0.91713  0.75858  1.0000
  C   C1201     1.0  0.42739  0.97733  0.80909  1.0000
  H   H2032     1.0  0.60056  0.92433  0.74421  1.0000
  H   H2033     1.0  0.35976  0.50872  0.96145  1.0000
  H   H2034     1.0  0.42245  0.66234  0.96984  1.0000
  H   H2035     1.0  0.35590  0.64307  0.93250  1.0000
  H   H2036     1.0  0.35566  0.66224  0.96541  1.0000
  C   C1202     1.0  0.46400  0.68039  0.96911  1.0000
  H   H2037     1.0  0.48334  0.97842  0.79965  1.0000
  H   H2038     1.0  0.65159  0.54503  0.88463  1.0000
  H   H2039     1.0  0.63608  0.96096  0.76006  1.0000
  H   H2040     1.0  0.35406  0.48221  0.98150  1.0000
  H   H2041     1.0  0.65351  0.51918  0.89498  1.0000
  C   C1203     1.0  0.65119  0.95083  0.75861  1.0000
  H   H2042     1.0  0.46665  0.84540  0.73718  1.0000
  H   H2043     1.0  0.33972  0.52858  0.98414  1.0000
  H   H2044     1.0  0.65378  0.59338  0.90643  1.0000
  C   C1204     1.0  0.65432  0.57815  0.90199  1.0000
  N   N85       1.0  0.44647  0.65032  0.98620  1.0000
  C   C1205     1.0  0.67656  0.12460  0.13239  1.0000
  H   H2045     1.0  0.70598  0.10770  0.18216  1.0000
  C   C1206     1.0  0.89846  0.47880  0.17020  1.0000
  H   H2046     1.0  0.78033  0.28488  0.12770  1.0000
  C   C1207     1.0  0.89370  0.46684  0.15870  1.0000
  H   H2047     1.0  0.66153  0.11848  0.17965  1.0000
  H   H2048     1.0  0.81275  0.30121  0.08662  1.0000
  H   H2049     1.0  0.92726  0.47726  0.13483  1.0000
  C   C1208     1.0  0.80466  0.46189  0.99130  1.0000
  H   H2050     1.0  0.93267  0.46443  0.11588  1.0000
  H   H2051     1.0  0.70493  0.13926  0.12486  1.0000
  H   H2052     1.0  0.71831  0.08928  0.16785  1.0000
  H   H2053     1.0  0.96506  0.37539  0.07144  1.0000
  H   H2054     1.0  0.79209  0.47370  0.98674  1.0000
  C   C1209     1.0  0.96067  0.46919  0.12620  1.0000
  H   H2055     1.0  0.76702  0.28454  0.15796  1.0000
  Fe  Fe175     1.0  0.74969  0.38955  0.05755  1.0000
  S   S346      1.0  0.78399  0.38746  0.05089  1.0000
  S   S347      1.0  0.73212  0.42190  0.05455  1.0000
  Fe  Fe176     1.0  0.75116  0.34235  0.06545  1.0000
  S   S348      1.0  0.78614  0.33770  0.05986  1.0000
  S   S349      1.0  0.73842  0.31147  0.07298  1.0000
  Fe  Fe177     1.0  0.78576  0.36448  0.07436  1.0000
  S   S350      1.0  0.80326  0.37202  0.09477  1.0000
  Fe  Fe178     1.0  0.78101  0.36131  0.03704  1.0000
  S   S351      1.0  0.79878  0.35769  0.01093  1.0000
  S   S352      1.0  0.75113  0.36757  0.08174  1.0000
  S   S353      1.0  0.74633  0.36482  0.04194  1.0000
  H   H2056     1.0  0.95460  0.35868  0.10922  1.0000
  Fe  Fe179     1.0  0.94683  0.36993  0.14314  1.0000
  S   S354      1.0  0.93375  0.38595  0.16594  1.0000
  Fe  Fe180     1.0  0.90443  0.35733  0.13925  1.0000
  S   S355      1.0  0.88829  0.37180  0.16227  1.0000
  S   S356      1.0  0.89025  0.33992  0.12233  1.0000
  Fe  Fe181     1.0  0.90650  0.39775  0.15150  1.0000
  S   S357      1.0  0.89241  0.43085  0.14677  1.0000
  Fe  Fe182     1.0  0.91699  0.35853  0.17467  1.0000
  S   S358      1.0  0.92022  0.33935  0.20025  1.0000
  S   S359      1.0  0.92100  0.38411  0.12779  1.0000
  S   S360      1.0  0.93173  0.34172  0.15252  1.0000
  H   H2057     1.0  0.96569  0.33232  0.18737  1.0000
  H   H2058     1.0  0.80077  0.45341  0.05156  1.0000
  H   H2059     1.0  0.93721  0.43639  0.13763  1.0000
  C   C1210     1.0  0.89647  0.44539  0.16224  1.0000
  C   C1211     1.0  0.90326  0.43589  0.17766  1.0000
  C   C1212     1.0  0.90786  0.44791  0.18930  1.0000
  H   H2060     1.0  0.84488  0.42903  0.11307  1.0000
  H   H2061     1.0  0.90138  0.34498  0.07563  1.0000
  H   H2062     1.0  0.90495  0.41932  0.18063  1.0000
  C   C1213     1.0  0.97531  0.34429  0.18844  1.0000
  C   C1214     1.0  0.90553  0.37089  0.21987  1.0000
  C   C1215     1.0  0.91564  0.35075  0.21926  1.0000
  C   C1216     1.0  0.72405  0.32612  0.00586  1.0000
  H   H2063     1.0  0.71319  0.32841  0.99609  1.0000
  H   H2064     1.0  0.89995  0.37972  0.20854  1.0000
  H   H2065     1.0  0.86705  0.44177  0.11175  1.0000
  C   C1217     1.0  0.74219  0.44061  0.06334  1.0000
  C   C1218     1.0  0.75880  0.43498  0.07290  1.0000
  C   C1219     1.0  0.76675  0.45002  0.07970  1.0000
  H   H2066     1.0  0.97021  0.46808  0.11358  1.0000
  H   H2067     1.0  0.75328  0.28387  0.02570  1.0000
  C   C1220     1.0  0.73369  0.46149  0.06053  1.0000
  H   H2068     1.0  0.76529  0.41894  0.07539  1.0000
  H   H2069     1.0  0.77932  0.44539  0.08739  1.0000
  H   H2070     1.0  0.79396  0.29907  0.13832  1.0000
  H   H2071     1.0  0.67993  0.05164  0.23244  1.0000
  C   C1221     1.0  0.82817  0.36339  0.10120  1.0000
  C   C1222     1.0  0.83487  0.37393  0.11294  1.0000
  C   C1223     1.0  0.85397  0.36712  0.11928  1.0000
  C   C1224     1.0  0.86647  0.34947  0.11412  1.0000
  C   C1225     1.0  0.85983  0.33892  0.10233  1.0000
  C   C1226     1.0  0.84081  0.34591  0.09580  1.0000
  H   H2072     1.0  0.82512  0.38738  0.11729  1.0000
  H   H2073     1.0  0.85883  0.37534  0.12839  1.0000
  H   H2074     1.0  0.86936  0.32520  0.09831  1.0000
  H   H2075     1.0  0.83582  0.33762  0.08681  1.0000
  C   C1227     1.0  0.74293  0.29519  0.99466  1.0000
  H   H2076     1.0  0.75617  0.37472  0.00697  1.0000
  H   H2077     1.0  0.77376  0.30901  0.03095  1.0000
  H   H2078     1.0  0.68226  0.09161  0.11372  1.0000
  H   H2079     1.0  0.73759  0.30318  0.03652  1.0000
  C   C1228     1.0  0.68064  0.28595  0.06239  1.0000
  C   C1229     1.0  0.68123  0.30736  0.06015  1.0000
  C   C1230     1.0  0.69874  0.31545  0.06320  1.0000
  C   C1231     1.0  0.71590  0.30224  0.06872  1.0000
  C   C1232     1.0  0.71531  0.28085  0.07099  1.0000
  C   C1233     1.0  0.69789  0.27274  0.06777  1.0000
  H   H2080     1.0  0.66798  0.31776  0.05605  1.0000
  H   H2081     1.0  0.69879  0.33193  0.06154  1.0000
  H   H2082     1.0  0.72845  0.27043  0.07527  1.0000
  H   H2083     1.0  0.69773  0.25627  0.06955  1.0000
  C   C1234     1.0  0.84013  0.47612  0.14073  1.0000
  C   C1235     1.0  0.70362  0.09916  0.17180  1.0000
  H   H2084     1.0  0.77439  0.31050  0.00843  1.0000
  H   H2085     1.0  0.75848  0.32995  0.02014  1.0000
  H   H2086     1.0  0.70357  0.11844  0.11278  1.0000
  H   H2087     1.0  0.80533  0.34170  0.12886  1.0000
  H   H2088     1.0  0.79212  0.32967  0.14842  1.0000
  H   H2089     1.0  0.66505  0.12032  0.12519  1.0000
  H   H2090     1.0  0.76930  0.46784  0.03983  1.0000
  H   H2091     1.0  0.93737  0.31166  0.10378  1.0000
  H   H2092     1.0  0.78621  0.29751  0.08958  1.0000
  C   C1236     1.0  0.96095  0.35518  0.09612  1.0000
  C   C1237     1.0  0.92897  0.34972  0.08555  1.0000
  H   H2093     1.0  0.74540  0.47248  0.01813  1.0000
  H   H2094     1.0  0.69984  0.29801  0.00996  1.0000
  H   H2095     1.0  0.75036  0.27897  0.99750  1.0000
  C   C1238     1.0  0.96357  0.31389  0.11599  1.0000
  C   C1239     1.0  0.69346  0.08847  0.13891  1.0000
  H   H2096     1.0  0.82510  0.47054  0.14590  1.0000
  H   H2097     1.0  0.82701  0.42146  0.03571  1.0000
  H   H2098     1.0  0.70940  0.09071  0.13284  1.0000
  C   C1240     1.0  0.85102  0.44122  0.11819  1.0000
  H   H2099     1.0  0.70660  0.29707  0.03049  1.0000
  C   C1241     1.0  0.96272  0.32764  0.07771  1.0000
  H   H2100     1.0  0.80363  0.28418  0.10453  1.0000
  C   C1242     1.0  0.71691  0.26911  0.01961  1.0000
  H   H2101     1.0  0.88862  0.47426  0.14678  1.0000
  C   C1243     1.0  0.92273  0.33938  0.23404  1.0000
  H   H2102     1.0  0.69119  0.06587  0.12232  1.0000
  H   H2103     1.0  0.95617  0.31360  0.07626  1.0000
  C   C1244     1.0  0.94484  0.32435  0.10677  1.0000
  H   H2104     1.0  0.97332  0.41300  0.11704  1.0000
  H   H2105     1.0  0.97761  0.34894  0.09672  1.0000
  H   H2106     1.0  0.66657  0.07813  0.13083  1.0000
  H   H2107     1.0  0.74733  0.29525  0.14489  1.0000
  C   C1245     1.0  0.95674  0.38812  0.21110  1.0000
  H   H2108     1.0  0.69205  0.08898  0.17765  1.0000
  H   H2109     1.0  0.75942  0.31173  0.15557  1.0000
  C   C1246     1.0  0.68257  0.08083  0.12572  1.0000
  N   N86       1.0  0.79787  0.45790  0.02449  1.0000
  H   H2110     1.0  0.94001  0.45950  0.15768  1.0000
  N   N87       1.0  0.96506  0.44990  0.13850  1.0000
  S   S361      1.0  0.66172  0.06489  0.20151  1.0000
  C   C1247     1.0  0.90249  0.37955  0.23525  1.0000
  H   H2111     1.0  0.97805  0.43173  0.17102  1.0000
  H   H2112     1.0  0.95258  0.42456  0.17083  1.0000
  H   H2113     1.0  0.94740  0.37545  0.21279  1.0000
  C   C1248     1.0  0.81902  0.42157  0.02440  1.0000
  H   H2114     1.0  0.97102  0.38525  0.08946  1.0000
  H   H2115     1.0  0.75629  0.30361  0.98951  1.0000
  H   H2116     1.0  0.82906  0.42629  0.01254  1.0000
  C   C1249     1.0  0.71264  0.33760  0.02073  1.0000
  H   H2117     1.0  0.93049  0.32377  0.23363  1.0000
  H   H2118     1.0  0.95574  0.44366  0.18328  1.0000
  H   H2119     1.0  0.81685  0.40537  0.02399  1.0000
  H   H2120     1.0  0.95809  0.41865  0.14392  1.0000
  C   C1250     1.0  0.93787  0.47550  0.12290  1.0000
  C   C1251     1.0  0.96029  0.42594  0.11701  1.0000
  H   H2121     1.0  0.78864  0.42960  0.03812  1.0000
  H   H2122     1.0  0.97811  0.32133  0.08187  1.0000
  C   C1252     1.0  0.74196  0.47665  0.06706  1.0000
  H   H2123     1.0  0.68784  0.14276  0.10904  1.0000
  H   H2124     1.0  0.96473  0.43842  0.10703  1.0000
  C   C1253     1.0  0.91579  0.33553  0.07961  1.0000
  H   H2125     1.0  0.92393  0.32811  0.06846  1.0000
  H   H2126     1.0  0.75839  0.33992  0.13636  1.0000
  C   C1254     1.0  0.79926  0.29889  0.09648  1.0000
  C   C1255     1.0  0.78395  0.35933  0.99400  1.0000
  H   H2127     1.0  0.96217  0.34444  0.21443  1.0000
  C   C1256     1.0  0.81030  0.46632  0.00832  1.0000
  C   C1257     1.0  0.76407  0.31327  0.02037  1.0000
  H   H2128     1.0  0.94668  0.42076  0.11308  1.0000
  H   H2129     1.0  0.72074  0.46594  0.05324  1.0000
  H   H2130     1.0  0.77094  0.35113  0.11696  1.0000
  H   H2131     1.0  0.72382  0.32320  0.11102  1.0000
  H   H2132     1.0  0.91348  0.44058  0.20109  1.0000
  H   H2133     1.0  0.86886  0.47113  0.09019  1.0000
  H   H2134     1.0  0.87568  0.47003  0.12104  1.0000
  C   C1258     1.0  0.80790  0.46156  0.03942  1.0000
  C   C1259     1.0  0.69661  0.11464  0.15657  1.0000
  N   N88       1.0  0.68236  0.10752  0.14627  1.0000
  S   S362      1.0  0.67349  0.19552  0.01607  1.0000
  C   C1260     1.0  0.95707  0.45488  0.15632  1.0000
  H   H2135     1.0  0.68997  0.12970  0.16113  1.0000
  C   C1261     1.0  0.73576  0.32731  0.11791  1.0000
  C   C1262     1.0  0.79030  0.34129  0.13706  1.0000
  C   C1263     1.0  0.76204  0.29800  0.14870  1.0000
  H   H2136     1.0  0.82725  0.46141  0.00850  1.0000
  H   H2137     1.0  0.73489  0.34433  0.11548  1.0000
  C   C1264     1.0  0.75853  0.47090  0.07671  1.0000
  H   H2138     1.0  0.85218  0.46349  0.14519  1.0000
  H   H2139     1.0  0.71119  0.11800  0.14843  1.0000
  H   H2140     1.0  0.69574  0.07538  0.14925  1.0000
  H   H2141     1.0  0.75573  0.30038  0.10993  1.0000
  C   C1265     1.0  0.77596  0.46904  0.02621  1.0000
  C   C1266     1.0  0.83678  0.46187  0.11479  1.0000
  H   H2142     1.0  0.73138  0.32274  0.13165  1.0000
  C   C1267     1.0  0.96133  0.43746  0.17097  1.0000
  H   H2143     1.0  0.78627  0.35660  0.14171  1.0000
  H   H2144     1.0  0.79356  0.33155  0.09750  1.0000
  C   C1268     1.0  0.71295  0.29282  0.01761  1.0000
  C   C1269     1.0  0.69451  0.13136  0.11917  1.0000
  H   H2145     1.0  0.75608  0.44634  0.02334  1.0000
  H   H2146     1.0  0.97949  0.39028  0.15939  1.0000
  H   H2147     1.0  0.94982  0.39960  0.20117  1.0000
  H   H2148     1.0  0.94456  0.38551  0.08703  1.0000
  H   H2149     1.0  0.76513  0.46085  0.00336  1.0000
  C   C1270     1.0  0.74607  0.30026  0.02384  1.0000
  C   C1271     1.0  0.95439  0.43280  0.13496  1.0000
  H   H2150     1.0  0.75972  0.32403  0.09738  1.0000
  H   H2151     1.0  0.93079  0.36234  0.07496  1.0000
  C   C1272     1.0  0.75727  0.31667  0.11083  1.0000
  C   C1273     1.0  0.79761  0.43503  0.02578  1.0000
  N   N89       1.0  0.73147  0.30360  0.01048  1.0000
  H   H2152     1.0  0.66524  0.08717  0.16515  1.0000
  C   C1274     1.0  0.90588  0.46936  0.18537  1.0000
  C   C1275     1.0  0.77898  0.29950  0.13331  1.0000
  H   H2153     1.0  0.72924  0.26277  0.02777  1.0000
  H   H2154     1.0  0.89449  0.39507  0.23572  1.0000
  H   H2155     1.0  0.78928  0.43095  0.01597  1.0000
  N   N90       1.0  0.94949  0.33947  0.09108  1.0000
  H   H2156     1.0  0.80889  0.31721  0.11288  1.0000
  H   H2157     1.0  0.85149  0.43624  0.13201  1.0000
  C   C1276     1.0  0.96750  0.33952  0.05983  1.0000
  H   H2158     1.0  0.97501  0.30417  0.10789  1.0000
  C   C1277     1.0  0.76005  0.46155  0.01706  1.0000
  N   N91       1.0  0.77558  0.31782  0.11994  1.0000
  C   C1278     1.0  0.79468  0.31737  0.10688  1.0000
  C   C1279     1.0  0.77280  0.33795  0.12730  1.0000
  H   H2159     1.0  0.98174  0.34682  0.05894  1.0000
  H   H2160     1.0  0.69742  0.33235  0.02548  1.0000
  H   H2161     1.0  0.91070  0.32370  0.09001  1.0000
  C   C1280     1.0  0.65849  0.19056  0.00093  1.0000
  H   H2162     1.0  0.70957  0.35431  0.01612  1.0000
  C   C1281     1.0  0.76310  0.36798  0.99564  1.0000
  H   H2163     1.0  0.97006  0.32858  0.05019  1.0000
  C   C1282     1.0  0.96022  0.37640  0.08514  1.0000
  H   H2164     1.0  0.91935  0.35747  0.09611  1.0000
  H   H2165     1.0  0.66869  0.13871  0.13789  1.0000
  H   H2166     1.0  0.77544  0.41903  0.98775  1.0000
  H   H2167     1.0  0.72190  0.33595  0.03146  1.0000
  H   H2168     1.0  0.70251  0.26311  0.02603  1.0000
  H   H2169     1.0  0.95464  0.35125  0.05587  1.0000
  H   H2170     1.0  0.93358  0.33210  0.11645  1.0000
  H   H2171     1.0  0.72068  0.26317  0.00708  1.0000
  S   S363      1.0  0.65824  0.27675  0.05789  1.0000
  H   H2172     1.0  0.82463  0.45513  0.03812  1.0000
  H   H2173     1.0  0.96348  0.46841  0.15903  1.0000
  H   H2174     1.0  0.96699  0.35920  0.18324  1.0000
  S   S364      1.0  0.66779  0.21312  0.06331  1.0000
  H   H2175     1.0  0.82091  0.45893  0.12055  1.0000
  H   H2176     1.0  0.80038  0.44639  0.99172  1.0000
  H   H2177     1.0  0.83600  0.46520  0.10082  1.0000
  H   H2178     1.0  0.73715  0.33430  0.99966  1.0000
  H   H2179     1.0  0.95788  0.30353  0.12736  1.0000
  S   S365      1.0  0.98058  0.36635  0.13145  1.0000
  H   H2180     1.0  0.97132  0.32514  0.12082  1.0000
  H   H2181     1.0  0.95464  0.39519  0.22312  1.0000
  C   C1283     1.0  0.97797  0.34382  0.20737  1.0000
  H   H2182     1.0  0.98588  0.32820  0.21178  1.0000
  Fe  Fe183     1.0  0.65530  0.20670  0.04004  1.0000
  C   C1284     1.0  0.97987  0.38166  0.20505  1.0000
  H   H2183     1.0  0.98207  0.38460  0.19092  1.0000
  C   C1285     1.0  0.66269  0.10235  0.15718  1.0000
  C   C1286     1.0  0.66511  0.06081  0.23565  1.0000
  H   H2184     1.0  0.98809  0.39327  0.20894  1.0000
  N   N92       1.0  0.84258  0.47999  0.12151  1.0000
  C   C1287     1.0  0.98809  0.44289  0.13661  1.0000
  Fe  Fe184     1.0  0.81127  0.07777  0.40067  1.0000
  S   S366      1.0  0.77633  0.08442  0.40543  1.0000
  S   S367      1.0  0.82575  0.10778  0.39790  1.0000
  Fe  Fe185     1.0  0.80889  0.03101  0.40277  1.0000
  S   S368      1.0  0.77421  0.03515  0.40807  1.0000
  S   S369      1.0  0.82645  0.99892  0.40000  1.0000
  Fe  Fe186     1.0  0.77526  0.06175  0.38728  1.0000
  S   S370      1.0  0.75845  0.06510  0.36371  1.0000
  Fe  Fe187     1.0  0.77874  0.05707  0.42572  1.0000
  S   S371      1.0  0.76065  0.05835  0.45210  1.0000
  S   S372      1.0  0.81006  0.05685  0.38105  1.0000
  S   S373      1.0  0.81351  0.05131  0.42185  1.0000
  H   H2185     1.0  0.84688  0.30402  0.29637  1.0000
  H   H2186     1.0  0.80166  0.03685  0.45678  1.0000
  Fe  Fe188     1.0  0.95116  0.39042  0.31027  1.0000
  S   S374      1.0  0.95783  0.38527  0.28281  1.0000
  S   S375      1.0  0.96034  0.41908  0.31785  1.0000
  Fe  Fe189     1.0  0.93957  0.34635  0.32172  1.0000
  S   S376      1.0  0.94561  0.33813  0.29487  1.0000
  S   S377      1.0  0.92879  0.32617  0.34614  1.0000
  Fe  Fe190     1.0  0.97363  0.35428  0.29254  1.0000
  C   C1288     1.0  0.90381  0.30427  0.29734  1.0000
  Fe  Fe191     1.0  0.92919  0.37003  0.28769  1.0000
  S   S378      1.0  0.90570  0.37942  0.26907  1.0000
  S   S379      1.0  0.96893  0.36008  0.31981  1.0000
  S   S380      1.0  0.92104  0.37749  0.31471  1.0000
  Fe  Fe192     1.0  0.96131  0.18314  0.41608  1.0000
  S   S381      1.0  0.94589  0.21608  0.41462  1.0000
  H   H2187     1.0  0.84170  0.33116  0.29230  1.0000
  Fe  Fe193     1.0  0.92213  0.16692  0.40858  1.0000
  S   S382      1.0  0.90404  0.19873  0.40630  1.0000
  S   S383      1.0  0.91152  0.13578  0.40768  1.0000
  Fe  Fe194     1.0  0.93328  0.20944  0.39153  1.0000
  S   S384      1.0  0.93452  0.22839  0.36506  1.0000
  Fe  Fe195     1.0  0.91823  0.20277  0.42943  1.0000
  S   S385      1.0  0.89867  0.21285  0.45325  1.0000
  S   S386      1.0  0.95059  0.17700  0.39213  1.0000
  S   S387      1.0  0.93445  0.17049  0.43250  1.0000
  H   H2188     1.0  0.97452  0.35346  0.25583  1.0000
  H   H2189     1.0  0.78774  0.02247  0.37224  1.0000
  H   H2190     1.0  0.93655  0.14513  0.47531  1.0000
  C   C1289     1.0  0.75369  0.98920  0.34638  1.0000
  H   H2191     1.0  0.91894  0.29422  0.29818  1.0000
  C   C1290     1.0  0.91252  0.21659  0.46952  1.0000
  C   C1291     1.0  0.93375  0.21787  0.46632  1.0000
  H   H2192     1.0  0.94184  0.21696  0.45360  1.0000
  C   C1292     1.0  0.93186  0.29887  0.35115  1.0000
  C   C1293     1.0  0.92675  0.29031  0.36815  1.0000
  C   C1294     1.0  0.92798  0.26880  0.37269  1.0000
  C   C1295     1.0  0.93398  0.25555  0.36020  1.0000
  C   C1296     1.0  0.93900  0.26411  0.34316  1.0000
  C   C1297     1.0  0.93815  0.28562  0.33867  1.0000
  H   H2193     1.0  0.92179  0.30039  0.37792  1.0000
  H   H2194     1.0  0.92398  0.26250  0.38583  1.0000
  H   H2195     1.0  0.94369  0.25402  0.33339  1.0000
  H   H2196     1.0  0.94217  0.29193  0.32555  1.0000
  H   H2197     1.0  0.84775  0.36109  0.30422  1.0000
  H   H2198     1.0  0.86016  0.30376  0.32121  1.0000
  C   C1298     1.0  0.75531  0.99938  0.37507  1.0000
  H   H2199     1.0  0.80866  0.08781  0.47722  1.0000
  C   C1299     1.0  0.74010  0.98488  0.38443  1.0000
  H   H2200     1.0  0.72669  0.00150  0.33340  1.0000
  C   C1300     1.0  0.92752  0.44718  0.30675  1.0000
  C   C1301     1.0  0.94703  0.44402  0.31241  1.0000
  H   H2201     1.0  0.91070  0.32044  0.31672  1.0000
  H   H2202     1.0  0.92027  0.43409  0.30538  1.0000
  H   H2203     1.0  0.80235  0.02963  0.35235  1.0000
  H   H2204     1.0  0.73216  0.99135  0.39614  1.0000
  H   H2205     1.0  0.80207  0.08079  0.45079  1.0000
  C   C1302     1.0  0.84981  0.11505  0.40072  1.0000
  C   C1303     1.0  0.85100  0.13606  0.40086  1.0000
  C   C1304     1.0  0.86958  0.14266  0.40330  1.0000
  C   C1305     1.0  0.88738  0.12835  0.40529  1.0000
  C   C1306     1.0  0.88619  0.10736  0.40515  1.0000
  C   C1307     1.0  0.86754  0.10072  0.40294  1.0000
  H   H2206     1.0  0.83737  0.14729  0.39922  1.0000
  H   H2207     1.0  0.87011  0.15878  0.40370  1.0000
  H   H2208     1.0  0.89986  0.09613  0.40667  1.0000
  H   H2209     1.0  0.86695  0.08453  0.40280  1.0000
  H   H2210     1.0  0.66843  0.05817  0.26241  1.0000
  C   C1308     1.0  0.67478  0.10390  0.33384  1.0000
  C   C1309     1.0  0.88010  0.15798  0.34318  1.0000
  H   H2211     1.0  0.89557  0.35314  0.30235  1.0000
  H   H2212     1.0  0.86170  0.34892  0.33386  1.0000
  C   C1310     1.0  0.73348  0.05934  0.36209  1.0000
  C   C1311     1.0  0.71913  0.05512  0.37642  1.0000
  C   C1312     1.0  0.69923  0.05132  0.37439  1.0000
  C   C1313     1.0  0.69361  0.05125  0.35809  1.0000
  C   C1314     1.0  0.70818  0.05490  0.34379  1.0000
  C   C1315     1.0  0.72788  0.05921  0.34579  1.0000
  H   H2213     1.0  0.72320  0.05525  0.38903  1.0000
  H   H2214     1.0  0.68804  0.04862  0.38554  1.0000
  C   C1316     1.0  0.65861  0.06449  0.25263  1.0000
  H   H2215     1.0  0.73889  0.06246  0.33463  1.0000
  H   H2216     1.0  0.86714  0.31775  0.28589  1.0000
  C   C1317     1.0  0.77503  0.05425  0.46953  1.0000
  C   C1318     1.0  0.79518  0.04365  0.46821  1.0000
  H   H2217     1.0  0.87296  0.18205  0.37789  1.0000
  N   N93       1.0  0.90819  0.17679  0.35174  1.0000
  C   C1319     1.0  0.92969  0.18152  0.34450  1.0000
  C   C1320     1.0  0.91067  0.15949  0.36614  1.0000
  C   C1321     1.0  0.89650  0.19581  0.35883  1.0000
  C   C1322     1.0  0.89781  0.17134  0.33771  1.0000
  C   C1323     1.0  0.93097  0.19940  0.32978  1.0000
  C   C1324     1.0  0.92415  0.13941  0.36131  1.0000
  C   C1325     1.0  0.87409  0.19465  0.36723  1.0000
  H   H2218     1.0  0.93795  0.18507  0.35472  1.0000
  H   H2219     1.0  0.93933  0.16793  0.33933  1.0000
  H   H2220     1.0  0.89563  0.15520  0.37250  1.0000
  H   H2221     1.0  0.91758  0.16453  0.37645  1.0000
  H   H2222     1.0  0.90501  0.20022  0.36847  1.0000
  H   H2223     1.0  0.89535  0.20921  0.34873  1.0000
  H   H2224     1.0  0.89155  0.18558  0.32977  1.0000
  H   H2225     1.0  0.90949  0.16254  0.32893  1.0000
  H   H2226     1.0  0.92284  0.19738  0.31908  1.0000
  H   H2227     1.0  0.92516  0.21460  0.33419  1.0000
  H   H2228     1.0  0.94753  0.19989  0.32464  1.0000
  H   H2229     1.0  0.94089  0.14071  0.36028  1.0000
  H   H2230     1.0  0.92121  0.12662  0.37163  1.0000
  C   C1326     1.0  0.73676  0.00701  0.34126  1.0000
  C   C1327     1.0  0.89000  0.14938  0.46660  1.0000
  C   C1328     1.0  0.67228  0.10637  0.29724  1.0000
  H   H2231     1.0  0.86377  0.19357  0.35772  1.0000
  H   H2232     1.0  0.88590  0.14154  0.34186  1.0000
  S   S388      1.0  0.66786  0.04799  0.35618  1.0000
  H   H2233     1.0  0.70416  0.05481  0.33116  1.0000
  H   H2234     1.0  0.83613  0.15391  0.44213  1.0000
  H   H2235     1.0  0.84281  0.13594  0.46000  1.0000
  H   H2236     1.0  0.97116  0.45878  0.31868  1.0000
  H   H2237     1.0  0.88909  0.34515  0.33319  1.0000
  H   H2238     1.0  0.77102  0.10137  0.44134  1.0000
  C   C1329     1.0  0.91711  0.46736  0.30338  1.0000
  H   H2239     1.0  0.72659  0.01250  0.35249  1.0000
  H   H2240     1.0  0.80618  0.13732  0.45163  1.0000
  H   H2241     1.0  0.90323  0.46694  0.24764  1.0000
  H   H2242     1.0  0.68691  0.11271  0.32641  1.0000
  H   H2243     1.0  0.93090  0.46698  0.24673  1.0000
  C   C1330     1.0  0.95618  0.46115  0.31426  1.0000
  H   H2244     1.0  0.86483  0.37609  0.28996  1.0000
  H   H2245     1.0  0.84575  0.10338  0.47777  1.0000
  H   H2246     1.0  0.67330  0.12292  0.29316  1.0000
  H   H2247     1.0  0.86807  0.20918  0.37280  1.0000
  H   H2248     1.0  0.81810  0.12929  0.43178  1.0000
  C   C1331     1.0  0.85900  0.31960  0.31413  1.0000
  C   C1332     1.0  0.80336  0.09698  0.44548  1.0000
  H   H2249     1.0  0.84049  0.06780  0.46993  1.0000
  H   H2250     1.0  0.78472  0.99345  0.41563  1.0000
  H   H2251     1.0  0.89574  0.30018  0.32418  1.0000
  C   C1333     1.0  0.82945  0.10696  0.48333  1.0000
  H   H2252     1.0  0.67980  0.08756  0.33160  1.0000
  H   H2253     1.0  0.66394  0.14019  0.31543  1.0000
  H   H2254     1.0  0.95296  0.17409  0.48199  1.0000
  H   H2255     1.0  0.87174  0.15916  0.35611  1.0000
  H   H2256     1.0  0.92068  0.13490  0.34935  1.0000
  Fe  Fe196     1.0  0.65630  0.04145  0.33229  1.0000
  H   H2257     1.0  0.95774  0.36437  0.24043  1.0000
  C   C1334     1.0  0.77850  0.01128  0.35017  1.0000
  H   H2258     1.0  0.66772  0.09257  0.36115  1.0000
  C   C1335     1.0  0.89727  0.31359  0.31418  1.0000
  H   H2259     1.0  0.83219  0.06094  0.45110  1.0000
  H   H2260     1.0  0.74346  0.02003  0.33321  1.0000
  H   H2261     1.0  0.74625  0.01501  0.37293  1.0000
  H   H2262     1.0  0.68724  0.09827  0.30115  1.0000
  H   H2263     1.0  0.84499  0.32851  0.32059  1.0000
  H   H2264     1.0  0.88446  0.13851  0.45955  1.0000
  N   N94       1.0  0.87796  0.32925  0.31519  1.0000
  C   C1336     1.0  0.92007  0.34819  0.24931  1.0000
  C   C1337     1.0  0.88086  0.34730  0.30161  1.0000
  C   C1338     1.0  0.86339  0.36580  0.30225  1.0000
  H   H2265     1.0  0.76588  0.00066  0.38438  1.0000
  H   H2266     1.0  0.88796  0.31017  0.34958  1.0000
  H   H2267     1.0  0.88283  0.34301  0.28854  1.0000
  H   H2268     1.0  0.76735  0.02563  0.34817  1.0000
  C   C1339     1.0  0.91566  0.46967  0.25463  1.0000
  H   H2269     1.0  0.75886  0.00564  0.48534  1.0000
  H   H2270     1.0  0.86486  0.37519  0.31232  1.0000
  H   H2271     1.0  0.80783  0.09675  0.43153  1.0000
  H   H2272     1.0  0.80741  0.00386  0.36259  1.0000
  H   H2273     1.0  0.87032  0.32902  0.35976  1.0000
  H   H2274     1.0  0.90630  0.31603  0.28615  1.0000
  H   H2275     1.0  0.89271  0.29421  0.29532  1.0000
  H   H2276     1.0  0.78021  0.12498  0.44199  1.0000
  H   H2277     1.0  0.90168  0.15703  0.45760  1.0000
  S   S389      1.0  0.67309  0.04590  0.30570  1.0000
  C   C1340     1.0  0.92689  0.15758  0.48210  1.0000
  H   H2278     1.0  0.66216  0.15088  0.34186  1.0000
  C   C1341     1.0  0.87568  0.33717  0.33227  1.0000
  H   H2279     1.0  0.79921  0.11403  0.47556  1.0000
  H   H2280     1.0  0.92570  0.33937  0.26060  1.0000
  Fe  Fe197     1.0  0.66505  0.01473  0.30409  1.0000
  H   H2281     1.0  0.77440  0.10771  0.46149  1.0000
  C   C1342     1.0  0.79490  0.01681  0.36006  1.0000
  C   C1343     1.0  0.78113  0.10871  0.44789  1.0000
  N   N95       1.0  0.76749  0.99339  0.35858  1.0000
  S   S390      1.0  0.68656  0.99060  0.29112  1.0000
  H   H2282     1.0  0.86040  0.31226  0.34838  1.0000
  H   H2283     1.0  0.68952  0.98666  0.34262  1.0000
  C   C1344     1.0  0.67639  0.10416  0.35289  1.0000
  H   H2284     1.0  0.96085  0.22195  0.47693  1.0000
  N   N96       1.0  0.81954  0.10510  0.45320  1.0000
  H   H2285     1.0  0.69288  0.09964  0.35506  1.0000
  C   C1345     1.0  0.84011  0.09250  0.44807  1.0000
  C   C1346     1.0  0.81973  0.12736  0.44566  1.0000
  C   C1347     1.0  0.81345  0.10315  0.47226  1.0000
  H   H2286     1.0  0.91608  0.45774  0.26596  1.0000
  C   C1348     1.0  0.84268  0.06968  0.45579  1.0000
  C   C1349     1.0  0.83908  0.13722  0.44684  1.0000
  C   C1350     1.0  0.97158  0.35302  0.24257  1.0000
  H   H2287     1.0  0.65992  0.01897  0.24831  1.0000
  C   C1351     1.0  0.87346  0.32097  0.34820  1.0000
  H   H2288     1.0  0.85334  0.09883  0.45138  1.0000
  H   H2289     1.0  0.84299  0.09296  0.43395  1.0000
  C   C1352     1.0  0.85384  0.31829  0.29605  1.0000
  H   H2290     1.0  0.86828  0.16267  0.33424  1.0000
  C   C1353     1.0  0.90994  0.36830  0.24994  1.0000
  H   H2291     1.0  0.78638  0.00834  0.33724  1.0000
  C   C1354     1.0  0.80716  0.04215  0.48157  1.0000
  H   H2292     1.0  0.85277  0.13076  0.43844  1.0000
  H   H2293     1.0  0.67135  0.11943  0.35718  1.0000
  H   H2294     1.0  0.92207  0.17001  0.47189  1.0000
  H   H2295     1.0  0.85871  0.06243  0.45172  1.0000
  H   H2296     1.0  0.87653  0.16099  0.47011  1.0000
  C   C1355     1.0  0.94451  0.22062  0.47956  1.0000
  H   H2297     1.0  0.90182  0.46968  0.29941  1.0000
  H   H2298     1.0  0.82298  0.03448  0.48021  1.0000
  H   H2299     1.0  0.66994  0.09976  0.28577  1.0000
  H   H2300     1.0  0.72782  0.98360  0.37672  1.0000
  H   H2301     1.0  0.96825  0.33724  0.24211  1.0000
  H   H2302     1.0  0.76323  0.98488  0.33437  1.0000
  H   H2303     1.0  0.91098  0.12454  0.47814  1.0000
  C   C1356     1.0  0.76648  0.06221  0.48479  1.0000
  H   H2304     1.0  0.68552  0.98583  0.36522  1.0000
  C   C1357     1.0  0.89908  0.13728  0.48248  1.0000
  H   H2305     1.0  0.75080  0.07027  0.48594  1.0000
  H   H2306     1.0  0.82649  0.12310  0.48630  1.0000
  C   C1358     1.0  0.90218  0.21788  0.48606  1.0000
  Fe  Fe198     1.0  0.77521  0.05968  0.57222  1.0000
  S   S391      1.0  0.79903  0.04465  0.58923  1.0000
  S   S392      1.0  0.74155  0.07151  0.58166  1.0000
  Fe  Fe199     1.0  0.80499  0.05188  0.53986  1.0000
  S   S393      1.0  0.83054  0.03594  0.55489  1.0000
  S   S394      1.0  0.81568  0.05095  0.51173  1.0000
  Fe  Fe200     1.0  0.80581  0.02026  0.57150  1.0000
  C   C1359     1.0  0.72606  0.10019  0.67922  1.0000
  Fe  Fe201     1.0  0.82180  0.06206  0.57087  1.0000
  S   S395      1.0  0.84790  0.07458  0.58071  1.0000
  S   S396      1.0  0.78082  0.03436  0.55547  1.0000
  S   S397      1.0  0.79743  0.07896  0.55488  1.0000
  H   H2307     1.0  0.75279  0.04210  0.61108  1.0000
  H   H2308     1.0  0.91813  0.27249  0.56362  1.0000
  H   H2309     1.0  0.94400  0.21656  0.62585  1.0000
  Fe  Fe202     1.0  0.93485  0.33676  0.66972  1.0000
  S   S398      1.0  0.93078  0.35060  0.64261  1.0000
  S   S399      1.0  0.91075  0.33642  0.69299  1.0000
  Fe  Fe203     1.0  0.95219  0.32221  0.63511  1.0000
  S   S400      1.0  0.95315  0.30645  0.61131  1.0000
  Fe  Fe204     1.0  0.95964  0.36436  0.64359  1.0000
  H   H2310     1.0  0.93293  0.19620  0.65310  1.0000
  S   S401      1.0  0.95390  0.30732  0.66217  1.0000
  S   S402      1.0  0.96183  0.35265  0.67106  1.0000
  Fe  Fe205     1.0  0.91726  0.17228  0.55900  1.0000
  S   S403      1.0  0.90903  0.20699  0.55461  1.0000
  S   S404      1.0  0.89213  0.15492  0.55278  1.0000
  Fe  Fe206     1.0  0.96220  0.17656  0.56417  1.0000
  S   S405      1.0  0.95658  0.21097  0.55975  1.0000
  H   H2311     1.0  0.88547  0.12753  0.52141  1.0000
  Fe  Fe207     1.0  0.92671  0.20804  0.57655  1.0000
  S   S406      1.0  0.91655  0.22704  0.59876  1.0000
  Fe  Fe208     1.0  0.93986  0.20658  0.53835  1.0000
  S   S407      1.0  0.94815  0.22441  0.51260  1.0000
  S   S408      1.0  0.93276  0.17337  0.58226  1.0000
  S   S409      1.0  0.94747  0.17224  0.54146  1.0000
  H   H2312     1.0  0.90376  0.30680  0.52354  1.0000
  C   C1360     1.0  0.97817  0.33793  0.71358  1.0000
  H   H2313     1.0  0.88247  0.25154  0.55649  1.0000
  H   H2314     1.0  0.69677  0.09535  0.63640  1.0000
  H   H2315     1.0  0.90516  0.21983  0.51229  1.0000
  C   C1361     1.0  0.70238  0.10435  0.68486  1.0000
  H   H2316     1.0  0.88655  0.37241  0.64795  1.0000
  S   S410      1.0  0.80730  0.98637  0.58198  1.0000
  H   H2317     1.0  0.89741  0.42346  0.70437  1.0000
  H   H2318     1.0  0.75511  0.00965  0.53367  1.0000
  C   C1362     1.0  0.94298  0.28410  0.60846  1.0000
  C   C1363     1.0  0.92851  0.27506  0.62067  1.0000
  C   C1364     1.0  0.92039  0.25774  0.61745  1.0000
  C   C1365     1.0  0.92689  0.24908  0.60216  1.0000
  C   C1366     1.0  0.94165  0.25789  0.59014  1.0000
  C   C1367     1.0  0.94948  0.27540  0.59319  1.0000
  H   H2319     1.0  0.92331  0.28161  0.63245  1.0000
  H   H2320     1.0  0.90900  0.25102  0.62688  1.0000
  H   H2321     1.0  0.94720  0.25103  0.57859  1.0000
  H   H2322     1.0  0.96081  0.28216  0.58373  1.0000
  H   H2323     1.0  0.92929  0.37310  0.69341  1.0000
  C   C1368     1.0  0.96211  0.41766  0.64246  1.0000
  C   C1369     1.0  0.95486  0.41602  0.65987  1.0000
  C   C1370     1.0  0.94929  0.43387  0.66805  1.0000
  C   C1371     1.0  0.95127  0.45343  0.65898  1.0000
  C   C1372     1.0  0.95975  0.45495  0.64182  1.0000
  C   C1373     1.0  0.96506  0.43711  0.63358  1.0000
  H   H2324     1.0  0.95297  0.40107  0.66689  1.0000
  H   H2325     1.0  0.94294  0.43258  0.68138  1.0000
  H   H2326     1.0  0.95332  0.18974  0.60684  1.0000
  C   C1374     1.0  0.83941  0.02017  0.61906  1.0000
  H   H2327     1.0  0.85679  0.44932  0.65353  1.0000
  C   C1375     1.0  0.85987  0.09712  0.57289  1.0000
  C   C1376     1.0  0.85261  0.11175  0.55986  1.0000
  C   C1377     1.0  0.86241  0.12943  0.55421  1.0000
  C   C1378     1.0  0.87981  0.13274  0.56130  1.0000
  C   C1379     1.0  0.88708  0.11810  0.57435  1.0000
  C   C1380     1.0  0.87714  0.10047  0.58012  1.0000
  H   H2328     1.0  0.83925  0.10957  0.55427  1.0000
  H   H2329     1.0  0.85633  0.14069  0.54434  1.0000
  H   H2330     1.0  0.90040  0.12031  0.57997  1.0000
  H   H2331     1.0  0.88290  0.08935  0.59025  1.0000
  C   C1381     1.0  0.96875  0.31761  0.71671  1.0000
  H   H2332     1.0  0.88700  0.26574  0.52937  1.0000
  H   H2333     1.0  0.70045  0.10548  0.69881  1.0000
  H   H2334     1.0  0.77199  0.06724  0.50981  1.0000
  N   N97       1.0  0.90822  0.14981  0.49302  1.0000
  C   C1382     1.0  0.72699  0.06144  0.60076  1.0000
  C   C1383     1.0  0.70553  0.06816  0.60376  1.0000
  C   C1384     1.0  0.69355  0.06097  0.61897  1.0000
  C   C1385     1.0  0.70299  0.04718  0.63147  1.0000
  C   C1386     1.0  0.72441  0.04040  0.62845  1.0000
  C   C1387     1.0  0.73631  0.04734  0.61316  1.0000
  H   H2335     1.0  0.69816  0.07909  0.59426  1.0000
  H   H2336     1.0  0.89912  0.26330  0.49961  1.0000
  H   H2337     1.0  0.73193  0.02985  0.63808  1.0000
  C   C1388     1.0  0.76315  0.00686  0.49806  1.0000
  H   H2338     1.0  0.71236  0.99607  0.64389  1.0000
  H   H2339     1.0  0.89939  0.01507  0.57278  1.0000
  H   H2340     1.0  0.88454  0.29757  0.53937  1.0000
  C   C1389     1.0  0.93431  0.22111  0.49621  1.0000
  H   H2341     1.0  0.73458  0.09625  0.69054  1.0000
  H   H2342     1.0  0.77464  0.99066  0.55873  1.0000
  H   H2343     1.0  0.96625  0.28144  0.53544  1.0000
  H   H2344     1.0  0.68867  0.05636  0.68255  1.0000
  H   H2345     1.0  0.71170  0.10593  0.64875  1.0000
  C   C1390     1.0  0.98023  0.21903  0.60898  1.0000
  H   H2346     1.0  0.90438  0.30520  0.56224  1.0000
  H   H2347     1.0  0.71322  0.07816  0.64942  1.0000
  C   C1391     1.0  0.68434  0.09331  0.66317  1.0000
  H   H2348     1.0  0.84045  0.03603  0.61254  1.0000
  H   H2349     1.0  0.85364  0.03173  0.58331  1.0000
  C   C1392     1.0  0.90708  0.31180  0.54866  1.0000
  H   H2350     1.0  0.86579  0.15157  0.50387  1.0000
  H   H2351     1.0  0.89693  0.32688  0.54737  1.0000
  H   H2352     1.0  0.91055  0.24853  0.52720  1.0000
  H   H2353     1.0  0.96406  0.31469  0.70457  1.0000
  H   H2354     1.0  0.89779  0.40149  0.63938  1.0000
  H   H2355     1.0  0.93771  0.18110  0.63596  1.0000
  H   H2356     1.0  0.96649  0.15794  0.62868  1.0000
  C   C1393     1.0  0.90170  0.12069  0.51819  1.0000
  C   C1394     1.0  0.90151  0.29812  0.53652  1.0000
  H   H2357     1.0  0.97074  0.43849  0.62011  1.0000
  H   H2358     1.0  0.87316  0.03200  0.59626  1.0000
  H   H2359     1.0  0.93085  0.12715  0.50518  1.0000
  N   N98       1.0  0.89078  0.40727  0.66583  1.0000
  C   C1395     1.0  0.88968  0.38469  0.67176  1.0000
  C   C1396     1.0  0.90128  0.41510  0.67865  1.0000
  C   C1397     1.0  0.90427  0.40855  0.64880  1.0000
  C   C1398     1.0  0.86915  0.41832  0.66430  1.0000
  C   C1399     1.0  0.87851  0.37338  0.66104  1.0000
  C   C1400     1.0  0.90761  0.43020  0.63987  1.0000
  H   H2360     1.0  0.90554  0.37602  0.67237  1.0000
  H   H2361     1.0  0.91679  0.40588  0.67976  1.0000
  H   H2362     1.0  0.91991  0.39954  0.65006  1.0000
  H   H2363     1.0  0.67711  0.06640  0.62110  1.0000
  H   H2364     1.0  0.86377  0.41506  0.65251  1.0000
  H   H2365     1.0  0.87801  0.01936  0.56016  1.0000
  H   H2366     1.0  0.65973  0.07897  0.69177  1.0000
  H   H2367     1.0  0.73142  0.11454  0.67222  1.0000
  H   H2368     1.0  0.69173  0.05866  0.71241  1.0000
  C   C1401     1.0  0.98420  0.23715  0.61758  1.0000
  H   H2369     1.0  0.96991  0.24414  0.62502  1.0000
  H   H2370     1.0  0.96764  0.22499  0.60093  1.0000
  C   C1402     1.0  0.91050  0.34052  0.72685  1.0000
  C   C1403     1.0  0.88956  0.41486  0.69689  1.0000
  N   N99       1.0  0.77694  0.98442  0.52425  1.0000
  H   H2371     1.0  0.91435  0.43923  0.64769  1.0000
  H   H2372     1.0  0.90762  0.11419  0.53048  1.0000
  H   H2373     1.0  0.92343  0.44129  0.73102  1.0000
  H   H2374     1.0  0.74923  0.01452  0.50547  1.0000
  H   H2375     1.0  0.90470  0.43100  0.67456  1.0000
  H   H2376     1.0  0.89313  0.43894  0.63553  1.0000
  H   H2377     1.0  0.67523  0.10881  0.66069  1.0000
  H   H2378     1.0  0.92322  0.31510  0.54528  1.0000
  C   C1404     1.0  0.97361  0.16226  0.61551  1.0000
  C   C1405     1.0  0.91597  0.34861  0.70982  1.0000
  C   C1406     1.0  0.92513  0.36664  0.70640  1.0000
  C   C1407     1.0  0.86568  0.44203  0.66417  1.0000
  H   H2379     1.0  0.88141  0.38232  0.68490  1.0000
  C   C1408     1.0  0.87192  0.16463  0.50750  1.0000
  H   H2380     1.0  0.85813  0.41211  0.67507  1.0000
  H   H2381     1.0  0.87984  0.44941  0.66253  1.0000
  C   C1409     1.0  0.88410  0.02409  0.57101  1.0000
  H   H2382     1.0  0.94241  0.26353  0.52329  1.0000
  H   H2383     1.0  0.98612  0.37476  0.69893  1.0000
  H   H2384     1.0  0.85592  0.44632  0.67604  1.0000
  H   H2385     1.0  0.87328  0.42233  0.69711  1.0000
  H   H2386     1.0  0.96121  0.46995  0.63469  1.0000
  H   H2387     1.0  0.82798  0.09657  0.49559  1.0000
  C   C1410     1.0  0.77841  0.06045  0.49832  1.0000
  H   H2388     1.0  0.93566  0.39059  0.71703  1.0000
  H   H2389     1.0  0.89002  0.39903  0.70377  1.0000
  H   H2390     1.0  0.71516  0.07035  0.70654  1.0000
  H   H2391     1.0  0.85131  0.99409  0.57492  1.0000
  C   C1411     1.0  0.94541  0.18928  0.64384  1.0000
  Fe  Fe209     1.0  0.98069  0.32449  0.66143  1.0000
  H   H2392     1.0  0.96689  0.15396  0.60702  1.0000
  H   H2393     1.0  0.95483  0.26185  0.54961  1.0000
  H   H2394     1.0  0.67447  0.08209  0.66086  1.0000
  H   H2395     1.0  0.87901  0.27676  0.56378  1.0000
  H   H2396     1.0  0.80955  0.99702  0.49753  1.0000
  H   H2397     1.0  0.87845  0.35721  0.66719  1.0000
  H   H2398     1.0  0.69025  0.00034  0.62133  1.0000
  C   C1412     1.0  0.92873  0.37654  0.71984  1.0000
  C   C1413     1.0  0.71656  0.98656  0.63325  1.0000
  C   C1414     1.0  0.76006  0.98703  0.55535  1.0000
  H   H2399     1.0  0.90229  0.10758  0.51087  1.0000
  S   S411      1.0  0.68918  0.03857  0.65141  1.0000
  H   H2400     1.0  0.93421  0.47789  0.70867  1.0000
  H   H2401     1.0  0.84990  0.01641  0.62906  1.0000
  C   C1415     1.0  0.91154  0.26495  0.55460  1.0000
  N   N100      1.0  0.91336  0.27666  0.53689  1.0000
  S   S412      1.0  0.94049  0.47547  0.66896  1.0000
  H   H2402     1.0  0.86207  0.38021  0.66061  1.0000
  N   N101      1.0  0.86451  0.00173  0.59600  1.0000
  H   H2403     1.0  0.83103  0.00835  0.59787  1.0000
  C   C1416     1.0  0.84335  0.00402  0.60641  1.0000
  H   H2404     1.0  0.95623  0.17832  0.65134  1.0000
  C   C1417     1.0  0.89331  0.16835  0.49791  1.0000
  H   H2405     1.0  0.86036  0.17830  0.50433  1.0000
  H   H2406     1.0  0.91150  0.00060  0.59825  1.0000
  H   H2407     1.0  0.91815  0.14623  0.51817  1.0000
  H   H2408     1.0  0.72698  0.99507  0.62348  1.0000
  C   C1418     1.0  0.91557  0.13648  0.50863  1.0000
  H   H2409     1.0  0.90324  0.32667  0.72962  1.0000
  H   H2410     1.0  0.65646  0.05275  0.72327  1.0000
  C   C1419     1.0  0.70283  0.09304  0.64891  1.0000
  H   H2411     1.0  0.73121  0.08813  0.67075  1.0000
  H   H2412     1.0  0.96502  0.34990  0.71035  1.0000
  H   H2413     1.0  0.82412  0.00425  0.51216  1.0000
  H   H2414     1.0  0.66387  0.99915  0.60689  1.0000
  C   C1420     1.0  0.88939  0.26196  0.56298  1.0000
  H   H2415     1.0  0.88642  0.12943  0.48997  1.0000
  H   H2416     1.0  0.78753  0.01434  0.52145  1.0000
  H   H2417     1.0  0.74707  0.99617  0.56270  1.0000
  H   H2418     1.0  0.95088  0.15405  0.49940  1.0000
  C   C1421     1.0  0.91315  0.21950  0.49949  1.0000
  H   H2419     1.0  0.89010  0.25443  0.57629  1.0000
  H   H2420     1.0  0.87817  0.98644  0.57372  1.0000
  C   C1422     1.0  0.75835  0.99251  0.53611  1.0000
  C   C1423     1.0  0.86387  0.98762  0.58295  1.0000
  H   H2421     1.0  0.92341  0.27108  0.50072  1.0000
  H   H2422     1.0  0.89961  0.28899  0.50335  1.0000
  H   H2423     1.0  0.95445  0.31877  0.72602  1.0000
  H   H2424     1.0  0.67189  0.08873  0.70662  1.0000
  C   C1424     1.0  0.70549  0.06002  0.70274  1.0000
  H   H2425     1.0  0.68210  0.99340  0.67310  1.0000
  C   C1425     1.0  0.77068  0.98519  0.50677  1.0000
  H   H2426     1.0  0.88107  0.00451  0.61678  1.0000
  H   H2427     1.0  0.92085  0.24937  0.55453  1.0000
  H   H2428     1.0  0.88653  0.04044  0.56721  1.0000
  H   H2429     1.0  0.71325  0.06320  0.67550  1.0000
  S   S413      1.0  0.96645  0.39605  0.63116  1.0000
  H   H2430     1.0  0.82333  0.02036  0.62568  1.0000
  C   C1426     1.0  0.79897  0.05082  0.49652  1.0000
  H   H2431     1.0  0.74394  0.98728  0.53371  1.0000
  C   C1427     1.0  0.90689  0.27285  0.50632  1.0000
  C   C1428     1.0  0.81312  0.99366  0.51086  1.0000
  H   H2432     1.0  0.90015  0.17680  0.50622  1.0000
  H   H2433     1.0  0.90420  0.98089  0.58783  1.0000
  H   H2434     1.0  0.94601  0.28862  0.55186  1.0000
  H   H2435     1.0  0.66974  0.00001  0.64776  1.0000
  C   C1429     1.0  0.90401  0.26516  0.52564  1.0000
  H   H2436     1.0  0.93760  0.29069  0.51976  1.0000
  C   C1430     1.0  0.86830  0.02285  0.58728  1.0000
  H   H2437     1.0  0.97964  0.30405  0.72109  1.0000
  H   H2438     1.0  0.84010  0.98921  0.61405  1.0000
  C   C1431     1.0  0.69932  0.06695  0.68466  1.0000
  C   C1432     1.0  0.66911  0.09112  0.69302  1.0000
  H   H2439     1.0  0.69673  0.12008  0.67881  1.0000
  C   C1433     1.0  0.93593  0.27730  0.52981  1.0000
  N   N102      1.0  0.68937  0.08905  0.68130  1.0000
  C   C1434     1.0  0.95134  0.27747  0.54259  1.0000
  H   H2440     1.0  0.71470  0.04443  0.70304  1.0000
  C   C1435     1.0  0.95609  0.20661  0.63288  1.0000
  H   H2441     1.0  0.96002  0.21615  0.64198  1.0000
  C   C1436     1.0  0.88026  0.99315  0.60804  1.0000
  H   H2442     1.0  0.91895  0.42851  0.62822  1.0000
  H   H2443     1.0  0.87235  0.16251  0.52147  1.0000
  S   S414      1.0  0.98075  0.33731  0.63403  1.0000
  C   C1437     1.0  0.79366  0.99767  0.52391  1.0000
  H   H2444     1.0  0.97873  0.18746  0.59647  1.0000
  H   H2445     1.0  0.79916  0.99585  0.53661  1.0000
  N   N103      1.0  0.97491  0.20004  0.62067  1.0000
  C   C1438     1.0  0.96975  0.18560  0.60939  1.0000
  H   H2446     1.0  0.90969  0.46998  0.71681  1.0000
  H   H2447     1.0  0.96839  0.37244  0.73032  1.0000
  H   H2448     1.0  0.66324  0.12535  0.69003  1.0000
  C   C1439     1.0  0.94170  0.16637  0.49154  1.0000
  H   H2449     1.0  0.83466  0.98389  0.54981  1.0000
  C   C1440     1.0  0.98509  0.36661  0.72708  1.0000
  C   C1441     1.0  0.67188  0.98306  0.65152  1.0000
  C   C1442     1.0  0.90281  0.98723  0.60003  1.0000
  H   H2450     1.0  0.93350  0.17795  0.49973  1.0000
  H   H2451     1.0  0.88570  0.21717  0.48856  1.0000
  C   C1443     1.0  0.69732  0.98425  0.62526  1.0000
  H   H2452     1.0  0.77547  0.01680  0.49582  1.0000
  H   H2453     1.0  0.94907  0.46261  0.73542  1.0000
  H   H2454     1.0  0.98758  0.39542  0.71046  1.0000
  N   N104      1.0  0.98827  0.34344  0.72784  1.0000
  H   H2455     1.0  0.89061  0.17987  0.48656  1.0000
  H   H2456     1.0  0.69073  0.14913  0.88342  1.0000
  C   C1444     1.0  0.74156  0.47357  0.89868  1.0000
  H   H2457     1.0  0.79931  0.40430  0.93466  1.0000
  H   H2458     1.0  0.66997  0.23353  0.98084  1.0000
  H   H2459     1.0  0.67115  0.25114  0.96116  1.0000
  C   C1445     1.0  0.97463  0.44683  0.82821  1.0000
  H   H2460     1.0  0.72869  0.42506  0.96457  1.0000
  Fe  Fe210     1.0  0.75619  0.35382  0.92516  1.0000
  S   S415      1.0  0.73374  0.36783  0.90652  1.0000
  S   S416      1.0  0.74350  0.35781  0.95253  1.0000
  Fe  Fe211     1.0  0.79010  0.34023  0.89680  1.0000
  S   S417      1.0  0.76985  0.35301  0.87656  1.0000
  S   S418      1.0  0.82383  0.32614  0.89126  1.0000
  Fe  Fe212     1.0  0.76124  0.38055  0.89096  1.0000
  S   S419      1.0  0.76630  0.41232  0.87747  1.0000
  Fe  Fe213     1.0  0.74443  0.33867  0.89434  1.0000
  S   S420      1.0  0.72410  0.32015  0.88329  1.0000
  S   S421      1.0  0.78288  0.36832  0.91040  1.0000
  S   S422      1.0  0.76548  0.32404  0.91386  1.0000
  Fe  Fe214     1.0  0.92212  0.37562  0.81743  1.0000
  S   S423      1.0  0.92911  0.34280  0.82853  1.0000
  S   S424      1.0  0.91518  0.39942  0.83531  1.0000
  Fe  Fe215     1.0  0.92686  0.36555  0.78076  1.0000
  S   S425      1.0  0.93364  0.33165  0.78935  1.0000
  S   S426      1.0  0.92991  0.38052  0.75321  1.0000
  Fe  Fe216     1.0  0.90756  0.33749  0.81083  1.0000
  S   S427      1.0  0.87896  0.32145  0.81900  1.0000
  Fe  Fe217     1.0  0.95440  0.34094  0.80620  1.0000
  S   S428      1.0  0.89942  0.37077  0.80073  1.0000
  S   S429      1.0  0.94873  0.37444  0.79657  1.0000
  C   C1446     1.0  0.91603  0.44306  0.79480  1.0000
  C   C1447     1.0  0.91510  0.42423  0.80510  1.0000
  C   C1448     1.0  0.91433  0.42321  0.82276  1.0000
  C   C1449     1.0  0.91379  0.44109  0.83022  1.0000
  C   C1450     1.0  0.91486  0.45994  0.81987  1.0000
  H   H2461     1.0  0.91526  0.41049  0.79930  1.0000
  H   H2462     1.0  0.91294  0.44032  0.84392  1.0000
  H   H2463     1.0  0.67343  0.04713  0.74983  1.0000
  H   H2464     1.0  0.66716  0.08094  0.92740  1.0000
  C   C1451     1.0  0.91644  0.46079  0.80215  1.0000
  H   H2465     1.0  0.95885  0.42409  0.80950  1.0000
  C   C1452     1.0  0.76713  0.41754  0.93128  1.0000
  H   H2466     1.0  0.76725  0.47677  0.94502  1.0000
  H   H2467     1.0  0.97173  0.38771  0.84758  1.0000
  H   H2468     1.0  0.70440  0.10534  0.92299  1.0000
  H   H2469     1.0  0.91074  0.34355  0.75343  1.0000
  H   H2470     1.0  0.66101  0.14710  0.93269  1.0000
  C   C1453     1.0  0.75982  0.35930  0.96770  1.0000
  C   C1454     1.0  0.78094  0.35158  0.96560  1.0000
  H   H2471     1.0  0.95676  0.41246  0.84301  1.0000
  C   C1455     1.0  0.92242  0.44692  0.74356  1.0000
  H   H2472     1.0  0.76402  0.40140  0.93172  1.0000
  H   H2473     1.0  0.78784  0.34507  0.95409  1.0000
  H   H2474     1.0  0.78718  0.42250  0.95788  1.0000
  H   H2475     1.0  0.69579  0.10604  0.95412  1.0000
  C   C1456     1.0  0.75673  0.43532  0.88652  1.0000
  C   C1457     1.0  0.76967  0.45055  0.88517  1.0000
  H   H2476     1.0  0.91433  0.47379  0.82561  1.0000
  H   H2477     1.0  0.97824  0.33161  0.77238  1.0000
  C   C1458     1.0  0.72863  0.45833  0.90007  1.0000
  C   C1459     1.0  0.73621  0.43920  0.89416  1.0000
  H   H2478     1.0  0.78547  0.44778  0.87909  1.0000
  C   C1460     1.0  0.68878  0.11290  0.92799  1.0000
  C   C1461     1.0  0.65894  0.05734  0.74912  1.0000
  H   H2479     1.0  0.72603  0.42771  0.89500  1.0000
  C   C1462     1.0  0.83889  0.32696  0.87089  1.0000
  C   C1463     1.0  0.82997  0.33252  0.85572  1.0000
  C   C1464     1.0  0.84235  0.33089  0.83985  1.0000
  C   C1465     1.0  0.86390  0.32482  0.83896  1.0000
  C   C1466     1.0  0.87289  0.32013  0.85411  1.0000
  C   C1467     1.0  0.86040  0.32083  0.86997  1.0000
  H   H2480     1.0  0.81349  0.33753  0.85618  1.0000
  H   H2481     1.0  0.83524  0.33446  0.82820  1.0000
  H   H2482     1.0  0.88941  0.31518  0.85362  1.0000
  H   H2483     1.0  0.86747  0.31645  0.88160  1.0000
  C   C1468     1.0  0.68327  0.27089  0.90989  1.0000
  C   C1469     1.0  0.69421  0.28062  0.91953  1.0000
  C   C1470     1.0  0.70672  0.29569  0.91166  1.0000
  C   C1471     1.0  0.70847  0.30129  0.89398  1.0000
  C   C1472     1.0  0.69766  0.29145  0.88433  1.0000
  C   C1473     1.0  0.68514  0.27638  0.89219  1.0000
  H   H2484     1.0  0.69294  0.27652  0.93321  1.0000
  H   H2485     1.0  0.71491  0.30306  0.91929  1.0000
  H   H2486     1.0  0.69886  0.29563  0.87065  1.0000
  H   H2487     1.0  0.67686  0.26911  0.88457  1.0000
  H   H2488     1.0  0.65912  0.15087  0.84734  1.0000
  H   H2489     1.0  0.70768  0.41477  0.94579  1.0000
  C   C1474     1.0  0.67986  0.12200  0.89850  1.0000
  H   H2490     1.0  0.67872  0.15409  0.90408  1.0000
  C   C1475     1.0  0.76221  0.46949  0.89142  1.0000
  C   C1476     1.0  0.96860  0.40067  0.83737  1.0000
  H   H2491     1.0  0.78524  0.45438  0.94769  1.0000
  C   C1477     1.0  0.97229  0.44590  0.79056  1.0000
  C   C1478     1.0  0.76347  0.42490  0.97911  1.0000
  H   H2492     1.0  0.91701  0.44375  0.78113  1.0000
  H   H2493     1.0  0.98082  0.35694  0.76241  1.0000
  C   C1479     1.0  0.77195  0.46127  0.94080  1.0000
  H   H2494     1.0  0.72824  0.41294  0.92877  1.0000
  H   H2495     1.0  0.77410  0.40088  0.96305  1.0000
  N   N105      1.0  0.78902  0.27916  0.87515  1.0000
  C   C1480     1.0  0.76669  0.28162  0.88323  1.0000
  C   C1481     1.0  0.79272  0.29924  0.86443  1.0000
  C   C1482     1.0  0.80243  0.27544  0.88938  1.0000
  C   C1483     1.0  0.79282  0.26119  0.86489  1.0000
  C   C1484     1.0  0.76006  0.26350  0.89625  1.0000
  C   C1485     1.0  0.77750  0.30748  0.85123  1.0000
  C   C1486     1.0  0.82605  0.27247  0.88412  1.0000
  C   C1487     1.0  0.80998  0.26174  0.84944  1.0000
  H   H2496     1.0  0.76299  0.29568  0.88979  1.0000
  H   H2497     1.0  0.75593  0.28391  0.87337  1.0000
  H   H2498     1.0  0.80857  0.29831  0.85738  1.0000
  H   H2499     1.0  0.79190  0.31149  0.87275  1.0000
  H   H2500     1.0  0.79867  0.28841  0.89729  1.0000
  H   H2501     1.0  0.79938  0.26135  0.89820  1.0000
  H   H2502     1.0  0.79658  0.24647  0.87325  1.0000
  H   H2503     1.0  0.77850  0.25949  0.85964  1.0000
  H   H2504     1.0  0.76578  0.26337  0.90865  1.0000
  H   H2505     1.0  0.74286  0.26552  0.89885  1.0000
  H   H2506     1.0  0.76509  0.24841  0.89145  1.0000
  H   H2507     1.0  0.76259  0.31501  0.85746  1.0000
  H   H2508     1.0  0.78413  0.31947  0.84173  1.0000
  H   H2509     1.0  0.77433  0.29525  0.84432  1.0000
  H   H2510     1.0  0.83139  0.28490  0.87447  1.0000
  H   H2511     1.0  0.83153  0.25721  0.87972  1.0000
  H   H2512     1.0  0.83380  0.27278  0.89551  1.0000
  H   H2513     1.0  0.80538  0.27367  0.83890  1.0000
  H   H2514     1.0  0.81250  0.24671  0.84433  1.0000
  H   H2515     1.0  0.82506  0.26425  0.85264  1.0000
  N   N106      1.0  0.85345  0.39493  0.85612  1.0000
  C   C1488     1.0  0.86119  0.38029  0.84302  1.0000
  C   C1489     1.0  0.86838  0.39084  0.86924  1.0000
  C   C1490     1.0  0.85401  0.41650  0.84702  1.0000
  C   C1491     1.0  0.83160  0.39165  0.86368  1.0000
  C   C1492     1.0  0.84922  0.38323  0.82742  1.0000
  C   C1493     1.0  0.87265  0.36825  0.87743  1.0000
  C   C1494     1.0  0.84759  0.43424  0.85800  1.0000
  C   C1495     1.0  0.82446  0.39657  0.88211  1.0000
  H   H2516     1.0  0.87781  0.38108  0.83813  1.0000
  H   H2517     1.0  0.86054  0.36413  0.84887  1.0000
  H   H2518     1.0  0.86315  0.40034  0.87979  1.0000
  H   H2519     1.0  0.88366  0.39550  0.86351  1.0000
  H   H2520     1.0  0.86988  0.41810  0.84030  1.0000
  H   H2521     1.0  0.84351  0.41992  0.83697  1.0000
  H   H2522     1.0  0.82013  0.40082  0.85557  1.0000
  H   H2523     1.0  0.82924  0.37533  0.86387  1.0000
  H   H2524     1.0  0.83225  0.38408  0.83113  1.0000
  H   H2525     1.0  0.85287  0.39698  0.81844  1.0000
  H   H2526     1.0  0.85427  0.36978  0.82023  1.0000
  H   H2527     1.0  0.85828  0.36108  0.88101  1.0000
  H   H2528     1.0  0.88367  0.35890  0.86868  1.0000
  H   H2529     1.0  0.88004  0.36758  0.88916  1.0000
  H   H2530     1.0  0.83066  0.43625  0.86221  1.0000
  H   H2531     1.0  0.85084  0.44884  0.84999  1.0000
  H   H2532     1.0  0.85646  0.43262  0.86897  1.0000
  H   H2533     1.0  0.83213  0.38504  0.89155  1.0000
  H   H2534     1.0  0.80763  0.39571  0.88508  1.0000
  H   H2535     1.0  0.82669  0.41215  0.88408  1.0000
  H   H2536     1.0  0.69209  0.11156  0.89150  1.0000
  H   H2537     1.0  0.66675  0.12506  0.89078  1.0000
  N   N107      1.0  0.75771  0.42603  0.94766  1.0000
  C   C1496     1.0  0.73727  0.41795  0.95334  1.0000
  C   C1497     1.0  0.77146  0.41806  0.96140  1.0000
  H   H2538     1.0  0.70453  0.13976  0.90121  1.0000
  C   C1498     1.0  0.75328  0.44924  0.94489  1.0000
  C   C1499     1.0  0.72200  0.42125  0.93992  1.0000
  H   H2539     1.0  0.96591  0.44134  0.85593  1.0000
  H   H2540     1.0  0.73159  0.31153  0.97107  1.0000
  C   C1500     1.0  0.97487  0.42719  0.80447  1.0000
  H   H2541     1.0  0.96094  0.34013  0.74610  1.0000
  H   H2542     1.0  0.68929  0.08136  0.91170  1.0000
  H   H2543     1.0  0.68288  0.19369  0.97997  1.0000
  C   C1501     1.0  0.73030  0.29678  0.97956  1.0000
  H   H2544     1.0  0.66533  0.09092  0.88855  1.0000
  H   H2545     1.0  0.80917  0.34503  0.97736  1.0000
  H   H2546     1.0  0.74410  0.45444  0.93404  1.0000
  H   H2547     1.0  0.74290  0.45547  0.95581  1.0000
  S   S430      1.0  0.66080  0.06191  0.78255  1.0000
  C   C1502     1.0  0.97874  0.44706  0.84675  1.0000
  H   H2548     1.0  0.96213  0.39430  0.82753  1.0000
  H   H2549     1.0  0.66867  0.11066  0.95274  1.0000
  H   H2550     1.0  0.71728  0.43776  0.93561  1.0000
  C   C1503     1.0  0.79075  0.41665  0.92633  1.0000
  H   H2551     1.0  0.79478  0.41267  0.91310  1.0000
  H   H2552     1.0  0.98235  0.41360  0.79799  1.0000
  H   H2553     1.0  0.75975  0.42647  0.92038  1.0000
  H   H2554     1.0  0.73990  0.40109  0.95754  1.0000
  N   N108      1.0  0.67322  0.11169  0.91620  1.0000
  H   H2555     1.0  0.97961  0.31778  0.74646  1.0000
  H   H2556     1.0  0.71260  0.46140  0.90555  1.0000
  C   C1504     1.0  0.66011  0.08442  0.90180  1.0000
  H   H2557     1.0  0.69093  0.12901  0.92859  1.0000
  H   H2558     1.0  0.95766  0.44651  0.82894  1.0000
  H   H2559     1.0  0.93060  0.43420  0.75184  1.0000
  H   H2560     1.0  0.76062  0.44190  0.97856  1.0000
  H   H2561     1.0  0.96531  0.46028  0.79598  1.0000
  H   H2562     1.0  0.79634  0.43144  0.92645  1.0000
  C   C1505     1.0  0.79297  0.35155  0.97879  1.0000
  H   H2563     1.0  0.97856  0.46329  0.84889  1.0000
  N   N109      1.0  0.98659  0.42962  0.81880  1.0000
  H   H2564     1.0  0.77707  0.46342  0.92685  1.0000
  C   C1506     1.0  0.67318  0.08916  0.91496  1.0000
  S   S431      1.0  0.98792  0.32673  0.80856  1.0000
  H   H2565     1.0  0.93525  0.46778  0.75552  1.0000
  C   C1507     1.0  0.68887  0.14237  0.89705  1.0000
  H   H2566     1.0  0.96157  0.44306  0.78193  1.0000
  C   C1508     1.0  0.93315  0.46630  0.74221  1.0000
  H   H2567     1.0  0.73477  0.37402  0.98423  1.0000
  H   H2568     1.0  0.97732  0.46204  0.82097  1.0000
  H   H2569     1.0  0.68406  0.08643  0.94786  1.0000
  C   C1509     1.0  0.66996  0.24984  0.97526  1.0000
  C   C1510     1.0  0.68374  0.10334  0.94666  1.0000
  S   S432      1.0  0.66757  0.25214  0.92072  1.0000
  C   C1511     1.0  0.97798  0.33484  0.74498  1.0000
  H   H2570     1.0  0.66178  0.18811  0.95815  1.0000
  S   S433      1.0  0.65657  0.19674  0.91780  1.0000
  H   H2571     1.0  0.66178  0.06747  0.90185  1.0000
  H   H2572     1.0  0.68435  0.25449  0.97825  1.0000
  C   C1512     1.0  0.66707  0.19073  0.98376  1.0000
  C   C1513     1.0  0.75106  0.36783  0.98261  1.0000
  H   H2573     1.0  0.90606  0.44939  0.74948  1.0000
  C   C1514     1.0  0.98564  0.34045  0.76082  1.0000
  H   H2574     1.0  0.74933  0.41819  0.98504  1.0000
  H   H2575     1.0  0.73632  0.28378  0.97204  1.0000
  C   C1515     1.0  0.91472  0.35007  0.74034  1.0000
  H   H2576     1.0  0.71369  0.29564  0.98354  1.0000
  H   H2577     1.0  0.81849  0.46239  0.98151  1.0000
  C   C1516     1.0  0.92381  0.36816  0.73685  1.0000
  H   H2578     1.0  0.98717  0.44818  0.78252  1.0000
  C   C1517     1.0  0.65513  0.18759  0.97139  1.0000
  H   H2579     1.0  0.75646  0.64378  0.11610  1.0000
  H   H2580     1.0  0.72327  0.59558  0.12676  1.0000
  H   H2581     1.0  0.79334  0.59310  0.13008  1.0000
  H   H2582     1.0  0.77992  0.62394  0.00603  1.0000
  H   H2583     1.0  0.74632  0.62508  0.13178  1.0000
  H   H2584     1.0  0.79060  0.49160  0.04570  1.0000
  Fe  Fe218     1.0  0.75583  0.56837  0.06588  1.0000
  S   S434      1.0  0.78878  0.57505  0.06000  1.0000
  S   S435      1.0  0.73496  0.59872  0.05860  1.0000
  Fe  Fe219     1.0  0.77122  0.52205  0.07485  1.0000
  S   S436      1.0  0.80484  0.52623  0.06898  1.0000
  Fe  Fe220     1.0  0.79592  0.55343  0.08345  1.0000
  S   S437      1.0  0.81126  0.56063  0.10537  1.0000
  Fe  Fe221     1.0  0.79457  0.54724  0.04615  1.0000
  S   S438      1.0  0.81248  0.54990  0.01977  1.0000
  S   S439      1.0  0.76251  0.54853  0.09052  1.0000
  S   S440      1.0  0.76160  0.54122  0.05083  1.0000
  Fe  Fe222     1.0  0.92291  0.51247  0.18118  1.0000
  S   S441      1.0  0.93906  0.50781  0.15524  1.0000
  C   C1518     1.0  0.71712  0.80790  0.15637  1.0000
  Fe  Fe223     1.0  0.92627  0.55748  0.17541  1.0000
  S   S442      1.0  0.94268  0.55638  0.14860  1.0000
  S   S443      1.0  0.91995  0.58720  0.18693  1.0000
  Fe  Fe224     1.0  0.91860  0.53649  0.14597  1.0000
  S   S444      1.0  0.90475  0.53371  0.12184  1.0000
  Fe  Fe225     1.0  0.96141  0.52770  0.16023  1.0000
  H   H2585     1.0  0.68128  0.78625  0.11080  1.0000
  S   S445      1.0  0.90092  0.53988  0.17195  1.0000
  S   S446      1.0  0.94648  0.53025  0.18703  1.0000
  H   H2586     1.0  0.77571  0.48579  0.02199  1.0000
  C   C1519     1.0  0.74476  0.61122  0.99288  1.0000
  H   H2587     1.0  0.79251  0.58122  0.99395  1.0000
  H   H2588     1.0  0.73335  0.55829  0.01039  1.0000
  H   H2589     1.0  0.66122  0.65274  0.04234  1.0000
  H   H2590     1.0  0.78494  0.59999  0.02037  1.0000
  H   H2591     1.0  0.80889  0.48338  0.00732  1.0000
  C   C1520     1.0  0.92709  0.58870  0.20705  1.0000
  C   C1521     1.0  0.93285  0.57118  0.21842  1.0000
  H   H2592     1.0  0.89670  0.49537  0.16716  1.0000
  H   H2593     1.0  0.78227  0.61887  0.13487  1.0000
  H   H2594     1.0  0.93251  0.55613  0.21502  1.0000
  C   C1522     1.0  0.68526  0.64268  0.06763  1.0000
  C   C1523     1.0  0.83743  0.55327  0.10953  1.0000
  C   C1524     1.0  0.85281  0.54431  0.09775  1.0000
  C   C1525     1.0  0.87330  0.53851  0.10172  1.0000
  C   C1526     1.0  0.87867  0.54146  0.11751  1.0000
  C   C1527     1.0  0.86323  0.55023  0.12935  1.0000
  C   C1528     1.0  0.84278  0.55615  0.12535  1.0000
  H   H2595     1.0  0.84899  0.54202  0.08552  1.0000
  H   H2596     1.0  0.88512  0.53182  0.09243  1.0000
  H   H2597     1.0  0.86709  0.55259  0.14155  1.0000
  H   H2598     1.0  0.83103  0.56299  0.13460  1.0000
  C   C1529     1.0  0.80417  0.53908  0.00353  1.0000
  C   C1530     1.0  0.78834  0.52676  0.00712  1.0000
  H   H2599     1.0  0.72937  0.58825  0.10523  1.0000
  H   H2600     1.0  0.78121  0.52342  0.02008  1.0000
  H   H2601     1.0  0.75949  0.59038  0.13088  1.0000
  H   H2602     1.0  0.65874  0.89125  0.17334  1.0000
  H   H2603     1.0  0.76638  0.56590  0.01536  1.0000
  H   H2604     1.0  0.76763  0.57991  0.11142  1.0000
  H   H2605     1.0  0.75562  0.63575  0.06644  1.0000
  H   H2606     1.0  0.75949  0.64796  0.08413  1.0000
  H   H2607     1.0  0.67193  0.85509  0.11872  1.0000
  H   H2608     1.0  0.98670  0.57723  0.22586  1.0000
  H   H2609     1.0  0.72691  0.64774  0.10006  1.0000
  H   H2610     1.0  0.73471  0.57023  0.12331  1.0000
  C   C1531     1.0  0.67419  0.60993  0.07930  1.0000
  C   C1532     1.0  0.69438  0.59969  0.07494  1.0000
  C   C1533     1.0  0.70997  0.61085  0.06643  1.0000
  C   C1534     1.0  0.70530  0.63240  0.06288  1.0000
  C   C1535     1.0  0.65868  0.80852  0.15498  1.0000
  H   H2611     1.0  0.69764  0.58311  0.07767  1.0000
  H   H2612     1.0  0.71720  0.64122  0.05627  1.0000
  H   H2613     1.0  0.80779  0.61396  0.12354  1.0000
  H   H2614     1.0  0.78031  0.63075  0.07404  1.0000
  H   H2615     1.0  0.71636  0.62651  0.11319  1.0000
  C   C1536     1.0  0.67743  0.61034  0.02862  1.0000
  H   H2616     1.0  0.73527  0.49266  0.06492  1.0000
  H   H2617     1.0  0.66072  0.78646  0.17837  1.0000
  H   H2618     1.0  0.70238  0.79801  0.12618  1.0000
  H   H2619     1.0  0.89301  0.54232  0.22627  1.0000
  H   H2620     1.0  0.82864  0.50718  0.14828  1.0000
  H   H2621     1.0  0.66626  0.77498  0.12882  1.0000
  C   C1537     1.0  0.67026  0.83866  0.12305  1.0000
  H   H2622     1.0  0.89577  0.52406  0.21136  1.0000
  H   H2623     1.0  0.96634  0.59705  0.17107  1.0000
  H   H2624     1.0  0.66916  0.62368  0.99045  1.0000
  C   C1538     1.0  0.66184  0.89754  0.22183  1.0000
  C   C1539     1.0  0.73726  0.62359  0.00820  1.0000
  H   H2625     1.0  0.68193  0.65925  0.06478  1.0000
  H   H2626     1.0  0.80456  0.60843  0.00449  1.0000
  H   H2627     1.0  0.66801  0.93109  0.20148  1.0000
  C   C1540     1.0  0.88788  0.52801  0.22396  1.0000
  H   H2628     1.0  0.89357  0.49567  0.23155  1.0000
  C   C1541     1.0  0.81328  0.54336  0.98662  1.0000
  C   C1542     1.0  0.78164  0.59588  0.99387  1.0000
  H   H2629     1.0  0.96918  0.58707  0.20159  1.0000
  C   C1543     1.0  0.93425  0.61034  0.22687  1.0000
  H   H2630     1.0  0.68671  0.82753  0.21504  1.0000
  H   H2631     1.0  0.97337  0.55278  0.20194  1.0000
  H   H2632     1.0  0.69385  0.78951  0.16796  1.0000
  H   H2633     1.0  0.84111  0.48939  0.16388  1.0000
  C   C1544     1.0  0.92767  0.60823  0.21144  1.0000
  H   H2634     1.0  0.71813  0.64919  0.12206  1.0000
  H   H2635     1.0  0.85656  0.50086  0.14595  1.0000
  H   H2636     1.0  0.73044  0.60778  0.98864  1.0000
  H   H2637     1.0  0.98156  0.60857  0.19308  1.0000
  H   H2638     1.0  0.68004  0.59353  0.03296  1.0000
  H   H2639     1.0  0.92331  0.62181  0.20270  1.0000
  C   C1545     1.0  0.84173  0.49461  0.14998  1.0000
  H   H2640     1.0  0.67720  0.89726  0.21389  1.0000
  H   H2641     1.0  0.79871  0.48811  0.11553  1.0000
  N   N110      1.0  0.68075  0.80949  0.14695  1.0000
  H   H2642     1.0  0.73943  0.61545  0.08939  1.0000
  H   H2643     1.0  0.83340  0.51300  0.11905  1.0000
  C   C1546     1.0  0.73307  0.57219  0.01670  1.0000
  H   H2644     1.0  0.67645  0.83017  0.11201  1.0000
  H   H2645     1.0  0.68418  0.61266  0.01513  1.0000
  H   H2646     1.0  0.67742  0.64956  0.02313  1.0000
  H   H2647     1.0  0.72056  0.58426  0.01250  1.0000
  H   H2648     1.0  0.71931  0.82436  0.15343  1.0000
  H   H2649     1.0  0.87097  0.53185  0.22326  1.0000
  H   H2650     1.0  0.88772  0.48648  0.09297  1.0000
  H   H2651     1.0  0.67800  0.64537  0.99708  1.0000
  C   C1547     1.0  0.68845  0.79367  0.13481  1.0000
  H   H2652     1.0  0.83015  0.50167  0.10116  1.0000
  C   C1548     1.0  0.68261  0.83102  0.13822  1.0000
  S   S447      1.0  0.76883  0.48897  0.08605  1.0000
  H   H2653     1.0  0.66823  0.68546  0.02422  1.0000
  H   H2654     1.0  0.72165  0.62037  0.01426  1.0000
  H   H2655     1.0  0.69361  0.77851  0.14209  1.0000
  H   H2656     1.0  0.69892  0.83256  0.13292  1.0000
  H   H2657     1.0  0.72445  0.79940  0.14557  1.0000
  C   C1549     1.0  0.82867  0.49914  0.11533  1.0000
  H   H2658     1.0  0.76371  0.60081  0.08434  1.0000
  C   C1550     1.0  0.66942  0.63146  0.07555  1.0000
  H   H2659     1.0  0.67451  0.88482  0.19006  1.0000
  H   H2660     1.0  0.72561  0.80152  0.16744  1.0000
  C   C1551     1.0  0.98307  0.59158  0.19316  1.0000
  H   H2661     1.0  0.81506  0.48475  0.05335  1.0000
  C   C1552     1.0  0.67286  0.78933  0.12348  1.0000
  H   H2662     1.0  0.76989  0.50871  0.99669  1.0000
  C   C1553     1.0  0.75449  0.57968  0.01336  1.0000
  N   N111      1.0  0.76057  0.61311  0.10831  1.0000
  C   C1554     1.0  0.78339  0.61420  0.10785  1.0000
  C   C1555     1.0  0.75618  0.61485  0.09014  1.0000
  C   C1556     1.0  0.75658  0.59220  0.11735  1.0000
  C   C1557     1.0  0.74813  0.63011  0.11778  1.0000
  C   C1558     1.0  0.79187  0.60978  0.12523  1.0000
  C   C1559     1.0  0.76336  0.63354  0.07816  1.0000
  C   C1560     1.0  0.73462  0.58669  0.11797  1.0000
  C   C1561     1.0  0.72623  0.63859  0.11287  1.0000
  H   H2663     1.0  0.79292  0.60326  0.09944  1.0000
  H   H2664     1.0  0.78716  0.62973  0.10218  1.0000
  C   C1562     1.0  0.78197  0.51843  0.99390  1.0000
  H   H2665     1.0  0.67792  0.84234  0.14763  1.0000
  C   C1563     1.0  0.80528  0.49944  0.12133  1.0000
  C   C1564     1.0  0.69401  0.80548  0.16135  1.0000
  H   H2666     1.0  0.75526  0.58853  0.02389  1.0000
  H   H2667     1.0  0.73535  0.64030  0.00342  1.0000
  C   C1565     1.0  0.78762  0.60777  0.00714  1.0000
  C   C1566     1.0  0.67245  0.83304  0.22261  1.0000
  H   H2668     1.0  0.80167  0.49691  0.13539  1.0000
  H   H2669     1.0  0.68600  0.61758  0.03654  1.0000
  H   H2670     1.0  0.81439  0.49365  0.03125  1.0000
  H   H2671     1.0  0.92873  0.52181  0.22439  1.0000
  S   S448      1.0  0.91451  0.48437  0.19839  1.0000
  C   C1567     1.0  0.98096  0.58791  0.17491  1.0000
  H   H2672     1.0  0.79705  0.51486  0.11694  1.0000
  H   H2673     1.0  0.86257  0.49892  0.08914  1.0000
  C   C1568     1.0  0.93916  0.57332  0.23414  1.0000
  H   H2674     1.0  0.65863  0.88131  0.22422  1.0000
  C   C1569     1.0  0.66107  0.65406  0.02834  1.0000
  H   H2675     1.0  0.72910  0.56773  0.03061  1.0000
  C   C1570     1.0  0.80676  0.48427  0.04232  1.0000
  H   H2676     1.0  0.93051  0.49487  0.22693  1.0000
  S   S449      1.0  0.65700  0.84289  0.19222  1.0000
  H   H2677     1.0  0.96540  0.48262  0.13074  1.0000
  N   N112      1.0  0.75954  0.59155  0.99602  1.0000
  C   C1571     1.0  0.65569  0.67712  0.02206  1.0000
  H   H2678     1.0  0.86854  0.49701  0.11936  1.0000
  H   H2679     1.0  0.66210  0.60108  0.08547  1.0000
  C   C1572     1.0  0.86480  0.48287  0.11525  1.0000
  H   H2680     1.0  0.68766  0.81581  0.17130  1.0000
  H   H2681     1.0  0.74771  0.62132  0.01812  1.0000
  H   H2682     1.0  0.66984  0.91128  0.17983  1.0000
  H   H2683     1.0  0.65934  0.95760  0.21731  1.0000
  H   H2684     1.0  0.93632  0.49073  0.11490  1.0000
  H   H2685     1.0  0.97978  0.57160  0.17412  1.0000
  C   C1573     1.0  0.66473  0.63989  0.99309  1.0000
  H   H2686     1.0  0.96308  0.50595  0.23067  1.0000
  H   H2687     1.0  0.98607  0.54519  0.22095  1.0000
  H   H2688     1.0  0.98077  0.61266  0.22420  1.0000
  H   H2689     1.0  0.93491  0.62555  0.22996  1.0000
  C   C1574     1.0  0.87098  0.48489  0.09575  1.0000
  C   C1575     1.0  0.92953  0.50811  0.23422  1.0000
  C   C1576     1.0  0.66288  0.89703  0.18458  1.0000
  H   H2690     1.0  0.65566  0.94774  0.16142  1.0000
  H   H2691     1.0  0.66014  0.80192  0.12097  1.0000
  H   H2692     1.0  0.66118  0.77445  0.15928  1.0000
  C   C1577     1.0  0.98819  0.54623  0.20684  1.0000
  Fe  Fe226     1.0  0.77615  0.84974  0.41574  1.0000
  S   S450      1.0  0.80221  0.86801  0.41377  1.0000
  S   S451      1.0  0.77130  0.83036  0.44140  1.0000
  Fe  Fe227     1.0  0.76913  0.86348  0.37831  1.0000
  S   S452      1.0  0.79564  0.88232  0.37392  1.0000
  S   S453      1.0  0.75298  0.86340  0.35473  1.0000
  Fe  Fe228     1.0  0.81319  0.85517  0.38895  1.0000
  S   S454      1.0  0.84783  0.84304  0.38518  1.0000
  Fe  Fe229     1.0  0.78242  0.89306  0.39917  1.0000
  S   S455      1.0  0.77335  0.92555  0.40619  1.0000
  S   S456      1.0  0.78788  0.83560  0.39153  1.0000
  S   S457      1.0  0.75508  0.87562  0.40292  1.0000
  H   H2693     1.0  0.78962  0.97487  0.37424  1.0000
  C   C1578     1.0  0.84587  0.82504  0.42978  1.0000
  H   H2694     1.0  0.76427  0.96505  0.41720  1.0000
  C   C1579     1.0  0.93625  0.65450  0.26439  1.0000
  Fe  Fe230     1.0  0.94616  0.68936  0.38334  1.0000
  S   S458      1.0  0.94699  0.72247  0.37224  1.0000
  S   S459      1.0  0.95985  0.66325  0.36730  1.0000
  Fe  Fe231     1.0  0.93325  0.70160  0.41954  1.0000
  S   S460      1.0  0.93370  0.73538  0.41109  1.0000
  S   S461      1.0  0.92097  0.69002  0.44662  1.0000
  Fe  Fe232     1.0  0.91734  0.73030  0.38960  1.0000
  S   S462      1.0  0.88659  0.74852  0.38247  1.0000
  Fe  Fe233     1.0  0.96331  0.72474  0.39467  1.0000
  S   S463      1.0  0.91532  0.69673  0.39901  1.0000
  S   S464      1.0  0.96408  0.69136  0.40489  1.0000
  Fe  Fe234     1.0  0.93598  0.57335  0.31908  1.0000
  S   S465      1.0  0.96440  0.57908  0.30106  1.0000
  S   S466      1.0  0.92039  0.59567  0.33802  1.0000
  Fe  Fe235     1.0  0.93096  0.53583  0.30196  1.0000
  S   S467      1.0  0.95854  0.53957  0.28224  1.0000
  S   S468      1.0  0.91308  0.50968  0.30084  1.0000
  Fe  Fe236     1.0  0.97333  0.54481  0.30436  1.0000
  C   C1580     1.0  0.77463  0.92540  0.45297  1.0000
  Fe  Fe237     1.0  0.94702  0.57332  0.28051  1.0000
  S   S469      1.0  0.94898  0.59677  0.25708  1.0000
  S   S470      1.0  0.94648  0.53910  0.32443  1.0000
  S   S471      1.0  0.91777  0.56949  0.29819  1.0000
  H   H2695     1.0  0.77770  0.93860  0.44329  1.0000
  H   H2696     1.0  0.98708  0.48769  0.32628  1.0000
  H   H2697     1.0  0.91271  0.54198  0.24613  1.0000
  H   H2698     1.0  0.65582  0.83674  0.34027  1.0000
  H   H2699     1.0  0.94850  0.57538  0.41967  1.0000
  C   C1581     1.0  0.90376  0.62947  0.29178  1.0000
  H   H2700     1.0  0.84601  0.91095  0.45935  1.0000
  H   H2701     1.0  0.83389  0.87550  0.46379  1.0000
  H   H2702     1.0  0.80505  0.91024  0.43021  1.0000
  H   H2703     1.0  0.96228  0.62306  0.44962  1.0000
  C   C1582     1.0  0.94833  0.64503  0.35892  1.0000
  C   C1583     1.0  0.92693  0.64462  0.36133  1.0000
  C   C1584     1.0  0.91869  0.62927  0.35502  1.0000
  C   C1585     1.0  0.93168  0.61432  0.34606  1.0000
  C   C1586     1.0  0.95306  0.61484  0.34356  1.0000
  C   C1587     1.0  0.96130  0.63011  0.34994  1.0000
  H   H2704     1.0  0.91673  0.65603  0.36814  1.0000
  H   H2705     1.0  0.90212  0.62904  0.35699  1.0000
  H   H2706     1.0  0.96328  0.60341  0.33677  1.0000
  H   H2707     1.0  0.79779  0.97571  0.35216  1.0000
  C   C1588     1.0  0.83006  0.90903  0.46559  1.0000
  C   C1589     1.0  0.93672  0.68973  0.46264  1.0000
  C   C1590     1.0  0.95788  0.69090  0.45852  1.0000
  C   C1591     1.0  0.69589  0.92458  0.35272  1.0000
  H   H2708     1.0  0.72603  0.91296  0.36079  1.0000
  H   H2709     1.0  0.96466  0.69276  0.44530  1.0000
  C   C1592     1.0  0.67165  0.83145  0.24037  1.0000
  C   C1593     1.0  0.71750  0.92800  0.35584  1.0000
  H   H2710     1.0  0.70279  0.78236  0.28986  1.0000
  H   H2711     1.0  0.94644  0.62116  0.30882  1.0000
  H   H2712     1.0  0.82807  0.81435  0.41363  1.0000
  H   H2713     1.0  0.69198  0.96611  0.26358  1.0000
  H   H2714     1.0  0.69775  0.85864  0.29091  1.0000
  C   C1594     1.0  0.85864  0.81684  0.38388  1.0000
  C   C1595     1.0  0.84686  0.80238  0.38071  1.0000
  C   C1596     1.0  0.85585  0.78169  0.37999  1.0000
  C   C1597     1.0  0.87661  0.77505  0.38274  1.0000
  C   C1598     1.0  0.88845  0.78951  0.38590  1.0000
  C   C1599     1.0  0.87954  0.81032  0.38632  1.0000
  H   H2715     1.0  0.83086  0.80717  0.37860  1.0000
  H   H2716     1.0  0.84661  0.77069  0.37739  1.0000
  H   H2717     1.0  0.90448  0.78471  0.38790  1.0000
  H   H2718     1.0  0.88886  0.82140  0.38865  1.0000
  C   C1600     1.0  0.72634  0.86813  0.35178  1.0000
  C   C1601     1.0  0.71045  0.86833  0.36548  1.0000
  C   C1602     1.0  0.68954  0.87146  0.36246  1.0000
  C   C1603     1.0  0.68423  0.87465  0.34575  1.0000
  C   C1604     1.0  0.70009  0.87492  0.33204  1.0000
  C   C1605     1.0  0.72100  0.87144  0.33506  1.0000
  H   H2719     1.0  0.71430  0.86579  0.37840  1.0000
  H   H2720     1.0  0.67739  0.87139  0.37317  1.0000
  H   H2721     1.0  0.69625  0.87806  0.31914  1.0000
  H   H2722     1.0  0.73318  0.87152  0.32438  1.0000
  C   C1606     1.0  0.78022  0.96338  0.41130  1.0000
  C   C1607     1.0  0.78913  0.94499  0.40484  1.0000
  C   C1608     1.0  0.80991  0.94282  0.39758  1.0000
  H   H2723     1.0  0.81928  0.95214  0.46885  1.0000
  H   H2724     1.0  0.81697  0.92865  0.39263  1.0000
  H   H2725     1.0  0.79048  0.90113  0.46866  1.0000
  C   C1609     1.0  0.94321  0.64266  0.43104  1.0000
  H   H2726     1.0  0.85764  0.75234  0.44810  1.0000
  H   H2727     1.0  0.81586  0.88353  0.48182  1.0000
  C   C1610     1.0  0.79295  0.91706  0.46327  1.0000
  N   N113      1.0  0.83355  0.78893  0.43369  1.0000
  C   C1611     1.0  0.86272  0.75767  0.43456  1.0000
  H   H2728     1.0  0.85300  0.79211  0.46199  1.0000
  H   H2729     1.0  0.90432  0.65090  0.41952  1.0000
  H   H2730     1.0  0.82504  0.76788  0.45639  1.0000
  H   H2731     1.0  0.97313  0.64919  0.28329  1.0000
  C   C1612     1.0  0.78112  0.83364  0.47313  1.0000
  H   H2732     1.0  0.81440  0.81881  0.43380  1.0000
  C   C1613     1.0  0.76231  0.87444  0.47294  1.0000
  H   H2733     1.0  0.66868  0.94502  0.25456  1.0000
  H   H2734     1.0  0.93474  0.65128  0.39860  1.0000
  H   H2735     1.0  0.83998  0.84149  0.42604  1.0000
  H   H2736     1.0  0.96680  0.61722  0.38481  1.0000
  H   H2737     1.0  0.85705  0.74860  0.42604  1.0000
  C   C1614     1.0  0.91901  0.68018  0.31615  1.0000
  H   H2738     1.0  0.94666  0.62268  0.28671  1.0000
  C   C1615     1.0  0.93570  0.66211  0.31137  1.0000
  H   H2739     1.0  0.86154  0.78475  0.41612  1.0000
  H   H2740     1.0  0.97318  0.64577  0.43881  1.0000
  H   H2741     1.0  0.94265  0.65891  0.42492  1.0000
  C   C1616     1.0  0.93986  0.59298  0.23832  1.0000
  H   H2742     1.0  0.90499  0.67458  0.32367  1.0000
  H   H2743     1.0  0.66646  0.92242  0.33394  1.0000
  H   H2744     1.0  0.79062  0.94143  0.36605  1.0000
  H   H2745     1.0  0.95294  0.65378  0.25930  1.0000
  H   H2746     1.0  0.79223  0.77633  0.41572  1.0000
  C   C1617     1.0  0.83602  0.79313  0.46517  1.0000
  H   H2747     1.0  0.75554  0.87207  0.44772  1.0000
  H   H2748     1.0  0.92782  0.66445  0.25444  1.0000
  H   H2749     1.0  0.97532  0.64045  0.30565  1.0000
  H   H2750     1.0  0.92673  0.78435  0.48381  1.0000
  C   C1618     1.0  0.81222  0.97797  0.40243  1.0000
  C   C1619     1.0  0.93156  0.66467  0.28105  1.0000
  H   H2751     1.0  0.87992  0.75422  0.43251  1.0000
  H   H2752     1.0  0.92767  0.64178  0.43855  1.0000
  H   H2753     1.0  0.87558  0.54119  0.25713  1.0000
  H   H2754     1.0  0.68523  0.82456  0.24637  1.0000
  C   C1620     1.0  0.69244  0.79447  0.29649  1.0000
  H   H2755     1.0  0.82895  0.77872  0.41014  1.0000
  C   C1621     1.0  0.96910  0.62943  0.40873  1.0000
  H   H2756     1.0  0.77655  0.95072  0.34842  1.0000
  H   H2757     1.0  0.98127  0.62261  0.29040  1.0000
  H   H2758     1.0  0.95981  0.59960  0.43207  1.0000
  H   H2759     1.0  0.93187  0.76225  0.47351  1.0000
  H   H2760     1.0  0.95176  0.64808  0.45511  1.0000
  H   H2761     1.0  0.93154  0.63911  0.26529  1.0000
  C   C1622     1.0  0.81618  0.90361  0.43947  1.0000
  C   C1623     1.0  0.91071  0.64320  0.30318  1.0000
  N   N114      1.0  0.81428  0.91705  0.45344  1.0000
  C   C1624     1.0  0.82540  0.78462  0.45231  1.0000
  H   H2762     1.0  0.83736  0.95778  0.39045  1.0000
  C   C1625     1.0  0.82142  0.95932  0.39638  1.0000
  H   H2763     1.0  0.74549  0.97584  0.35165  1.0000
  C   C1626     1.0  0.97047  0.68899  0.47155  1.0000
  H   H2764     1.0  0.89982  0.63836  0.27953  1.0000
  H   H2765     1.0  0.98592  0.75052  0.47671  1.0000
  H   H2766     1.0  0.81622  0.97018  0.45010  1.0000
  N   N115      1.0  0.93154  0.65042  0.29764  1.0000
  C   C1627     1.0  0.83772  0.90039  0.42887  1.0000
  C   C1628     1.0  0.91149  0.49113  0.26080  1.0000
  N   N116      1.0  0.94744  0.62805  0.41768  1.0000
  C   C1629     1.0  0.67088  0.97436  0.28553  1.0000
  C   C1630     1.0  0.92631  0.48447  0.30529  1.0000
  H   H2767     1.0  0.95268  0.73247  0.48241  1.0000
  C   C1631     1.0  0.94542  0.60652  0.42640  1.0000
  C   C1632     1.0  0.69270  0.95168  0.32761  1.0000
  H   H2768     1.0  0.67462  0.95237  0.36999  1.0000
  H   H2769     1.0  0.67759  0.78844  0.30117  1.0000
  H   H2770     1.0  0.89680  0.49154  0.26969  1.0000
  H   H2771     1.0  0.84989  0.89250  0.43672  1.0000
  H   H2772     1.0  0.67337  0.83420  0.30218  1.0000
  H   H2773     1.0  0.93783  0.65157  0.32333  1.0000
  H   H2774     1.0  0.88909  0.54829  0.27268  1.0000
  H   H2775     1.0  0.92049  0.52676  0.26462  1.0000
  N   N117      1.0  0.91042  0.50941  0.24712  1.0000
  H   H2776     1.0  0.81003  0.94338  0.43393  1.0000
  H   H2777     1.0  0.93272  0.60709  0.43728  1.0000
  C   C1633     1.0  0.77798  0.95330  0.36158  1.0000
  C   C1634     1.0  0.94047  0.59094  0.41541  1.0000
  C   C1635     1.0  0.79173  0.97966  0.41024  1.0000
  C   C1636     1.0  0.97708  0.61526  0.39484  1.0000
  H   H2778     1.0  0.95108  0.52029  0.24761  1.0000
  H   H2779     1.0  0.70694  0.94508  0.30235  1.0000
  H   H2780     1.0  0.87747  0.50859  0.24714  1.0000
  H   H2781     1.0  0.65968  0.80909  0.32049  1.0000
  H   H2782     1.0  0.86043  0.82154  0.42113  1.0000
  H   H2783     1.0  0.71036  0.83337  0.28836  1.0000
  C   C1637     1.0  0.67636  0.95940  0.35640  1.0000
  H   H2784     1.0  0.68817  0.91837  0.36532  1.0000
  H   H2785     1.0  0.74819  0.96949  0.38871  1.0000
  H   H2786     1.0  0.98071  0.62552  0.41788  1.0000
  H   H2787     1.0  0.67324  0.79157  0.33516  1.0000
  C   C1638     1.0  0.95634  0.78045  0.46784  1.0000
  C   C1639     1.0  0.76284  0.86426  0.45864  1.0000
  C   C1640     1.0  0.69846  0.93700  0.31379  1.0000
  H   H2788     1.0  0.79109  0.92509  0.47482  1.0000
  H   H2789     1.0  0.91515  0.61565  0.28953  1.0000
  C   C1641     1.0  0.97067  0.63661  0.29382  1.0000
  H   H2790     1.0  0.89811  0.65648  0.30400  1.0000
  H   H2791     1.0  0.88934  0.62369  0.29834  1.0000
  H   H2792     1.0  0.70888  0.92288  0.31790  1.0000
  H   H2793     1.0  0.71600  0.84676  0.30495  1.0000
  C   C1642     1.0  0.81153  0.95555  0.45715  1.0000
  H   H2794     1.0  0.91029  0.63455  0.31626  1.0000
  H   H2795     1.0  0.69616  0.83241  0.34145  1.0000
  H   H2796     1.0  0.95324  0.49434  0.31204  1.0000
  H   H2797     1.0  0.68454  0.93296  0.30946  1.0000
  H   H2798     1.0  0.90534  0.62323  0.42097  1.0000
  H   H2799     1.0  0.84224  0.91512  0.42200  1.0000
  C   C1643     1.0  0.71034  0.80071  0.34736  1.0000
  H   H2800     1.0  0.79448  0.95842  0.46058  1.0000
  H   H2801     1.0  0.72696  0.93371  0.34398  1.0000
  C   C1644     1.0  0.81798  0.93846  0.44547  1.0000
  H   H2802     1.0  0.93433  0.62612  0.39453  1.0000
  N   N118      1.0  0.69074  0.81553  0.32145  1.0000
  C   C1645     1.0  0.68542  0.83548  0.31020  1.0000
  C   C1646     1.0  0.95868  0.63941  0.44428  1.0000
  C   C1647     1.0  0.70293  0.79927  0.31121  1.0000
  C   C1648     1.0  0.70374  0.81940  0.33436  1.0000
  C   C1649     1.0  0.70363  0.84372  0.29806  1.0000
  H   H2803     1.0  0.69900  0.78969  0.35048  1.0000
  H   H2804     1.0  0.68967  0.80803  0.28677  1.0000
  C   C1650     1.0  0.90907  0.63729  0.41251  1.0000
  H   H2805     1.0  0.91475  0.69095  0.30482  1.0000
  H   H2806     1.0  0.67823  0.84789  0.31805  1.0000
  H   H2807     1.0  0.69831  0.91184  0.34479  1.0000
  H   H2808     1.0  0.67712  0.89134  0.24461  1.0000
  H   H2809     1.0  0.71853  0.80338  0.30586  1.0000
  H   H2810     1.0  0.70610  0.78442  0.31956  1.0000
  H   H2811     1.0  0.71844  0.82474  0.32794  1.0000
  N   N119      1.0  0.68241  0.94288  0.34464  1.0000
  C   C1651     1.0  0.69067  0.97615  0.35472  1.0000
  H   H2812     1.0  0.71163  0.80619  0.35961  1.0000
  H   H2813     1.0  0.92369  0.58951  0.41764  1.0000
  C   C1652     1.0  0.67717  0.96426  0.27108  1.0000
  H   H2814     1.0  0.86611  0.78879  0.43633  1.0000
  H   H2815     1.0  0.83718  0.89042  0.41897  1.0000
  C   C1653     1.0  0.90882  0.52865  0.25554  1.0000
  H   H2816     1.0  0.77057  0.91315  0.44647  1.0000
  C   C1654     1.0  0.88763  0.53541  0.26567  1.0000
  H   H2817     1.0  0.92520  0.68908  0.32453  1.0000
  C   C1655     1.0  0.82203  0.77776  0.42376  1.0000
  C   C1656     1.0  0.77197  0.84373  0.45878  1.0000
  H   H2818     1.0  0.76093  0.93125  0.46169  1.0000
  C   C1657     1.0  0.85631  0.78101  0.42994  1.0000
  H   H2819     1.0  0.79542  0.80166  0.41855  1.0000
  H   H2820     1.0  0.97789  0.63024  0.34802  1.0000
  H   H2821     1.0  0.84930  0.82358  0.44304  1.0000
  C   C1658     1.0  0.82950  0.81173  0.42753  1.0000
  H   H2822     1.0  0.92366  0.49163  0.26893  1.0000
  H   H2823     1.0  0.88239  0.52290  0.27533  1.0000
  H   H2824     1.0  0.83468  0.93881  0.44067  1.0000
  H   H2825     1.0  0.82335  0.76105  0.42858  1.0000
  C   C1659     1.0  0.79860  0.78529  0.42391  1.0000
  H   H2826     1.0  0.95328  0.49243  0.25045  1.0000
  H   H2827     1.0  0.76364  0.95030  0.36999  1.0000
  C   C1660     1.0  0.65897  0.82003  0.34448  1.0000
  H   H2828     1.0  0.80880  0.79140  0.45457  1.0000
  C   C1661     1.0  0.66395  0.95240  0.26595  1.0000
  H   H2829     1.0  0.78988  0.78288  0.43683  1.0000
  H   H2830     1.0  0.72560  0.79234  0.34260  1.0000
  C   C1662     1.0  0.93927  0.77152  0.48080  1.0000
  H   H2831     1.0  0.97045  0.64553  0.40277  1.0000
  H   H2832     1.0  0.89948  0.63961  0.40186  1.0000
  H   H2833     1.0  0.84299  0.88227  0.48184  1.0000
  H   H2834     1.0  0.96331  0.76941  0.45866  1.0000
  C   C1663     1.0  0.67074  0.80816  0.32997  1.0000
  H   H2835     1.0  0.95045  0.66876  0.30767  1.0000
  H   H2836     1.0  0.81160  0.88822  0.44462  1.0000
  H   H2837     1.0  0.94540  0.59399  0.40157  1.0000
  H   H2838     1.0  0.66740  0.81741  0.35582  1.0000
  H   H2839     1.0  0.83370  0.78362  0.47778  1.0000
  C   C1664     1.0  0.94813  0.63194  0.29679  1.0000
  H   H2840     1.0  0.91645  0.67493  0.28069  1.0000
  H   H2841     1.0  0.96873  0.78507  0.47375  1.0000
  S   S472      1.0  0.65604  0.88430  0.29133  1.0000
  H   H2842     1.0  0.71649  0.93828  0.36574  1.0000
  H   H2843     1.0  0.67150  0.91801  0.23748  1.0000
  H   H2844     1.0  0.82919  0.80931  0.46666  1.0000
  H   H2845     1.0  0.94387  0.55987  0.24284  1.0000
  C   C1665     1.0  0.93216  0.63567  0.40505  1.0000
  H   H2846     1.0  0.94354  0.67503  0.28012  1.0000
  S   S473      1.0  0.65764  0.87877  0.34278  1.0000
  H   H2847     1.0  0.91171  0.68632  0.48304  1.0000
  C   C1666     1.0  0.66523  0.90324  0.23907  1.0000
  H   H2848     1.0  0.94943  0.79486  0.46057  1.0000
  C   C1667     1.0  0.94600  0.48128  0.31056  1.0000
  C   C1668     1.0  0.92810  0.68726  0.47984  1.0000
  H   H2849     1.0  0.70710  0.96986  0.35539  1.0000
  H   H2850     1.0  0.98694  0.68944  0.46828  1.0000
  H   H2851     1.0  0.70719  0.95756  0.32881  1.0000
  C   C1669     1.0  0.95028  0.50660  0.24139  1.0000
  H   H2852     1.0  0.82747  0.91820  0.47651  1.0000
  H   H2853     1.0  0.97980  0.59888  0.40042  1.0000
  H   H2854     1.0  0.75449  0.89007  0.47297  1.0000
  C   C1670     1.0  0.83045  0.88628  0.47352  1.0000
  C   C1671     1.0  0.78384  0.97491  0.36187  1.0000
  C   C1672     1.0  0.66282  0.93566  0.34149  1.0000
  H   H2855     1.0  0.78798  0.81768  0.47339  1.0000
  H   H2856     1.0  0.68235  0.96530  0.32228  1.0000
  C   C1673     1.0  0.89189  0.50967  0.23804  1.0000
  H   H2857     1.0  0.66086  0.96823  0.35428  1.0000
  H   H2858     1.0  0.98165  0.48130  0.34869  1.0000
  H   H2859     1.0  0.65567  0.91441  0.36498  1.0000
  Fe  Fe238     1.0  0.82228  0.88452  0.54204  1.0000
  S   S474      1.0  0.78785  0.89000  0.54382  1.0000
  S   S475      1.0  0.83830  0.91309  0.53700  1.0000
  Fe  Fe239     1.0  0.82395  0.83763  0.54448  1.0000
  S   S476      1.0  0.78891  0.84025  0.54641  1.0000
  S   S477      1.0  0.84021  0.80421  0.54488  1.0000
  Fe  Fe240     1.0  0.79139  0.86679  0.52550  1.0000
  S   S478      1.0  0.77132  0.87845  0.50443  1.0000
  Fe  Fe241     1.0  0.78811  0.86331  0.56446  1.0000
  S   S479      1.0  0.76674  0.86824  0.58901  1.0000
  S   S480      1.0  0.82614  0.86281  0.52216  1.0000
  S   S481      1.0  0.82287  0.85915  0.56415  1.0000
  H   H2860     1.0  0.68618  0.92120  0.65636  1.0000
  H   H2861     1.0  0.95334  0.59170  0.57043  1.0000
  H   H2862     1.0  0.86124  0.95636  0.57926  1.0000
  H   H2863     1.0  0.78360  0.97789  0.49802  1.0000
  Fe  Fe242     1.0  0.94843  0.72560  0.55345  1.0000
  S   S482      1.0  0.93601  0.69876  0.54618  1.0000
  S   S483      1.0  0.93274  0.75925  0.55265  1.0000
  Fe  Fe243     1.0  0.95100  0.68006  0.56849  1.0000
  S   S484      1.0  0.93479  0.65721  0.58811  1.0000
  Fe  Fe244     1.0  0.96749  0.69207  0.53112  1.0000
  S   S485      1.0  0.65579  0.88678  0.64621  1.0000
  S   S486      1.0  0.96141  0.70738  0.57673  1.0000
  C   C1674     1.0  0.95872  0.73855  0.49270  1.0000
  Fe  Fe245     1.0  0.96456  0.54863  0.64604  1.0000
  S   S487      1.0  0.97360  0.55692  0.67003  1.0000
  S   S488      1.0  0.97359  0.56798  0.62054  1.0000
  Fe  Fe246     1.0  0.95242  0.50654  0.66396  1.0000
  S   S489      1.0  0.96058  0.51251  0.68881  1.0000
  H   H2864     1.0  0.76676  0.79273  0.59682  1.0000
  Fe  Fe247     1.0  0.94469  0.54456  0.68307  1.0000
  S   S490      1.0  0.92178  0.55697  0.70435  1.0000
  C   C1675     1.0  0.94666  0.79143  0.51066  1.0000
  S   S491      1.0  0.93424  0.53830  0.65892  1.0000
  C   C1676     1.0  0.67689  0.93581  0.65148  1.0000
  C   C1677     1.0  0.93121  0.56017  0.72322  1.0000
  H   H2865     1.0  0.71483  0.92040  0.52656  1.0000
  C   C1678     1.0  0.86070  0.96527  0.59011  1.0000
  N   N120      1.0  0.80822  0.80015  0.59900  1.0000
  H   H2866     1.0  0.97323  0.64179  0.52939  1.0000
  H   H2867     1.0  0.80377  0.77433  0.58668  1.0000
  H   H2868     1.0  0.96252  0.56255  0.71162  1.0000
  H   H2869     1.0  0.95416  0.63342  0.55735  1.0000
  H   H2870     1.0  0.81040  0.91596  0.56871  1.0000
  H   H2871     1.0  0.93389  0.68401  0.50610  1.0000
  H   H2872     1.0  0.77196  0.81285  0.57956  1.0000
  C   C1679     1.0  0.94699  0.63360  0.59831  1.0000
  C   C1680     1.0  0.93602  0.62315  0.61254  1.0000
  C   C1681     1.0  0.94420  0.60337  0.61989  1.0000
  C   C1682     1.0  0.96322  0.59356  0.61277  1.0000
  C   C1683     1.0  0.97415  0.60401  0.59851  1.0000
  C   C1684     1.0  0.96631  0.62402  0.59151  1.0000
  H   H2873     1.0  0.92100  0.63031  0.61784  1.0000
  H   H2874     1.0  0.93553  0.59553  0.63079  1.0000
  H   H2875     1.0  0.77267  0.93784  0.52116  1.0000
  H   H2876     1.0  0.97496  0.63178  0.58058  1.0000
  C   C1685     1.0  0.86617  0.79218  0.54676  1.0000
  C   C1686     1.0  0.88179  0.80310  0.54916  1.0000
  C   C1687     1.0  0.90195  0.79272  0.55103  1.0000
  C   C1688     1.0  0.90683  0.77131  0.55059  1.0000
  C   C1689     1.0  0.89122  0.76039  0.54815  1.0000
  C   C1690     1.0  0.87106  0.77077  0.54626  1.0000
  H   H2877     1.0  0.87834  0.81953  0.54963  1.0000
  H   H2878     1.0  0.91388  0.80136  0.55288  1.0000
  H   H2879     1.0  0.89466  0.74394  0.54779  1.0000
  H   H2880     1.0  0.85912  0.76212  0.54448  1.0000
  H   H2881     1.0  0.89108  0.50450  0.71080  1.0000
  H   H2882     1.0  0.95521  0.63345  0.51841  1.0000
  H   H2883     1.0  0.88510  0.66288  0.55826  1.0000
  H   H2884     1.0  0.93135  0.58225  0.58264  1.0000
  H   H2885     1.0  0.78873  0.83641  0.49807  1.0000
  C   C1691     1.0  0.74107  0.86253  0.59470  1.0000
  C   C1692     1.0  0.73346  0.84806  0.58710  1.0000
  C   C1693     1.0  0.71297  0.84390  0.59213  1.0000
  C   C1694     1.0  0.69980  0.85439  0.60454  1.0000
  C   C1695     1.0  0.70748  0.86874  0.61222  1.0000
  C   C1696     1.0  0.72807  0.87264  0.60740  1.0000
  H   H2886     1.0  0.74334  0.84002  0.57745  1.0000
  H   H2887     1.0  0.70716  0.83262  0.58628  1.0000
  H   H2888     1.0  0.69754  0.87682  0.62185  1.0000
  H   H2889     1.0  0.73389  0.88371  0.61348  1.0000
  H   H2890     1.0  0.79159  0.96130  0.54256  1.0000
  C   C1697     1.0  0.81572  0.96641  0.56905  1.0000
  C   C1698     1.0  0.83634  0.95260  0.54438  1.0000
  C   C1699     1.0  0.82949  0.93337  0.54956  1.0000
  C   C1700     1.0  0.81571  0.93072  0.56454  1.0000
  C   C1701     1.0  0.80910  0.94710  0.57435  1.0000
  H   H2891     1.0  0.74512  0.90594  0.55962  1.0000
  H   H2892     1.0  0.84710  0.95471  0.53286  1.0000
  S   S492      1.0  0.98104  0.67119  0.55258  1.0000
  H   H2893     1.0  0.95164  0.49695  0.72488  1.0000
  C   C1702     1.0  0.69154  0.95043  0.64115  1.0000
  H   H2894     1.0  0.83307  0.81257  0.58159  1.0000
  S   S493      1.0  0.97913  0.71998  0.53678  1.0000
  H   H2895     1.0  0.66769  0.94243  0.66261  1.0000
  C   C1703     1.0  0.80510  0.83294  0.61373  1.0000
  H   H2896     1.0  0.72252  0.89759  0.57183  1.0000
  H   H2897     1.0  0.90583  0.74910  0.49037  1.0000
  H   H2898     1.0  0.78532  0.78114  0.63915  1.0000
  H   H2899     1.0  0.82109  0.83658  0.60975  1.0000
  H   H2900     1.0  0.74903  0.85191  0.53216  1.0000
  H   H2901     1.0  0.93210  0.79061  0.51946  1.0000
  H   H2902     1.0  0.93432  0.59886  0.53438  1.0000
  H   H2903     1.0  0.67098  0.96169  0.61499  1.0000
  C   C1704     1.0  0.79774  0.82188  0.60052  1.0000
  H   H2904     1.0  0.92448  0.62276  0.52334  1.0000
  C   C1705     1.0  0.70196  0.91281  0.52412  1.0000
  C   C1706     1.0  0.93651  0.50213  0.73231  1.0000
  H   H2905     1.0  0.69093  0.89984  0.55797  1.0000
  H   H2906     1.0  0.94799  0.65616  0.52930  1.0000
  H   H2907     1.0  0.77207  0.78724  0.57528  1.0000
  H   H2908     1.0  0.79980  0.83153  0.58795  1.0000
  H   H2909     1.0  0.80715  0.79710  0.57247  1.0000
  H   H2910     1.0  0.73621  0.83039  0.53152  1.0000
  H   H2911     1.0  0.93082  0.74514  0.52081  1.0000
  H   H2912     1.0  0.81607  0.79019  0.62477  1.0000
  C   C1707     1.0  0.77626  0.79642  0.58450  1.0000
  C   C1708     1.0  0.83098  0.80120  0.59326  1.0000
  C   C1709     1.0  0.78435  0.78501  0.62525  1.0000
  H   H2913     1.0  0.77369  0.79966  0.62418  1.0000
  H   H2914     1.0  0.70455  0.94970  0.64861  1.0000
  H   H2915     1.0  0.92157  0.72568  0.49843  1.0000
  H   H2916     1.0  0.83833  0.80670  0.60309  1.0000
  C   C1710     1.0  0.84448  0.78075  0.58927  1.0000
  H   H2917     1.0  0.84527  0.76913  0.60072  1.0000
  C   C1711     1.0  0.92664  0.75367  0.50842  1.0000
  H   H2918     1.0  0.82145  0.97784  0.51318  1.0000
  H   H2919     1.0  0.79871  0.94481  0.58607  1.0000
  H   H2920     1.0  0.67421  0.85954  0.55651  1.0000
  H   H2921     1.0  0.72574  0.97162  0.63734  1.0000
  C   C1712     1.0  0.80633  0.78633  0.61574  1.0000
  H   H2922     1.0  0.80381  0.82415  0.62665  1.0000
  H   H2923     1.0  0.77730  0.77281  0.62099  1.0000
  H   H2924     1.0  0.90005  0.73726  0.51168  1.0000
  N   N121      1.0  0.92214  0.48617  0.73384  1.0000
  N   N122      1.0  0.71227  0.87860  0.54302  1.0000
  C   C1713     1.0  0.71556  0.85567  0.54222  1.0000
  C   C1714     1.0  0.69431  0.88317  0.55667  1.0000
  C   C1715     1.0  0.73192  0.88443  0.54763  1.0000
  C   C1716     1.0  0.70784  0.88928  0.52567  1.0000
  H   H2925     1.0  0.87311  0.95744  0.59773  1.0000
  H   H2926     1.0  0.66829  0.88298  0.54199  1.0000
  H   H2927     1.0  0.79501  0.84797  0.61467  1.0000
  H   H2928     1.0  0.69873  0.94332  0.62948  1.0000
  H   H2929     1.0  0.71738  0.84707  0.55509  1.0000
  H   H2930     1.0  0.70188  0.85069  0.53819  1.0000
  H   H2931     1.0  0.66853  0.89564  0.71711  1.0000
  H   H2932     1.0  0.69832  0.87556  0.56935  1.0000
  H   H2933     1.0  0.74066  0.87120  0.55506  1.0000
  H   H2934     1.0  0.74283  0.88825  0.53596  1.0000
  H   H2935     1.0  0.78070  0.82283  0.60371  1.0000
  H   H2936     1.0  0.69524  0.88288  0.52124  1.0000
  H   H2937     1.0  0.79873  0.95655  0.52143  1.0000
  H   H2938     1.0  0.86062  0.78380  0.58475  1.0000
  H   H2939     1.0  0.72160  0.88641  0.51597  1.0000
  C   C1717     1.0  0.65865  0.91065  0.71440  1.0000
  C   C1718     1.0  0.95751  0.77002  0.50650  1.0000
  C   C1719     1.0  0.79979  0.79141  0.58542  1.0000
  C   C1720     1.0  0.82931  0.96915  0.55396  1.0000
  C   C1721     1.0  0.66479  0.97106  0.62561  1.0000
  H   H2940     1.0  0.75787  0.97594  0.50728  1.0000
  H   H2941     1.0  0.83929  0.77423  0.57889  1.0000
  C   C1722     1.0  0.95189  0.56266  0.72331  1.0000
  H   H2942     1.0  0.81295  0.77019  0.61386  1.0000
  N   N123      1.0  0.92724  0.62388  0.54987  1.0000
  H   H2943     1.0  0.77186  0.93570  0.54400  1.0000
  C   C1723     1.0  0.92349  0.61150  0.56719  1.0000
  C   C1724     1.0  0.91455  0.64509  0.54966  1.0000
  C   C1725     1.0  0.92279  0.61291  0.53586  1.0000
  C   C1726     1.0  0.95657  0.64032  0.52996  1.0000
  C   C1727     1.0  0.93689  0.59026  0.56996  1.0000
  C   C1728     1.0  0.89359  0.64718  0.56129  1.0000
  C   C1729     1.0  0.90112  0.60636  0.53777  1.0000
  C   C1730     1.0  0.94986  0.62664  0.54662  1.0000
  H   H2944     1.0  0.73197  0.85260  0.51628  1.0000
  H   H2945     1.0  0.90711  0.60879  0.57041  1.0000
  H   H2946     1.0  0.92606  0.62035  0.57724  1.0000
  H   H2947     1.0  0.92327  0.65612  0.55388  1.0000
  H   H2948     1.0  0.91158  0.65171  0.53646  1.0000
  C   C1731     1.0  0.91900  0.48269  0.71620  1.0000
  H   H2949     1.0  0.93070  0.51678  0.72493  1.0000
  H   H2950     1.0  0.75331  0.95366  0.53363  1.0000
  C   C1732     1.0  0.78518  0.96245  0.53031  1.0000
  S   S494      1.0  0.67373  0.84968  0.60944  1.0000
  C   C1733     1.0  0.76977  0.94669  0.53227  1.0000
  H   H2951     1.0  0.93571  0.58027  0.56029  1.0000
  S   S495      1.0  0.97838  0.68363  0.50458  1.0000
  H   H2952     1.0  0.91524  0.51478  0.70318  1.0000
  H   H2953     1.0  0.89605  0.64563  0.57491  1.0000
  H   H2954     1.0  0.88343  0.63602  0.55976  1.0000
  H   H2955     1.0  0.89807  0.59533  0.54938  1.0000
  H   H2956     1.0  0.90009  0.59830  0.52674  1.0000
  H   H2957     1.0  0.88882  0.61984  0.53745  1.0000
  C   C1734     1.0  0.94061  0.68592  0.49288  1.0000
  C   C1735     1.0  0.67355  0.87654  0.55447  1.0000
  H   H2958     1.0  0.87543  0.97965  0.61688  1.0000
  H   H2959     1.0  0.69896  0.91860  0.51081  1.0000
  H   H2960     1.0  0.72035  0.91651  0.55323  1.0000
  H   H2961     1.0  0.66629  0.93157  0.64340  1.0000
  N   N124      1.0  0.68158  0.97224  0.63632  1.0000
  C   C1736     1.0  0.73431  0.84748  0.52980  1.0000
  C   C1737     1.0  0.77191  0.86461  0.48709  1.0000
  H   H2962     1.0  0.68755  0.91756  0.53250  1.0000
  H   H2963     1.0  0.67549  0.96822  0.67761  1.0000
  S   S496      1.0  0.98175  0.51608  0.64908  1.0000
  C   C1738     1.0  0.90750  0.50085  0.70534  1.0000
  H   H2964     1.0  0.84529  0.96437  0.59768  1.0000
  C   C1739     1.0  0.91298  0.74068  0.50157  1.0000
  H   H2965     1.0  0.66811  0.92343  0.71180  1.0000
  H   H2966     1.0  0.96004  0.61162  0.54600  1.0000
  C   C1740     1.0  0.72954  0.90224  0.55859  1.0000
  H   H2967     1.0  0.91624  0.76788  0.51162  1.0000
  H   H2968     1.0  0.90726  0.49640  0.69252  1.0000
  H   H2969     1.0  0.96080  0.76057  0.51879  1.0000
  C   C1741     1.0  0.96188  0.68654  0.48873  1.0000
  C   C1742     1.0  0.98222  0.73847  0.48731  1.0000
  H   H2970     1.0  0.91061  0.97467  0.60869  1.0000
  H   H2971     1.0  0.70005  0.97297  0.66532  1.0000
  H   H2972     1.0  0.65706  0.85146  0.72914  1.0000
  H   H2973     1.0  0.70291  0.97726  0.61326  1.0000
  N   N125      1.0  0.94591  0.75870  0.49678  1.0000
  H   H2974     1.0  0.95700  0.79826  0.51738  1.0000
  C   C1743     1.0  0.68336  0.97878  0.66753  1.0000
  H   H2975     1.0  0.94370  0.80218  0.49900  1.0000
  H   H2976     1.0  0.65606  0.97893  0.65596  1.0000
  H   H2977     1.0  0.66143  0.88243  0.56451  1.0000
  H   H2978     1.0  0.95748  0.72652  0.50397  1.0000
  H   H2979     1.0  0.75891  0.97053  0.55971  1.0000
  H   H2980     1.0  0.97297  0.77251  0.49968  1.0000
  H   H2981     1.0  0.89780  0.52411  0.73089  1.0000
  Fe  Fe248     1.0  0.98838  0.52401  0.67377  1.0000
  C   C1744     1.0  0.78147  0.84418  0.48714  1.0000
  Fe  Fe249     1.0  0.75274  0.56391  0.91760  1.0000
  S   S497      1.0  0.78674  0.55758  0.92118  1.0000
  S   S498      1.0  0.73135  0.59213  0.92684  1.0000
  Fe  Fe250     1.0  0.75322  0.51951  0.90916  1.0000
  S   S499      1.0  0.78675  0.51021  0.91210  1.0000
  H   H2982     1.0  0.89204  0.52182  0.75375  1.0000
  Fe  Fe251     1.0  0.77963  0.52693  0.93528  1.0000
  S   S500      1.0  0.78467  0.50972  0.96128  1.0000
  Fe  Fe252     1.0  0.79125  0.54134  0.89753  1.0000
  S   S501      1.0  0.81363  0.54367  0.87275  1.0000
  S   S502      1.0  0.74577  0.53424  0.93318  1.0000
  S   S503      1.0  0.75755  0.54973  0.89313  1.0000
  H   H2983     1.0  0.75165  0.62178  0.98216  1.0000
  S   S504      1.0  0.96360  0.51429  0.78920  1.0000
  C   C1745     1.0  0.75811  0.57768  0.98293  1.0000
  Fe  Fe253     1.0  0.93043  0.53137  0.83013  1.0000
  S   S505      1.0  0.91777  0.53634  0.80499  1.0000
  S   S506      1.0  0.91156  0.54201  0.85432  1.0000
  Fe  Fe254     1.0  0.93386  0.50449  0.80230  1.0000
  H   H2984     1.0  0.67998  0.91576  0.76707  1.0000
  Fe  Fe255     1.0  0.94864  0.54581  0.79401  1.0000
  S   S507      1.0  0.95318  0.57126  0.77250  1.0000
  S   S508      1.0  0.94446  0.49837  0.82823  1.0000
  S   S509      1.0  0.96049  0.54369  0.81929  1.0000
  C   C1746     1.0  0.76512  0.58563  0.96416  1.0000
  H   H2985     1.0  0.78221  0.58503  0.96156  1.0000
  H   H2986     1.0  0.90152  0.55869  0.73843  1.0000
  C   C1747     1.0  0.94499  0.56609  0.75370  1.0000
  H   H2987     1.0  0.89016  0.48204  0.74231  1.0000
  H   H2988     1.0  0.77228  0.48115  0.89013  1.0000
  H   H2989     1.0  0.67749  0.90209  0.74123  1.0000
  H   H2990     1.0  0.69048  0.68926  0.88019  1.0000
  H   H2991     1.0  0.69594  0.54390  0.86904  1.0000
  C   C1748     1.0  0.95865  0.56605  0.73846  1.0000
  H   H2992     1.0  0.81402  0.53834  0.96039  1.0000
  C   C1749     1.0  0.70382  0.54903  0.87868  1.0000
  C   C1750     1.0  0.84114  0.54138  0.86869  1.0000
  C   C1751     1.0  0.85100  0.53650  0.85264  1.0000
  C   C1752     1.0  0.87262  0.53585  0.84832  1.0000
  C   C1753     1.0  0.88461  0.54061  0.85987  1.0000
  C   C1754     1.0  0.87480  0.54541  0.87595  1.0000
  C   C1755     1.0  0.85322  0.54560  0.88042  1.0000
  H   H2993     1.0  0.84181  0.53327  0.84345  1.0000
  H   H2994     1.0  0.87989  0.53207  0.83592  1.0000
  H   H2995     1.0  0.88391  0.54913  0.88498  1.0000
  H   H2996     1.0  0.84586  0.54955  0.89276  1.0000
  C   C1756     1.0  0.68090  0.63954  0.90272  1.0000
  C   C1757     1.0  0.80665  0.53531  0.97335  1.0000
  C   C1758     1.0  0.71192  0.61000  0.91714  1.0000
  C   C1759     1.0  0.71092  0.61255  0.89958  1.0000
  C   C1760     1.0  0.69552  0.62723  0.89244  1.0000
  C   C1761     1.0  0.70160  0.55617  0.90790  1.0000
  H   H2997     1.0  0.72234  0.60361  0.89144  1.0000
  H   H2998     1.0  0.69507  0.62922  0.87881  1.0000
  C   C1762     1.0  0.69732  0.62235  0.92742  1.0000
  H   H2999     1.0  0.69799  0.62060  0.94100  1.0000
  H   H3000     1.0  0.91391  0.56282  0.76538  1.0000
  H   H3001     1.0  0.73199  0.69779  0.86744  1.0000
  C   C1763     1.0  0.94145  0.50757  0.74925  1.0000
  H   H3002     1.0  0.66908  0.69846  0.86114  1.0000
  H   H3003     1.0  0.70384  0.67606  0.90562  1.0000
  C   C1764     1.0  0.68186  0.63697  0.92029  1.0000
  C   C1765     1.0  0.70290  0.69307  0.90256  1.0000
  C   C1766     1.0  0.92453  0.56286  0.75370  1.0000
  C   C1767     1.0  0.66340  0.90183  0.75076  1.0000
  H   H3004     1.0  0.68290  0.71632  0.84559  1.0000
  C   C1768     1.0  0.71990  0.70740  0.86026  1.0000
  H   H3005     1.0  0.74191  0.57462  0.98330  1.0000
  C   C1769     1.0  0.71487  0.56693  0.86879  1.0000
  S   S510      1.0  0.92029  0.48352  0.78893  1.0000
  H   H3006     1.0  0.68193  0.57854  0.92330  1.0000
  H   H3007     1.0  0.70712  0.73951  0.86077  1.0000
  H   H3008     1.0  0.72837  0.71392  0.84811  1.0000
  H   H3009     1.0  0.92732  0.51278  0.75770  1.0000
  H   H3010     1.0  0.67117  0.52510  0.87657  1.0000
  H   H3011     1.0  0.68220  0.88844  0.77079  1.0000
  H   H3012     1.0  0.71202  0.56795  0.90338  1.0000
  C   C1770     1.0  0.67069  0.72838  0.86988  1.0000
  C   C1771     1.0  0.67767  0.53536  0.90012  1.0000
  H   H3013     1.0  0.69652  0.73288  0.90293  1.0000
  C   C1772     1.0  0.90165  0.49165  0.74453  1.0000
  H   H3014     1.0  0.70972  0.69741  0.85677  1.0000
  C   C1773     1.0  0.66991  0.71481  0.85600  1.0000
  S   S511      1.0  0.73129  0.49762  0.90585  1.0000
  C   C1774     1.0  0.67120  0.90264  0.76784  1.0000
  H   H3015     1.0  0.69742  0.76360  0.87991  1.0000
  N   N126      1.0  0.89853  0.59903  0.81187  1.0000
  C   C1775     1.0  0.88893  0.58545  0.82686  1.0000
  C   C1776     1.0  0.92172  0.59290  0.81066  1.0000
  C   C1777     1.0  0.89101  0.59446  0.79607  1.0000
  C   C1778     1.0  0.89180  0.62127  0.81469  1.0000
  C   C1779     1.0  0.86501  0.58779  0.82966  1.0000
  C   C1780     1.0  0.93155  0.59443  0.82672  1.0000
  C   C1781     1.0  0.89920  0.60619  0.77896  1.0000
  C   C1782     1.0  0.90590  0.63710  0.80533  1.0000
  H   H3016     1.0  0.89464  0.56890  0.82573  1.0000
  H   H3017     1.0  0.89358  0.58827  0.83906  1.0000
  H   H3018     1.0  0.93017  0.60185  0.79982  1.0000
  H   H3019     1.0  0.92597  0.57675  0.80780  1.0000
  H   H3020     1.0  0.89486  0.57771  0.79485  1.0000
  H   H3021     1.0  0.87385  0.59801  0.79689  1.0000
  H   H3022     1.0  0.87590  0.62661  0.81118  1.0000
  H   H3023     1.0  0.89077  0.62275  0.82853  1.0000
  H   H3024     1.0  0.85767  0.60406  0.82923  1.0000
  H   H3025     1.0  0.85899  0.58003  0.82041  1.0000
  H   H3026     1.0  0.85991  0.58000  0.84254  1.0000
  H   H3027     1.0  0.92866  0.58137  0.83676  1.0000
  H   H3028     1.0  0.94864  0.59331  0.82341  1.0000
  H   H3029     1.0  0.92595  0.60913  0.83200  1.0000
  H   H3030     1.0  0.89309  0.62283  0.77812  1.0000
  H   H3031     1.0  0.89349  0.60025  0.76848  1.0000
  H   H3032     1.0  0.91633  0.60377  0.77629  1.0000
  H   H3033     1.0  0.89604  0.65192  0.80185  1.0000
  H   H3034     1.0  0.91526  0.63287  0.79339  1.0000
  H   H3035     1.0  0.91620  0.64061  0.81402  1.0000
  C   C1783     1.0  0.68317  0.75978  0.88819  1.0000
  C   C1784     1.0  0.70881  0.72532  0.87014  1.0000
  C   C1785     1.0  0.66273  0.53126  0.88822  1.0000
  H   H3036     1.0  0.95078  0.52049  0.74643  1.0000
  H   H3037     1.0  0.67078  0.64635  0.92837  1.0000
  H   H3038     1.0  0.72325  0.57409  0.87680  1.0000
  H   H3039     1.0  0.65870  0.90297  0.77869  1.0000
  C   C1786     1.0  0.68419  0.73648  0.89439  1.0000
  H   H3040     1.0  0.68913  0.52111  0.90193  1.0000
  H   H3041     1.0  0.71199  0.54151  0.91101  1.0000
  H   H3042     1.0  0.66941  0.76596  0.88159  1.0000
  S   S512      1.0  0.66223  0.65819  0.89287  1.0000
  H   H3043     1.0  0.67181  0.69904  0.89595  1.0000
  H   H3044     1.0  0.66938  0.73419  0.90274  1.0000
  C   C1787     1.0  0.67453  0.57346  0.88974  1.0000
  H   H3045     1.0  0.71997  0.72785  0.87858  1.0000
  H   H3046     1.0  0.87465  0.51506  0.74129  1.0000
  H   H3047     1.0  0.69727  0.69957  0.91471  1.0000
  H   H3048     1.0  0.68302  0.58697  0.88846  1.0000
  N   N127      1.0  0.68881  0.55387  0.89429  1.0000
  H   H3049     1.0  0.70120  0.56197  0.93393  1.0000
  H   H3050     1.0  0.66862  0.53607  0.91287  1.0000
  C   C1788     1.0  0.68762  0.70069  0.88934  1.0000
  H   H3051     1.0  0.76094  0.57532  0.95581  1.0000
  N   N128      1.0  0.68822  0.72241  0.88062  1.0000
  C   C1789     1.0  0.79120  0.52256  0.97703  1.0000
  H   H3052     1.0  0.72661  0.56082  0.85862  1.0000
  H   H3053     1.0  0.67094  0.74422  0.86303  1.0000
  H   H3054     1.0  0.65851  0.88636  0.75134  1.0000
  H   H3055     1.0  0.76742  0.56231  0.98579  1.0000
  H   H3056     1.0  0.70390  0.57903  0.86237  1.0000
  H   H3057     1.0  0.68149  0.76819  0.89948  1.0000
  H   H3058     1.0  0.67882  0.55181  0.93118  1.0000
  Fe  Fe256     1.0  0.97335  0.51101  0.81528  1.0000
  C   C1790     1.0  0.68979  0.56243  0.92490  1.0000
  H   H3059     1.0  0.66980  0.57361  0.87688  1.0000
  H   H3060     1.0  0.75734  0.60135  0.96023  1.0000
  H   H3061     1.0  0.71600  0.53589  0.88206  1.0000
  H   H3062     1.0  0.71874  0.69663  0.89777  1.0000
  C   C1791     1.0  0.89139  0.51444  0.74226  1.0000
  H   H3063     1.0  0.66318  0.96126  0.75665  1.0000
  H   H3064     1.0  0.90339  0.48777  0.75831  1.0000
  H   H3065     1.0  0.95096  0.49462  0.75619  1.0000
  H   H3066     1.0  0.78564  0.60495  0.98129  1.0000
  H   H3067     1.0  0.97449  0.56856  0.73837  1.0000
  H   H3068     1.0  0.66199  0.64965  0.98084  1.0000
  C   C1792     1.0  0.91756  0.56040  0.73844  1.0000
  H   H3069     1.0  0.82556  0.55287  0.98376  1.0000
  H   H3070     1.0  0.65549  0.72038  0.85004  1.0000
  H   H3071     1.0  0.66966  0.93853  0.73663  1.0000
  H   H3072     1.0  0.65555  0.72867  0.87822  1.0000
