data_image0
_chemical_formula_structural       H3S2HFeSHFeSCHFeSH2SHC6H5C6H4CH3SC2HCHCH3CH3CH6CHCH4FeHCH8SC2H4FeH2CH3CNH2NHC2H2C2H3SC2HCH2CHCH2SFeCH2SCHCH8CHCHCHNC2SCH4SHC2HCH2SC3H6C2SHCHSH4NH3SCHCSHSH2CH2S2FeS2FeSHFeSCFeSFeS3C6H4C6H3FeH2CHSCFeHCHC4HCHFeH4NHSH3CHC2HC2HC2H4CHS2CFeH3CFeH2FeHC2HCNCS2H4CHCHC4H2CH3NFeHCHCH2SH2SH2C4HSH2CH2CHCHFeSHFeHSH2SH4FeSCH2SC2H4C5H3CH2C6H4NH3CHS2HFeH3C6H5C3HCHC2SC2H3SH2CHC2H7C3NC2H4CH4Fe2SH6NCNCH2CHCH2SCHC2H2CH10CS2H3CH3C2SCSH5CSH5CH3SH3CFeS2FeSHFeSFeS3HC2H2S2FeS2FeS2FeSFeS2CSHC2SHCH7SHCHC2H3CHCHCH4CH2FeC7H4FeC3HCH3C3HNH2CHCH4CH8C2HCHCHNC8H20CHC3HSCHCHC2H3C2H2CHNCHC2H4C2H3C2H7FeHNH3C2H2CH2C2SHCH3CHCH3C3H3SHSC2HCH2CHCHNH2CH2CH2CH4CHC5H2NCSH3CHCH10C2H3FeSHFeS2FeSFeHS2CH4FeS2FeS2FeSFeSH3NFeS2FeSHSH3CNHC7H3CH2SC6H8C2H3C7H4C6H5CH9SH2CH3C2H2CHC2SH2CH5CH2FeH2CHCHCHSHC2HCHCHCHC2SH3SC2H3C2H8CHNCHCHNCH3N2C2H6C3NH4CHCH4CHCH2C2SFeHFeHCHFeCH3C3HCH5CH7C2HCHCHCHNH2CH2C2FeS2FeS2FeHFeS3FeS2FeSHFeSFeHSC2H2SCH2C2H3CH6C3H3CHCHCH2C2H2C6H4C6H5C5H4C2NC6FeCH11CH7CH2C2H3CHNH2SH2CSHSCHCHNH3CNHSC2H2CH3NC2HCH10FeHC2SHCHCSC2H5CNHC2HCH3SH3C2HCH5C3H7CH2C5HCHFeH2CHCH7C2HC2HCHCH4CH5CH3C2H7CH5CH5CH6C2FeS2FeS2FeHFeS3CS2CH2CH2S2FeHCFeCSFeSHSFeHCFeHC6H5SC3H2C4HCH4C6H4C6SCH3CSH8CH2NHCHC4HCH11CH3CHCH2CHCH2CH5NH5C2H4CHCH2CH2CHNH3CH2NHC3H2SCHCH2C2H2C3H3SCH3CHC2SCHSC2H7FeHCH6CFeCHCH2CHCH2NH3CHSC2HSH3SC2HCHSC3SCHCHCHCH5CNC5H7CH3CHCFeCHSH2CHCH2CH3SH4FeHNH5SHCHFeCH3CHCH6CH2C2H2CFeCHCH2FeSFeSHFeSHSFeS2FeS2FeSFeS3C6H6CHCHC6H5CH3SCH2SHC5H4SH4C2HCHCHNH2C2HFeH4N2CHCHCHCHCNH3C2H5SCH7CHCH5SH4SHCHC2HC3HC2H10CNH5FeHCHFeCHCNC5HC2HC2H8SH3CH3C2H2CHSFeH4C2HC3FeHC2H6CHSHSFeSFeSH3FeSCHSHFeSFeH2SHSCHCH4SCHCHSHCHC6H4CNSH3FeH3C2H2C3H5NCHC2HSHSCH2CHC2H8C3HCNC5H2CH12CFeH2NHCFeHCS2HCHCH2CH3FeC2H2CSH2C2H6C3H3SH2C4HSHC3SCHSH
_chemical_formula_sum              "H1152 S192 Fe96 C672 N48"
_cell_length_a       45.6121
_cell_length_b       43.7269
_cell_length_c       58.4424
_cell_angle_alpha    84.5719
_cell_angle_beta     90.3536
_cell_angle_gamma    90.0285

_space_group_name_H-M_alt    "P 1"
_space_group_IT_number       1

loop_
  _space_group_symop_operation_xyz
  'x, y, z'

loop_
  _atom_site_type_symbol
  _atom_site_label
  _atom_site_symmetry_multiplicity
  _atom_site_fract_x
  _atom_site_fract_y
  _atom_site_fract_z
  _atom_site_occupancy
  H   H1        1.0  0.27917  0.11142  0.14602  1.0000
  H   H2        1.0  0.00166  0.33872  0.29296  1.0000
  H   H3        1.0  0.35070  0.03576  0.09833  1.0000
  S   S1        1.0  0.37709  0.10151  0.18967  1.0000
  S   S2        1.0  0.39179  0.02909  0.15974  1.0000
  H   H4        1.0  0.34147  0.02251  0.12712  1.0000
  Fe  Fe1       1.0  0.43267  0.00687  0.17488  1.0000
  S   S3        1.0  0.36110  0.01425  0.21032  1.0000
  H   H5        1.0  0.01217  0.21353  0.14167  1.0000
  Fe  Fe2       1.0  0.01624  0.37707  0.22121  1.0000
  S   S4        1.0  0.03758  0.36645  0.25575  1.0000
  C   C1        1.0  0.33314  0.03592  0.11140  1.0000
  H   H6        1.0  0.31886  0.03612  0.15869  1.0000
  Fe  Fe3       1.0  0.46763  0.16753  0.28431  1.0000
  S   S5        1.0  0.15888  0.43383  0.26633  1.0000
  H   H7        1.0  0.40712  0.32425  0.31306  1.0000
  H   H8        1.0  0.47868  0.09409  0.23268  1.0000
  S   S6        1.0  0.49408  0.19778  0.30561  1.0000
  H   H9        1.0  0.02139  0.04912  0.02764  1.0000
  C   C2        1.0  0.07170  0.38436  0.25851  1.0000
  C   C3        1.0  0.07809  0.39823  0.27857  1.0000
  C   C4        1.0  0.10477  0.41347  0.28086  1.0000
  C   C5        1.0  0.12584  0.41378  0.26360  1.0000
  C   C6        1.0  0.12001  0.39883  0.24388  1.0000
  C   C7        1.0  0.09267  0.38471  0.24110  1.0000
  H   H10       1.0  0.06229  0.39779  0.29227  1.0000
  H   H11       1.0  0.10885  0.42500  0.29608  1.0000
  H   H12       1.0  0.13634  0.39868  0.23055  1.0000
  H   H13       1.0  0.08800  0.37365  0.22569  1.0000
  H   H14       1.0  0.34087  0.11795  0.14826  1.0000
  C   C8        1.0  0.43151  0.16199  0.23349  1.0000
  C   C9        1.0  0.42829  0.13068  0.24068  1.0000
  C   C10       1.0  0.41182  0.11165  0.22725  1.0000
  C   C11       1.0  0.39795  0.12419  0.20702  1.0000
  C   C12       1.0  0.40085  0.15557  0.20017  1.0000
  C   C13       1.0  0.41784  0.17430  0.21319  1.0000
  H   H15       1.0  0.43867  0.12107  0.25645  1.0000
  H   H16       1.0  0.40947  0.08745  0.23276  1.0000
  H   H17       1.0  0.39024  0.16534  0.18456  1.0000
  H   H18       1.0  0.42027  0.19845  0.20757  1.0000
  C   C14       1.0  0.32300  0.12895  0.13762  1.0000
  H   H19       1.0  0.05081  0.07252  0.06830  1.0000
  H   H20       1.0  0.28758  0.11582  0.11675  1.0000
  H   H21       1.0  0.42274  0.27178  0.22676  1.0000
  S   S7        1.0  0.45280  0.18649  0.24904  1.0000
  C   C15       1.0  0.04590  0.05408  0.12396  1.0000
  C   C16       1.0  0.29700  0.10725  0.13375  1.0000
  H   H22       1.0  0.40932  0.23012  0.25521  1.0000
  C   C17       1.0  0.08388  0.46531  0.21128  1.0000
  H   H23       1.0  0.31533  0.14833  0.14704  1.0000
  C   C18       1.0  0.03988  0.00075  0.11623  1.0000
  H   H24       1.0  0.43459  0.24482  0.31272  1.0000
  H   H25       1.0  0.06529  0.46701  0.19889  1.0000
  H   H26       1.0  0.04887  0.20603  0.15065  1.0000
  C   C19       1.0  0.00284  0.34279  0.31136  1.0000
  H   H27       1.0  0.43401  0.11131  0.16487  1.0000
  H   H28       1.0  0.06019  0.07313  0.12675  1.0000
  H   H29       1.0  0.34750  0.08039  0.11942  1.0000
  C   C20       1.0  0.26058  0.06306  0.10764  1.0000
  H   H30       1.0  0.13032  0.48297  0.23612  1.0000
  H   H31       1.0  0.18319  0.32799  0.30999  1.0000
  H   H32       1.0  0.04219  0.14225  0.17544  1.0000
  H   H33       1.0  0.27472  0.05952  0.09278  1.0000
  H   H34       1.0  0.10409  0.43397  0.17602  1.0000
  H   H35       1.0  0.08133  0.01237  0.99743  1.0000
  C   C21       1.0  0.40264  0.25345  0.25937  1.0000
  H   H36       1.0  0.19941  0.38046  0.28918  1.0000
  C   C22       1.0  0.12231  0.45061  0.17271  1.0000
  H   H37       1.0  0.14231  0.44225  0.18218  1.0000
  H   H38       1.0  0.28082  0.03087  0.13289  1.0000
  H   H39       1.0  0.46183  0.12797  0.19609  1.0000
  H   H40       1.0  0.47674  0.26474  0.30228  1.0000
  Fe  Fe4       1.0  0.38906  0.05145  0.19260  1.0000
  H   H41       1.0  0.38198  0.21115  0.29448  1.0000
  C   C23       1.0  0.40228  0.27441  0.23659  1.0000
  H   H42       1.0  0.39880  0.29889  0.23932  1.0000
  H   H43       1.0  0.02965  0.25107  0.20000  1.0000
  H   H44       1.0  0.47235  0.30380  0.28890  1.0000
  H   H45       1.0  0.08749  0.46789  0.24900  1.0000
  H   H46       1.0  0.37628  0.24590  0.30844  1.0000
  H   H47       1.0  0.31396  0.02394  0.10466  1.0000
  H   H48       1.0  0.24177  0.04696  0.10695  1.0000
  H   H49       1.0  0.38403  0.26725  0.22560  1.0000
  S   S8        1.0  0.18972  0.49580  0.30617  1.0000
  C   C24       1.0  0.03520  0.05542  0.06232  1.0000
  C   C25       1.0  0.03634  0.23305  0.18887  1.0000
  H   H50       1.0  0.03839  0.18238  0.11582  1.0000
  H   H51       1.0  0.45266  0.28638  0.25423  1.0000
  H   H52       1.0  0.46476  0.12954  0.15062  1.0000
  H   H53       1.0  0.00145  0.20518  0.20357  1.0000
  Fe  Fe5       1.0  0.15485  0.46360  0.29553  1.0000
  H   H54       1.0  0.00818  0.16117  0.12805  1.0000
  H   H55       1.0  0.02453  0.16742  0.22060  1.0000
  C   C26       1.0  0.03952  0.16313  0.18474  1.0000
  H   H56       1.0  0.06154  0.17412  0.18328  1.0000
  H   H57       1.0  0.05660  0.14594  0.21831  1.0000
  H   H58       1.0  0.03524  0.08621  0.03168  1.0000
  C   C27       1.0  0.47284  0.11012  0.18681  1.0000
  N   N1        1.0  0.42156  0.26402  0.27844  1.0000
  H   H59       1.0  0.05541  0.22083  0.19724  1.0000
  H   H60       1.0  0.31886  0.08161  0.09890  1.0000
  N   N2        1.0  0.01604  0.18364  0.17334  1.0000
  H   H61       1.0  0.13981  0.45420  0.21885  1.0000
  C   C28       1.0  0.23979  0.42013  0.29702  1.0000
  C   C29       1.0  0.41477  0.30060  0.31080  1.0000
  H   H62       1.0  0.08171  0.02269  0.11965  1.0000
  H   H63       1.0  0.27959  0.37438  0.31672  1.0000
  C   C30       1.0  0.32616  0.06948  0.11556  1.0000
  C   C31       1.0  0.07078  0.46946  0.23513  1.0000
  H   H64       1.0  0.41743  0.31367  0.27442  1.0000
  H   H65       1.0  0.26023  0.05978  0.14439  1.0000
  H   H66       1.0  0.09135  0.44106  0.21198  1.0000
  S   S9        1.0  0.99774  0.42430  0.21228  1.0000
  C   C32       1.0  0.02047  0.06774  0.03936  1.0000
  C   C33       1.0  0.45816  0.11004  0.16289  1.0000
  H   H67       1.0  0.22111  0.42909  0.28609  1.0000
  C   C34       1.0  0.13476  0.47913  0.21793  1.0000
  H   H68       1.0  0.43380  0.21810  0.29204  1.0000
  H   H69       1.0  0.01187  0.45053  0.28121  1.0000
  C   C35       1.0  0.45225  0.26872  0.26920  1.0000
  H   H70       1.0  0.04277  0.24546  0.17221  1.0000
  C   C36       1.0  0.01011  0.21143  0.18610  1.0000
  H   H71       1.0  0.12716  0.45118  0.15407  1.0000
  H   H72       1.0  0.30387  0.09568  0.18040  1.0000
  S   S10       1.0  0.43664  0.15223  0.31260  1.0000
  Fe  Fe6       1.0  0.01587  0.41935  0.17724  1.0000
  C   C37       1.0  0.19055  0.37831  0.30698  1.0000
  H   H73       1.0  0.00199  0.13446  0.07974  1.0000
  H   H74       1.0  0.37935  0.25109  0.26484  1.0000
  S   S11       1.0  0.43209  0.03267  0.20608  1.0000
  C   C38       1.0  0.17055  0.34973  0.30859  1.0000
  H   H75       1.0  0.31264  0.05883  0.19416  1.0000
  C   C39       1.0  0.27653  0.05592  0.13089  1.0000
  H   H76       1.0  0.02199  0.12917  0.21127  1.0000
  H   H77       1.0  0.48161  0.17075  0.16481  1.0000
  H   H78       1.0  0.27854  0.06370  0.17914  1.0000
  H   H79       1.0  0.38142  0.49149  0.31294  1.0000
  H   H80       1.0  0.04862  0.03488  0.05961  1.0000
  H   H81       1.0  0.46277  0.08818  0.15530  1.0000
  H   H82       1.0  0.05480  0.45066  0.23955  1.0000
  H   H83       1.0  0.25077  0.40153  0.28870  1.0000
  C   C40       1.0  0.02686  0.19521  0.14969  1.0000
  H   H84       1.0  0.38483  0.29443  0.28349  1.0000
  C   C41       1.0  0.02970  0.17104  0.13220  1.0000
  H   H85       1.0  0.46050  0.24716  0.26275  1.0000
  C   C42       1.0  0.03457  0.49506  0.15817  1.0000
  H   H86       1.0  0.17610  0.39858  0.30789  1.0000
  N   N3        1.0  0.30435  0.07363  0.13429  1.0000
  C   C43       1.0  0.01534  0.05812  0.12427  1.0000
  C   C44       1.0  0.31771  0.06162  0.15709  1.0000
  S   S12       1.0  0.03774  0.37399  0.18722  1.0000
  C   C45       1.0  0.30188  0.07070  0.17869  1.0000
  H   H87       1.0  0.02000  0.04822  0.07633  1.0000
  H   H88       1.0  0.23763  0.00537  0.18191  1.0000
  H   H89       1.0  0.33253  0.13827  0.12094  1.0000
  H   H90       1.0  0.34091  0.06887  0.15848  1.0000
  S   S13       1.0  0.04104  0.45583  0.15562  1.0000
  H   H91       1.0  0.25126  0.08657  0.10578  1.0000
  C   C46       1.0  0.00374  0.12654  0.06228  1.0000
  C   C47       1.0  0.11357  0.48319  0.17818  1.0000
  H   H92       1.0  0.00414  0.07409  0.99366  1.0000
  C   C48       1.0  0.40910  0.29364  0.28572  1.0000
  H   H93       1.0  0.43816  0.29963  0.31567  1.0000
  H   H94       1.0  0.01158  0.39694  0.29025  1.0000
  S   S14       1.0  0.00101  0.09467  0.12866  1.0000
  C   C49       1.0  0.39174  0.22687  0.30631  1.0000
  C   C50       1.0  0.03488  0.15083  0.21006  1.0000
  C   C51       1.0  0.47559  0.27938  0.28583  1.0000
  H   H95       1.0  0.00447  0.41350  0.31613  1.0000
  H   H96       1.0  0.00018  0.12046  0.01769  1.0000
  H   H97       1.0  0.04513  0.15228  0.13798  1.0000
  H   H98       1.0  0.48197  0.01565  0.30221  1.0000
  H   H99       1.0  0.01443  0.48859  0.19148  1.0000
  H   H100      1.0  0.05851  0.49133  0.23509  1.0000
  C   C52       1.0  0.00931  0.00477  0.11669  1.0000
  C   C53       1.0  0.05815  0.02553  0.11991  1.0000
  S   S15       1.0  0.47027  0.00316  0.15048  1.0000
  H   H101      1.0  0.15689  0.35036  0.29271  1.0000
  C   C54       1.0  0.42205  0.23841  0.29762  1.0000
  H   H102      1.0  0.46612  0.08778  0.19594  1.0000
  S   S16       1.0  0.99804  0.31284  0.15418  1.0000
  H   H103      1.0  0.02720  0.12197  0.05925  1.0000
  H   H104      1.0  0.02371  0.35482  0.31458  1.0000
  H   H105      1.0  0.38446  0.01161  0.30871  1.0000
  H   H106      1.0  0.18222  0.48231  0.21818  1.0000
  N   N4        1.0  0.10818  0.48718  0.20316  1.0000
  H   H107      1.0  0.23673  0.34793  0.30264  1.0000
  H   H108      1.0  0.09365  0.48977  0.16783  1.0000
  H   H109      1.0  0.25560  0.43938  0.29772  1.0000
  S   S17       1.0  0.49703  0.12685  0.29071  1.0000
  C   C55       1.0  0.40595  0.30317  0.43246  1.0000
  H   H110      1.0  0.46502  0.24954  0.61033  1.0000
  C   C56       1.0  0.25451  0.40387  0.60808  1.0000
  S   S18       1.0  0.49098  0.19910  0.63827  1.0000
  H   H111      1.0  0.24853  0.41073  0.33314  1.0000
  S   S19       1.0  0.44172  0.20918  0.35891  1.0000
  H   H112      1.0  0.22042  0.43701  0.63699  1.0000
  H   H113      1.0  0.20497  0.37436  0.59809  1.0000
  C   C57       1.0  0.27781  0.41127  0.58932  1.0000
  H   H114      1.0  0.40822  0.25664  0.37715  1.0000
  H   H115      1.0  0.47854  0.33135  0.46580  1.0000
  S   S20       1.0  0.41293  0.37091  0.60601  1.0000
  S   S21       1.0  0.40836  0.44742  0.60250  1.0000
  Fe  Fe7       1.0  0.43301  0.41159  0.58487  1.0000
  S   S22       1.0  0.44567  0.42143  0.54743  1.0000
  S   S23       1.0  0.47281  0.41273  0.60769  1.0000
  Fe  Fe8       1.0  0.43717  0.38380  0.38220  1.0000
  S   S24       1.0  0.39018  0.37490  0.39176  1.0000
  H   H116      1.0  0.47289  0.26133  0.47001  1.0000
  Fe  Fe9       1.0  0.43790  0.44722  0.40085  1.0000
  S   S25       1.0  0.39070  0.44288  0.41194  1.0000
  C   C58       1.0  0.00884  0.48269  0.33886  1.0000
  Fe  Fe10      1.0  0.40276  0.39454  0.42482  1.0000
  S   S26       1.0  0.38768  0.37165  0.45907  1.0000
  Fe  Fe11      1.0  0.38208  0.42405  0.37812  1.0000
  S   S27       1.0  0.34726  0.44081  0.35174  1.0000
  S   S28       1.0  0.45052  0.39998  0.41628  1.0000
  S   S29       1.0  0.42856  0.43178  0.36602  1.0000
  C   C59       1.0  0.42853  0.40737  0.52336  1.0000
  C   C60       1.0  0.40621  0.38534  0.52552  1.0000
  C   C61       1.0  0.39362  0.37458  0.50570  1.0000
  C   C62       1.0  0.40314  0.38595  0.48369  1.0000
  C   C63       1.0  0.42539  0.40800  0.48159  1.0000
  C   C64       1.0  0.43808  0.41855  0.50134  1.0000
  H   H117      1.0  0.39879  0.37653  0.54241  1.0000
  H   H118      1.0  0.37647  0.35745  0.50741  1.0000
  H   H119      1.0  0.43282  0.41698  0.46475  1.0000
  H   H120      1.0  0.45531  0.43560  0.49956  1.0000
  C   C65       1.0  0.24981  0.45827  0.36544  1.0000
  C   C66       1.0  0.26784  0.44447  0.38311  1.0000
  C   C67       1.0  0.29792  0.43962  0.37941  1.0000
  C   C68       1.0  0.31018  0.44846  0.35793  1.0000
  C   C69       1.0  0.29235  0.46304  0.34047  1.0000
  C   C70       1.0  0.26237  0.46821  0.34426  1.0000
  H   H121      1.0  0.25835  0.43689  0.39960  1.0000
  H   H122      1.0  0.31144  0.42847  0.39301  1.0000
  H   H123      1.0  0.39438  0.21334  0.32327  1.0000
  Fe  Fe12      1.0  0.11154  0.47876  0.33216  1.0000
  H   H124      1.0  0.28453  0.43577  0.58832  1.0000
  H   H125      1.0  0.21406  0.42755  0.32668  1.0000
  C   C71       1.0  0.47026  0.28981  0.62869  1.0000
  H   H126      1.0  0.47328  0.29607  0.40862  1.0000
  S   S30       1.0  0.49472  0.13893  0.34579  1.0000
  C   C72       1.0  0.21018  0.38905  0.64341  1.0000
  Fe  Fe13      1.0  0.44716  0.44583  0.62642  1.0000
  H   H127      1.0  0.24079  0.46431  0.60454  1.0000
  C   C73       1.0  0.44897  0.24875  0.36016  1.0000
  H   H128      1.0  0.44524  0.34287  0.45233  1.0000
  C   C74       1.0  0.39123  0.00072  0.32589  1.0000
  C   C75       1.0  0.45891  0.31227  0.36245  1.0000
  C   C76       1.0  0.43305  0.29869  0.37123  1.0000
  C   C77       1.0  0.42825  0.26701  0.37028  1.0000
  H   H129      1.0  0.30171  0.47012  0.32384  1.0000
  C   C78       1.0  0.22934  0.40953  0.32157  1.0000
  H   H130      1.0  0.41678  0.31262  0.37871  1.0000
  Fe  Fe14      1.0  0.39108  0.40716  0.62531  1.0000
  H   H131      1.0  0.40243  0.28489  0.32326  1.0000
  H   H132      1.0  0.23865  0.45223  0.57679  1.0000
  H   H133      1.0  0.45600  0.33054  0.41396  1.0000
  H   H134      1.0  0.23004  0.37709  0.56355  1.0000
  N   N5        1.0  0.21497  0.37836  0.32456  1.0000
  H   H135      1.0  0.27082  0.40533  0.57218  1.0000
  S   S31       1.0  0.14621  0.44252  0.33121  1.0000
  H   H136      1.0  0.00443  0.46144  0.33153  1.0000
  H   H137      1.0  0.33391  0.45791  0.61471  1.0000
  H   H138      1.0  0.43494  0.26617  0.42624  1.0000
  C   C79       1.0  0.31923  0.42837  0.64392  1.0000
  H   H139      1.0  0.20899  0.37449  0.38470  1.0000
  C   C80       1.0  0.31777  0.45449  0.62820  1.0000
  C   C81       1.0  0.43224  0.28206  0.43989  1.0000
  H   H140      1.0  0.23460  0.35150  0.37110  1.0000
  C   C82       1.0  0.20121  0.37414  0.34809  1.0000
  C   C83       1.0  0.44076  0.31210  0.48318  1.0000
  H   H141      1.0  0.23724  0.39323  0.36811  1.0000
  C   C84       1.0  0.47378  0.25847  0.62561  1.0000
  C   C85       1.0  0.47478  0.26235  0.35134  1.0000
  H   H142      1.0  0.41163  0.32761  0.42843  1.0000
  H   H143      1.0  0.19874  0.37004  0.63581  1.0000
  H   H144      1.0  0.39542  0.29537  0.41684  1.0000
  H   H145      1.0  0.45895  0.30491  0.61580  1.0000
  C   C86       1.0  0.26829  0.35668  0.32834  1.0000
  H   H146      1.0  0.28028  0.33478  0.32714  1.0000
  S   S32       1.0  0.46639  0.35174  0.36400  1.0000
  S   S33       1.0  0.21151  0.46053  0.37002  1.0000
  C   C87       1.0  0.21427  0.39620  0.56487  1.0000
  Fe  Fe15      1.0  0.46537  0.17944  0.33482  1.0000
  H   H147      1.0  0.24884  0.47918  0.33062  1.0000
  H   H148      1.0  0.22340  0.41765  0.55626  1.0000
  H   H149      1.0  0.18885  0.35220  0.35057  1.0000
  C   C88       1.0  0.47976  0.29395  0.35257  1.0000
  Fe  Fe16      1.0  0.17848  0.47712  0.34220  1.0000
  H   H150      1.0  0.18679  0.47234  0.60522  1.0000
  H   H151      1.0  0.44120  0.33129  0.49437  1.0000
  Fe  Fe17      1.0  0.45097  0.37520  0.63027  1.0000
  H   H152      1.0  0.40174  0.01911  0.33494  1.0000
  C   C89       1.0  0.22217  0.37338  0.36887  1.0000
  C   C90       1.0  0.49215  0.03624  0.35632  1.0000
  H   H153      1.0  0.18492  0.39270  0.35003  1.0000
  C   C91       1.0  0.29485  0.47577  0.62953  1.0000
  N   N6        1.0  0.46077  0.29807  0.44418  1.0000
  C   C92       1.0  0.49005  0.01464  0.31971  1.0000
  S   S34       1.0  0.06556  0.46270  0.34170  1.0000
  S   S35       1.0  0.34621  0.39981  0.64184  1.0000
  H   H154      1.0  0.42553  0.26718  0.45552  1.0000
  H   H155      1.0  0.29790  0.39767  0.59410  1.0000
  H   H156      1.0  0.41733  0.30704  0.48009  1.0000
  H   H157      1.0  0.38885  0.30156  0.44597  1.0000
  C   C93       1.0  0.20546  0.39846  0.59008  1.0000
  H   H158      1.0  0.18200  0.40550  0.59033  1.0000
  C   C94       1.0  0.03745  0.48927  0.34577  1.0000
  H   H159      1.0  0.19437  0.39164  0.55467  1.0000
  C   C95       1.0  0.47177  0.31304  0.42158  1.0000
  C   C96       1.0  0.20999  0.41914  0.62725  1.0000
  C   C97       1.0  0.22702  0.45065  0.59343  1.0000
  C   C98       1.0  0.45690  0.32237  0.46063  1.0000
  H   H160      1.0  0.25302  0.37838  0.61114  1.0000
  H   H161      1.0  0.45137  0.29216  0.49298  1.0000
  C   C99       1.0  0.48831  0.23858  0.64226  1.0000
  H   H162      1.0  0.18655  0.42588  0.62515  1.0000
  H   H163      1.0  0.26450  0.41152  0.62394  1.0000
  H   H164      1.0  0.27090  0.36266  0.34620  1.0000
  N   N7        1.0  0.22443  0.41797  0.60412  1.0000
  Fe  Fe18      1.0  0.46852  0.11357  0.32094  1.0000
  H   H165      1.0  0.22808  0.33060  0.33032  1.0000
  C   C100      1.0  0.48187  0.03758  0.33367  1.0000
  H   H166      1.0  0.39260  0.48758  0.35326  1.0000
  C   C101      1.0  0.27328  0.47121  0.64658  1.0000
  H   H167      1.0  0.18286  0.45643  0.57771  1.0000
  H   H168      1.0  0.00380  0.32007  0.32159  1.0000
  S   S36       1.0  0.45438  0.06402  0.32433  1.0000
  H   H169      1.0  0.34841  0.49409  0.38433  1.0000
  H   H170      1.0  0.47433  0.23700  0.43229  1.0000
  S   S37       1.0  0.45962  0.49248  0.40757  1.0000
  H   H171      1.0  0.48561  0.05365  0.36725  1.0000
  H   H172      1.0  0.15497  0.34992  0.32310  1.0000
  C   C102      1.0  0.48238  0.27452  0.45460  1.0000
  C   C103      1.0  0.19790  0.46819  0.58898  1.0000
  C   C104      1.0  0.23596  0.35248  0.32108  1.0000
  C   C105      1.0  0.48157  0.30150  0.64837  1.0000
  H   H173      1.0  0.49108  0.24844  0.34382  1.0000
  S   S38       1.0  0.46649  0.48727  0.64166  1.0000
  H   H174      1.0  0.20268  0.49123  0.58008  1.0000
  H   H175      1.0  0.36852  0.46861  0.65010  1.0000
  C   C106      1.0  0.49276  0.25037  0.43875  1.0000
  H   H176      1.0  0.29366  0.49576  0.61714  1.0000
  H   H177      1.0  0.23269  0.38187  0.64884  1.0000
  C   C107      1.0  0.02901  0.03792  0.89451  1.0000
  H   H178      1.0  0.10752  0.40725  0.79739  1.0000
  C   C108      1.0  0.49611  0.00050  0.71011  1.0000
  H   H179      1.0  0.08320  0.13754  0.83475  1.0000
  Fe  Fe19      1.0  0.15682  0.44669  0.68909  1.0000
  S   S39       1.0  0.14498  0.39672  0.69217  1.0000
  H   H180      1.0  0.42318  0.24177  0.65354  1.0000
  Fe  Fe20      1.0  0.04958  0.35652  0.80033  1.0000
  H   H181      1.0  0.47477  0.23086  0.73898  1.0000
  S   S40       1.0  0.09386  0.34315  0.78792  1.0000
  H   H182      1.0  0.46830  0.19475  0.72795  1.0000
  H   H183      1.0  0.32133  0.04540  0.81223  1.0000
  S   S41       1.0  0.46189  0.00858  0.85993  1.0000
  H   H184      1.0  0.16253  0.45662  0.76737  1.0000
  H   H185      1.0  0.32940  0.01768  0.77900  1.0000
  H   H186      1.0  0.49297  0.11403  0.81169  1.0000
  H   H187      1.0  0.00213  0.13632  0.86472  1.0000
  Fe  Fe21      1.0  0.00463  0.33219  0.83567  1.0000
  S   S42       1.0  0.46064  0.12801  0.74049  1.0000
  C   C109      1.0  0.05719  0.40551  0.68213  1.0000
  H   H188      1.0  0.01517  0.40874  0.66551  1.0000
  H   H189      1.0  0.37132  0.46399  0.69960  1.0000
  S   S43       1.0  0.19909  0.46353  0.70322  1.0000
  C   C110      1.0  0.01155  0.01176  0.89886  1.0000
  C   C111      1.0  0.40062  0.19366  0.71724  1.0000
  H   H190      1.0  0.04665  0.16909  0.81778  1.0000
  H   H191      1.0  0.04172  0.40411  0.72765  1.0000
  H   H192      1.0  0.08726  0.43548  0.82859  1.0000
  H   H193      1.0  0.03692  0.35170  0.74418  1.0000
  C   C112      1.0  0.49627  0.28165  0.66494  1.0000
  C   C113      1.0  0.05754  0.47241  0.85968  1.0000
  C   C114      1.0  0.45740  0.21562  0.73301  1.0000
  C   C115      1.0  0.41743  0.17539  0.66940  1.0000
  C   C116      1.0  0.02042  0.39276  0.72454  1.0000
  H   H194      1.0  0.13740  0.01919  0.95376  1.0000
  H   H195      1.0  0.02695  0.13755  0.82997  1.0000
  H   H196      1.0  0.39670  0.27074  0.65741  1.0000
  C   C117      1.0  0.41344  0.25557  0.66651  1.0000
  H   H197      1.0  0.20192  0.47991  0.81999  1.0000
  H   H198      1.0  0.04027  0.34997  0.71400  1.0000
  C   C118      1.0  0.44128  0.09336  0.74547  1.0000
  C   C119      1.0  0.42546  0.08149  0.72773  1.0000
  C   C120      1.0  0.40872  0.05465  0.73230  1.0000
  C   C121      1.0  0.40878  0.03898  0.75435  1.0000
  C   C122      1.0  0.42491  0.05068  0.77200  1.0000
  C   C123      1.0  0.44065  0.07817  0.76766  1.0000
  H   H199      1.0  0.42571  0.09329  0.71060  1.0000
  H   H200      1.0  0.39629  0.04563  0.71861  1.0000
  H   H201      1.0  0.42483  0.03887  0.78913  1.0000
  H   H202      1.0  0.45246  0.08753  0.78151  1.0000
  N   N8        1.0  0.00689  0.40571  0.70207  1.0000
  H   H203      1.0  0.38042  0.22247  0.67871  1.0000
  H   H204      1.0  0.39224  0.23225  0.73869  1.0000
  H   H205      1.0  0.06733  0.39997  0.66578  1.0000
  C   C124      1.0  0.06689  0.14387  0.84753  1.0000
  H   H206      1.0  0.40609  0.47444  0.65531  1.0000
  S   S44       1.0  0.04433  0.36246  0.83774  1.0000
  S   S45       1.0  0.12870  0.48338  0.70166  1.0000
  H   H207      1.0  0.44878  0.17622  0.69678  1.0000
  Fe  Fe22      1.0  0.01497  0.40184  0.82566  1.0000
  H   H208      1.0  0.47372  0.04027  0.69312  1.0000
  H   H209      1.0  0.02255  0.37218  0.67990  1.0000
  H   H210      1.0  0.29172  0.02131  0.82245  1.0000
  C   C125      1.0  0.12993  0.38278  0.71872  1.0000
  C   C126      1.0  0.13806  0.35352  0.72832  1.0000
  C   C127      1.0  0.12661  0.34165  0.74947  1.0000
  C   C128      1.0  0.10599  0.35837  0.76076  1.0000
  C   C129      1.0  0.09698  0.38731  0.75088  1.0000
  C   C130      1.0  0.10948  0.39984  0.73008  1.0000
  H   H211      1.0  0.15374  0.34022  0.71959  1.0000
  H   H212      1.0  0.13369  0.31933  0.75708  1.0000
  H   H213      1.0  0.08117  0.40036  0.75963  1.0000
  H   H214      1.0  0.10296  0.42239  0.72263  1.0000
  H   H215      1.0  0.45748  0.24283  0.70055  1.0000
  C   C131      1.0  0.44058  0.23280  0.71275  1.0000
  C   C132      1.0  0.30781  0.01380  0.78758  1.0000
  C   C133      1.0  0.11930  0.47094  0.79511  1.0000
  H   H216      1.0  0.02485  0.18162  0.89814  1.0000
  C   C134      1.0  0.43574  0.19352  0.68586  1.0000
  H   H217      1.0  0.38462  0.18015  0.70787  1.0000
  C   C135      1.0  0.24411  0.99749  0.79531  1.0000
  C   C136      1.0  0.07221  0.00493  0.89307  1.0000
  S   S46       1.0  0.01382  0.07533  0.89254  1.0000
  C   C137      1.0  0.18675  0.47453  0.80599  1.0000
  C   C138      1.0  0.04150  0.47339  0.83918  1.0000
  H   H218      1.0  0.09557  0.00248  0.89073  1.0000
  H   H219      1.0  0.35990  0.21560  0.72726  1.0000
  H   H220      1.0  0.06904  0.39177  0.69613  1.0000
  S   S47       1.0  0.38890  0.00469  0.75965  1.0000
  H   H221      1.0  0.29298  0.03153  0.77887  1.0000
  H   H222      1.0  0.06097  0.12289  0.85883  1.0000
  C   C139      1.0  0.03683  0.20600  0.85452  1.0000
  H   H223      1.0  0.18945  0.41256  0.76350  1.0000
  C   C140      1.0  0.46807  0.01922  0.70442  1.0000
  C   C141      1.0  0.16321  0.45179  0.81597  1.0000
  H   H224      1.0  0.00633  0.39778  0.73916  1.0000
  H   H225      1.0  0.37092  0.43401  0.68120  1.0000
  H   H226      1.0  0.02208  0.22020  0.86430  1.0000
  H   H227      1.0  0.32671  0.47649  0.68325  1.0000
  H   H228      1.0  0.03597  0.00450  0.97701  1.0000
  H   H229      1.0  0.05397  0.45389  0.87301  1.0000
  H   H230      1.0  0.44286  0.20925  0.74784  1.0000
  C   C142      1.0  0.12328  0.41580  0.80989  1.0000
  C   C143      1.0  0.15217  0.43629  0.77687  1.0000
  C   C144      1.0  0.00702  0.16040  0.86829  1.0000
  N   N9        1.0  0.13950  0.44367  0.79944  1.0000
  C   C145      1.0  0.10638  0.42018  0.83209  1.0000
  C   C146      1.0  0.17374  0.40897  0.77797  1.0000
  H   H231      1.0  0.06091  0.43035  0.68344  1.0000
  H   H232      1.0  0.08632  0.01295  0.96082  1.0000
  H   H233      1.0  0.15357  0.46240  0.83080  1.0000
  H   H234      1.0  0.00478  0.20048  0.81483  1.0000
  C   C147      1.0  0.02573  0.35777  0.72740  1.0000
  H   H235      1.0  0.13865  0.39626  0.81410  1.0000
  H   H236      1.0  0.13452  0.43040  0.76499  1.0000
  H   H237      1.0  0.32586  0.00546  0.74271  1.0000
  H   H238      1.0  0.05511  0.19958  0.86657  1.0000
  Fe  Fe23      1.0  0.49259  0.12849  0.71138  1.0000
  Fe  Fe24      1.0  0.20358  0.49117  0.66903  1.0000
  S   S48       1.0  0.48105  0.12193  0.67497  1.0000
  H   H239      1.0  0.41412  0.17556  0.72704  1.0000
  H   H240      1.0  0.04714  0.15040  0.88947  1.0000
  H   H241      1.0  0.17474  0.43093  0.82384  1.0000
  H   H242      1.0  0.00486  0.34471  0.72803  1.0000
  H   H243      1.0  0.09784  0.39758  0.83931  1.0000
  H   H244      1.0  0.16177  0.38705  0.77659  1.0000
  N   N10       1.0  0.41884  0.21385  0.70053  1.0000
  C   C148      1.0  0.09154  0.46613  0.78061  1.0000
  N   N11       1.0  0.02047  0.17829  0.84751  1.0000
  C   C149      1.0  0.02454  0.15892  0.89106  1.0000
  H   H245      1.0  0.45817  0.02607  0.72043  1.0000
  H   H246      1.0  0.07859  0.16019  0.85764  1.0000
  C   C150      1.0  0.03967  0.15774  0.83472  1.0000
  H   H247      1.0  0.11196  0.47930  0.81158  1.0000
  C   C151      1.0  0.05940  0.03437  0.89173  1.0000
  H   H248      1.0  0.12038  0.42891  0.84558  1.0000
  H   H249      1.0  0.07305  0.05451  0.88835  1.0000
  S   S49       1.0  0.47783  0.34059  0.65312  1.0000
  C   C152      1.0  0.00639  0.44023  0.70183  1.0000
  H   H250      1.0  0.18723  0.40666  0.79381  1.0000
  C   C153      1.0  0.38267  0.45528  0.68493  1.0000
  C   C154      1.0  0.04985  0.22771  0.83483  1.0000
  H   H251      1.0  0.40373  0.15751  0.67884  1.0000
  H   H252      1.0  0.45165  0.00728  0.69454  1.0000
  C   C155      1.0  0.02434  0.39720  0.68181  1.0000
  H   H253      1.0  0.20023  0.46475  0.79273  1.0000
  H   H254      1.0  0.06492  0.21568  0.82390  1.0000
  H   H255      1.0  0.23548  0.99887  0.77748  1.0000
  H   H256      1.0  0.32853  0.00638  0.82197  1.0000
  H   H257      1.0  0.38759  0.25129  0.69710  1.0000
  H   H258      1.0  0.38040  0.19576  0.75080  1.0000
  H   H259      1.0  0.13436  0.99877  0.98156  1.0000
  H   H260      1.0  0.43000  0.25317  0.71927  1.0000
  H   H261      1.0  0.45220  0.20702  0.67530  1.0000
  H   H262      1.0  0.02803  0.44896  0.70727  1.0000
  C   C156      1.0  0.38224  0.21050  0.73430  1.0000
  S   S50       1.0  0.02380  0.39855  0.78838  1.0000
  S   S51       1.0  0.16334  0.47101  0.65404  1.0000
  H   H263      1.0  0.40509  0.44772  0.69041  1.0000
  H   H264      1.0  0.43041  0.27079  0.67299  1.0000
  H   H265      1.0  0.29860  0.40356  0.67316  1.0000
  C   C157      1.0  0.27484  0.44520  0.66241  1.0000
  H   H266      1.0  0.25832  0.44142  0.67559  1.0000
  H   H267      1.0  0.04074  0.00678  0.94613  1.0000
  H   H268      1.0  0.01347  0.14271  0.90401  1.0000
  C   C158      1.0  0.39865  0.23528  0.68619  1.0000
  C   C159      1.0  0.31238  0.02173  0.81256  1.0000
  S   S52       1.0  0.00158  0.29418  0.86494  1.0000
  C   C160      1.0  0.29772  0.42385  0.66104  1.0000
  S   S53       1.0  0.01176  0.32392  0.79873  1.0000
  H   H269      1.0  0.07709  0.44786  0.78870  1.0000
  H   H270      1.0  0.09687  0.46142  0.76280  1.0000
  H   H271      1.0  0.06277  0.24589  0.84239  1.0000
  H   H272      1.0  0.48703  0.43075  0.68037  1.0000
  H   H273      1.0  0.00299  0.45137  0.68412  1.0000
  C   C161      1.0  0.38394  0.47748  0.66265  1.0000
  S   S54       1.0  0.01091  0.44923  0.83745  1.0000
  H   H274      1.0  0.27330  0.99841  0.75369  1.0000
  H   H275      1.0  0.25010  0.02082  0.79963  1.0000
  H   H276      1.0  0.19818  0.39306  0.65936  1.0000
  H   H277      1.0  0.03248  0.23997  0.82419  1.0000
  H   H278      1.0  0.40379  0.19039  0.65729  1.0000
  C   C162      1.0  0.13044  0.99702  0.96298  1.0000
  H   H279      1.0  0.43264  0.16329  0.65854  1.0000
  H   H280      1.0  0.07856  0.48772  0.77919  1.0000
  H   H281      1.0  0.13113  0.49062  0.78595  1.0000
  S   S55       1.0  0.42794  0.40866  0.65071  1.0000
  H   H282      1.0  0.43303  0.49467  0.68550  1.0000
  H   H283      1.0  0.17702  0.49657  0.79876  1.0000
  H   H284      1.0  0.08838  0.49597  0.87989  1.0000
  C   C163      1.0  0.07673  0.49645  0.86367  1.0000
  Fe  Fe25      1.0  0.10297  0.95402  0.10974  1.0000
  S   S56       1.0  0.11560  0.91583  0.08823  1.0000
  S   S57       1.0  0.05421  0.96465  0.11055  1.0000
  Fe  Fe26      1.0  0.16689  0.96462  0.12431  1.0000
  S   S58       1.0  0.18383  0.92795  0.10360  1.0000
  H   H285      1.0  0.05240  0.62981  0.31290  1.0000
  Fe  Fe27      1.0  0.15245  0.94723  0.07613  1.0000
  S   S59       1.0  0.16532  0.96090  0.03922  1.0000
  Fe  Fe28      1.0  0.14543  0.90000  0.11780  1.0000
  S   S60       1.0  0.15612  0.85191  0.13380  1.0000
  S   S61       1.0  0.13811  0.98638  0.09582  1.0000
  S   S62       1.0  0.13017  0.93558  0.14025  1.0000
  H   H286      1.0  0.15975  0.74505  0.10633  1.0000
  C   C164      1.0  0.00535  0.53455  0.28001  1.0000
  C   C165      1.0  0.06255  0.56516  0.24650  1.0000
  H   H287      1.0  0.11156  0.95719  0.00082  1.0000
  H   H288      1.0  0.08974  0.89930  0.98966  1.0000
  S   S63       1.0  0.41513  0.97630  0.25782  1.0000
  S   S64       1.0  0.40836  0.96569  0.19086  1.0000
  Fe  Fe29      1.0  0.04473  0.63209  0.16781  1.0000
  S   S65       1.0  0.06618  0.62398  0.20214  1.0000
  S   S66       1.0  0.01174  0.59624  0.15965  1.0000
  Fe  Fe30      1.0  0.07057  0.69744  0.15965  1.0000
  S   S67       1.0  0.09369  0.69369  0.19394  1.0000
  S   S68       1.0  0.06568  0.74186  0.13637  1.0000
  Fe  Fe31      1.0  0.10534  0.64625  0.18505  1.0000
  S   S69       1.0  0.14753  0.62118  0.19312  1.0000
  Fe  Fe32      1.0  0.05201  0.67146  0.20747  1.0000
  S   S70       1.0  0.08510  0.65113  0.14966  1.0000
  S   S71       1.0  0.02802  0.67865  0.17406  1.0000
  C   C166      1.0  0.14197  0.83091  0.06998  1.0000
  S   S72       1.0  0.02755  0.67921  0.23969  1.0000
  H   H289      1.0  0.17360  0.79787  0.10724  1.0000
  C   C167      1.0  0.03888  0.54814  0.14179  1.0000
  C   C168      1.0  0.16521  0.78888  0.04993  1.0000
  S   S73       1.0  0.19595  0.99126  0.14733  1.0000
  H   H290      1.0  0.18409  0.83447  0.03685  1.0000
  C   C169      1.0  0.16391  0.58258  0.23074  1.0000
  H   H291      1.0  0.29138  0.95254  0.12366  1.0000
  H   H292      1.0  0.19134  0.84855  0.09137  1.0000
  H   H293      1.0  0.18113  0.80770  0.01640  1.0000
  H   H294      1.0  0.17587  0.57004  0.21876  1.0000
  H   H295      1.0  0.18584  0.96746  0.99313  1.0000
  H   H296      1.0  0.08399  0.60212  0.29020  1.0000
  H   H297      1.0  0.05497  0.56804  0.22836  1.0000
  S   S74       1.0  0.15061  0.57870  0.29953  1.0000
  H   H298      1.0  0.12478  0.63073  0.27377  1.0000
  C   C170      1.0  0.46796  0.90452  0.24777  1.0000
  H   H299      1.0  0.00480  0.82646  0.15928  1.0000
  C   C171      1.0  0.04344  0.58514  0.26095  1.0000
  C   C172      1.0  0.44426  0.95001  0.25973  1.0000
  H   H300      1.0  0.00543  0.54437  0.19373  1.0000
  H   H301      1.0  0.42429  0.91722  0.30505  1.0000
  H   H302      1.0  0.10520  0.54541  0.17211  1.0000
  C   C173      1.0  0.46480  0.95070  0.27755  1.0000
  H   H303      1.0  0.43026  0.92637  0.23087  1.0000
  C   C174      1.0  0.48630  0.92786  0.28094  1.0000
  H   H304      1.0  0.46386  0.96868  0.28889  1.0000
  C   C175      1.0  0.03432  0.62974  0.30013  1.0000
  H   H305      1.0  0.00497  0.73997  0.16088  1.0000
  H   H306      1.0  0.26749  0.87460  0.98651  1.0000
  H   H307      1.0  0.00198  0.59930  0.28805  1.0000
  H   H308      1.0  0.41249  0.51521  0.31608  1.0000
  C   C176      1.0  0.02114  0.50511  0.17759  1.0000
  H   H309      1.0  0.03039  0.53849  0.31070  1.0000
  H   H310      1.0  0.05488  0.50911  0.12570  1.0000
  Fe  Fe33      1.0  0.15191  0.52792  0.30992  1.0000
  C   C177      1.0  0.27968  0.98836  0.17192  1.0000
  C   C178      1.0  0.12914  0.82291  0.13735  1.0000
  C   C179      1.0  0.10097  0.82729  0.12804  1.0000
  C   C180      1.0  0.08127  0.80243  0.12859  1.0000
  C   C181      1.0  0.08945  0.77324  0.13874  1.0000
  C   C182      1.0  0.11712  0.76925  0.14900  1.0000
  C   C183      1.0  0.13693  0.79399  0.14819  1.0000
  H   H311      1.0  0.09471  0.84949  0.11968  1.0000
  H   H312      1.0  0.05990  0.80564  0.12057  1.0000
  H   H313      1.0  0.12365  0.74681  0.15677  1.0000
  H   H314      1.0  0.15868  0.79041  0.15544  1.0000
  Fe  Fe34      1.0  0.40466  0.99326  0.22123  1.0000
  C   C184      1.0  0.15713  0.88420  0.00547  1.0000
  C   C185      1.0  0.15641  0.90436  0.02286  1.0000
  C   C186      1.0  0.16683  0.93439  0.01843  1.0000
  H   H315      1.0  0.01584  0.74366  0.23730  1.0000
  C   C187      1.0  0.18165  0.79932  0.08919  1.0000
  H   H316      1.0  0.14879  0.86109  0.00876  1.0000
  H   H317      1.0  0.14757  0.89696  0.03957  1.0000
  H   H318      1.0  0.20934  0.80270  0.03812  1.0000
  C   C188      1.0  0.16380  0.57231  0.25428  1.0000
  C   C189      1.0  0.11435  0.83411  0.05459  1.0000
  C   C190      1.0  0.03393  0.54334  0.29197  1.0000
  H   H319      1.0  0.17550  0.55163  0.26050  1.0000
  N   N12       1.0  0.15605  0.79954  0.07262  1.0000
  H   H320      1.0  0.04111  0.82245  0.16981  1.0000
  H   H321      1.0  0.99789  0.51175  0.28779  1.0000
  C   C191      1.0  0.11225  0.54582  0.19031  1.0000
  H   H322      1.0  0.23801  0.96251  0.11879  1.0000
  C   C192      1.0  0.48766  0.90455  0.26622  1.0000
  H   H323      1.0  0.04497  0.56454  0.12757  1.0000
  H   H324      1.0  0.07406  0.52185  0.20207  1.0000
  H   H325      1.0  0.12524  0.73065  0.09807  1.0000
  H   H326      1.0  0.08587  0.57252  0.24689  1.0000
  C   C193      1.0  0.02305  0.59693  0.29774  1.0000
  H   H327      1.0  0.09568  0.82073  0.06242  1.0000
  H   H328      1.0  0.13642  0.54594  0.19143  1.0000
  H   H329      1.0  0.19546  0.77852  0.08805  1.0000
  H   H330      1.0  0.15442  0.73264  0.07777  1.0000
  H   H331      1.0  0.05124  0.52662  0.28821  1.0000
  H   H332      1.0  0.11535  0.77380  0.07046  1.0000
  H   H333      1.0  0.12263  0.78643  0.09781  1.0000
  H   H334      1.0  0.00868  0.53266  0.26141  1.0000
  C   C194      1.0  0.13389  0.62612  0.23817  1.0000
  C   C195      1.0  0.02441  0.55816  0.16071  1.0000
  H   H335      1.0  0.01809  0.81714  0.20452  1.0000
  C   C196      1.0  0.20247  0.82730  0.08702  1.0000
  H   H336      1.0  0.07223  0.76710  0.22451  1.0000
  C   C197      1.0  0.23407  0.98431  0.15010  1.0000
  H   H337      1.0  0.06664  0.79789  0.20189  1.0000
  N   N13       1.0  0.22725  0.88521  0.17870  1.0000
  C   C198      1.0  0.23610  0.86750  0.15889  1.0000
  C   C199      1.0  0.21841  0.86242  0.19846  1.0000
  C   C200      1.0  0.25213  0.90453  0.18639  1.0000
  C   C201      1.0  0.20224  0.90629  0.17098  1.0000
  C   C202      1.0  0.25070  0.88625  0.13834  1.0000
  C   C203      1.0  0.18913  0.84552  0.19533  1.0000
  C   C204      1.0  0.28070  0.88712  0.19333  1.0000
  C   C205      1.0  0.18946  0.92559  0.18939  1.0000
  H   H338      1.0  0.25134  0.84841  0.16470  1.0000
  H   H339      1.0  0.21670  0.85615  0.15176  1.0000
  H   H340      1.0  0.21726  0.87337  0.21485  1.0000
  H   H341      1.0  0.23544  0.84427  0.20175  1.0000
  H   H342      1.0  0.25757  0.92324  0.17291  1.0000
  H   H343      1.0  0.24560  0.91666  0.20149  1.0000
  H   H344      1.0  0.20925  0.92326  0.15674  1.0000
  H   H345      1.0  0.18406  0.89393  0.16305  1.0000
  H   H346      1.0  0.27188  0.89646  0.14306  1.0000
  H   H347      1.0  0.25553  0.87068  0.12489  1.0000
  H   H348      1.0  0.23610  0.90444  0.13032  1.0000
  H   H349      1.0  0.17012  0.86140  0.19476  1.0000
  H   H350      1.0  0.18900  0.83298  0.17971  1.0000
  H   H351      1.0  0.18579  0.82822  0.21027  1.0000
  H   H352      1.0  0.28985  0.87502  0.17916  1.0000
  H   H353      1.0  0.27765  0.87068  0.20877  1.0000
  H   H354      1.0  0.29756  0.90404  0.19774  1.0000
  H   H355      1.0  0.20206  0.94721  0.19023  1.0000
  H   H356      1.0  0.18880  0.91324  0.20676  1.0000
  H   H357      1.0  0.16630  0.93148  0.18498  1.0000
  C   C206      1.0  0.00756  0.80108  0.19323  1.0000
  H   H358      1.0  0.04394  0.75388  0.17904  1.0000
  C   C207      1.0  0.13333  0.77718  0.08294  1.0000
  C   C208      1.0  0.14434  0.74468  0.09159  1.0000
  C   C209      1.0  0.14972  0.58972  0.26985  1.0000
  H   H359      1.0  0.02066  0.58521  0.25396  1.0000
  S   S75       1.0  0.33282  0.96518  0.15824  1.0000
  C   C210      1.0  0.04135  0.75536  0.19763  1.0000
  H   H360      1.0  0.17643  0.76625  0.05271  1.0000
  C   C211      1.0  0.14861  0.60924  0.22265  1.0000
  H   H361      1.0  0.29117  0.99540  0.18681  1.0000
  C   C212      1.0  0.01051  0.76715  0.22924  1.0000
  C   C213      1.0  0.18618  0.80976  0.03484  1.0000
  H   H362      1.0  0.10731  0.85856  0.05281  1.0000
  H   H363      1.0  0.12230  0.64689  0.23206  1.0000
  H   H364      1.0  0.13573  0.83788  0.08714  1.0000
  C   C214      1.0  0.07470  0.57895  0.29520  1.0000
  C   C215      1.0  0.24936  0.99388  0.16914  1.0000
  H   H365      1.0  0.46902  0.88650  0.23632  1.0000
  H   H366      1.0  0.10463  0.56809  0.19580  1.0000
  C   C216      1.0  0.13513  0.61683  0.26177  1.0000
  H   H367      1.0  0.43324  0.98593  0.31535  1.0000
  N   N14       1.0  0.01194  0.76829  0.20333  1.0000
  C   C217      1.0  0.27968  0.96404  0.13644  1.0000
  H   H368      1.0  0.08815  0.76507  0.19691  1.0000
  C   C218      1.0  0.08832  0.96211  0.99578  1.0000
  C   C219      1.0  0.01618  0.53665  0.17889  1.0000
  H   H369      1.0  0.21279  0.83127  0.06998  1.0000
  H   H370      1.0  0.05495  0.98770  0.01313  1.0000
  H   H371      1.0  0.11856  0.82757  0.03705  1.0000
  H   H372      1.0  0.14584  0.78389  0.03918  1.0000
  C   C220      1.0  0.09798  0.51952  0.20585  1.0000
  C   C221      1.0  0.24941  0.96951  0.13370  1.0000
  H   H373      1.0  0.22053  0.82308  0.09976  1.0000
  H   H374      1.0  0.15734  0.84905  0.06316  1.0000
  H   H375      1.0  0.06118  0.54036  0.25200  1.0000
  C   C222      1.0  0.44620  0.92723  0.24455  1.0000
  C   C223      1.0  0.06836  0.77270  0.20581  1.0000
  H   H376      1.0  0.02285  0.79081  0.15801  1.0000
  H   H377      1.0  0.05111  0.60924  0.25705  1.0000
  H   H378      1.0  0.04326  0.73112  0.20523  1.0000
  H   H379      1.0  0.16699  0.50217  0.19340  1.0000
  H   H380      1.0  0.40448  0.96202  0.30838  1.0000
  H   H381      1.0  0.10102  0.52499  0.22394  1.0000
  H   H382      1.0  0.02728  0.78256  0.23594  1.0000
  Fe  Fe35      1.0  0.36692  0.99013  0.17835  1.0000
  H   H383      1.0  0.04168  0.64139  0.28350  1.0000
  N   N15       1.0  0.04383  0.57608  0.28649  1.0000
  H   H384      1.0  0.37592  0.53181  0.31096  1.0000
  H   H385      1.0  0.08963  0.56339  0.28676  1.0000
  H   H386      1.0  0.01651  0.58699  0.31521  1.0000
  C   C224      1.0  0.17779  0.94420  0.99661  1.0000
  C   C225      1.0  0.29498  0.97344  0.15551  1.0000
  H   H387      1.0  0.00415  0.63732  0.20885  1.0000
  H   H388      1.0  0.07633  0.94219  0.00451  1.0000
  C   C226      1.0  0.04415  0.51672  0.14063  1.0000
  H   H389      1.0  0.16397  0.51826  0.22071  1.0000
  H   H390      1.0  0.01625  0.64364  0.30647  1.0000
  C   C227      1.0  0.02000  0.80993  0.16884  1.0000
  C   C228      1.0  0.16327  0.49686  0.21199  1.0000
  S   S76       1.0  0.11822  0.49758  0.29557  1.0000
  H   H391      1.0  0.09195  0.99184  0.02342  1.0000
  C   C229      1.0  0.07822  0.99017  0.00778  1.0000
  H   H392      1.0  0.13076  0.49891  0.17067  1.0000
  H   H393      1.0  0.40070  0.91784  0.36691  1.0000
  H   H394      1.0  0.02399  0.55804  0.36674  1.0000
  C   C230      1.0  0.04819  0.53104  0.63026  1.0000
  H   H395      1.0  0.33516  0.51138  0.64895  1.0000
  C   C231      1.0  0.04282  0.51637  0.35606  1.0000
  H   H396      1.0  0.37118  0.99252  0.33511  1.0000
  H   H397      1.0  0.35241  0.55943  0.34957  1.0000
  H   H398      1.0  0.49113  0.54884  0.40954  1.0000
  C   C232      1.0  0.37597  0.56462  0.35258  1.0000
  C   C233      1.0  0.39380  0.93788  0.35489  1.0000
  C   C234      1.0  0.01813  0.52517  0.63336  1.0000
  H   H399      1.0  0.43250  0.54488  0.33965  1.0000
  H   H400      1.0  0.35595  0.53674  0.61816  1.0000
  H   H401      1.0  0.38234  0.95371  0.36575  1.0000
  S   S77       1.0  0.14271  0.51166  0.34690  1.0000
  H   H402      1.0  0.46264  0.56656  0.36688  1.0000
  S   S78       1.0  0.24457  0.49825  0.64705  1.0000
  C   C235      1.0  0.01974  0.53708  0.35882  1.0000
  C   C236      1.0  0.38885  0.51291  0.32007  1.0000
  H   H403      1.0  0.05973  0.57563  0.33153  1.0000
  C   C237      1.0  0.38261  0.50968  0.34602  1.0000
  H   H404      1.0  0.06468  0.52118  0.36207  1.0000
  H   H405      1.0  0.35048  0.94169  0.33806  1.0000
  C   C238      1.0  0.43926  0.56336  0.37182  1.0000
  H   H406      1.0  0.36227  0.90347  0.34566  1.0000
  C   C239      1.0  0.35422  0.51658  0.39051  1.0000
  H   H407      1.0  0.46270  0.94245  0.33029  1.0000
  N   N16       1.0  0.39262  0.53539  0.35966  1.0000
  H   H408      1.0  0.39202  0.53521  0.60675  1.0000
  H   H409      1.0  0.39183  0.54431  0.39566  1.0000
  C   C240      1.0  0.37743  0.52490  0.62057  1.0000
  H   H410      1.0  0.43190  0.93963  0.39159  1.0000
  H   H411      1.0  0.37612  0.57977  0.36689  1.0000
  C   C241      1.0  0.38624  0.52569  0.38466  1.0000
  H   H412      1.0  0.43924  0.55568  0.39046  1.0000
  H   H413      1.0  0.43658  0.51673  0.36277  1.0000
  C   C242      1.0  0.37005  0.92652  0.33860  1.0000
  H   H414      1.0  0.42832  0.58599  0.36882  1.0000
  H   H415      1.0  0.46842  0.94534  0.37952  1.0000
  H   H416      1.0  0.37486  0.50033  0.61788  1.0000
  H   H417      1.0  0.48917  0.55549  0.45641  1.0000
  C   C243      1.0  0.42544  0.53905  0.35758  1.0000
  H   H418      1.0  0.45093  0.91638  0.35353  1.0000
  C   C244      1.0  0.44298  0.93046  0.33791  1.0000
  C   C245      1.0  0.06794  0.52499  0.64858  1.0000
  C   C246      1.0  0.41303  0.97459  0.32256  1.0000
  C   C247      1.0  0.44725  0.95656  0.38295  1.0000
  C   C248      1.0  0.38707  0.58474  0.33111  1.0000
  H   H419      1.0  0.33825  0.53432  0.38375  1.0000
  H   H420      1.0  0.05619  0.54004  0.61357  1.0000
  N   N17       1.0  0.42034  0.95359  0.34384  1.0000
  C   C249      1.0  0.43417  0.97339  0.36080  1.0000
  S   S79       1.0  0.10514  0.53485  0.64463  1.0000
  H   H421      1.0  0.35845  0.50653  0.34729  1.0000
  H   H422      1.0  0.35178  0.51362  0.40950  1.0000
  H   H423      1.0  0.41495  0.52448  0.64251  1.0000
  C   C250      1.0  0.39124  0.52969  0.64417  1.0000
  H   H424      1.0  0.45205  0.98746  0.35254  1.0000
  C   C251      1.0  0.49553  0.50321  0.39882  1.0000
  H   H425      1.0  0.00313  0.52915  0.61896  1.0000
  H   H426      1.0  0.40024  0.50582  0.39108  1.0000
  H   H427      1.0  0.39811  0.60569  0.33628  1.0000
  H   H428      1.0  0.45243  0.97376  0.39522  1.0000
  H   H429      1.0  0.08539  0.54645  0.32498  1.0000
  H   H430      1.0  0.41810  0.99021  0.36650  1.0000
  H   H431      1.0  0.39006  0.55476  0.64618  1.0000
  H   H432      1.0  0.09701  0.58547  0.32754  1.0000
  H   H433      1.0  0.37713  0.92414  0.32083  1.0000
  H   H434      1.0  0.41702  0.89029  0.33002  1.0000
  C   C252      1.0  0.43310  0.90667  0.32163  1.0000
  C   C253      1.0  0.07920  0.57098  0.32128  1.0000
  H   H435      1.0  0.40177  0.57323  0.31970  1.0000
  H   H436      1.0  0.36793  0.59308  0.32043  1.0000
  H   H437      1.0  0.45243  0.89280  0.31744  1.0000
  Fe  Fe36      1.0  0.11727  0.92761  0.89614  1.0000
  S   S80       1.0  0.12175  0.87710  0.90677  1.0000
  H   H438      1.0  0.02466  0.85185  0.88886  1.0000
  Fe  Fe37      1.0  0.18323  0.93313  0.88587  1.0000
  S   S81       1.0  0.19205  0.88317  0.89604  1.0000
  S   S82       1.0  0.22019  0.96639  0.87573  1.0000
  Fe  Fe38      1.0  0.15073  0.87520  0.87620  1.0000
  S   S83       1.0  0.14487  0.84256  0.84856  1.0000
  Fe  Fe39      1.0  0.16215  0.88979  0.92567  1.0000
  H   H439      1.0  0.03322  0.49892  0.80647  1.0000
  S   S84       1.0  0.14364  0.92504  0.86398  1.0000
  S   S85       1.0  0.15610  0.94039  0.91712  1.0000
  C   C254      1.0  0.47793  0.95069  0.69762  1.0000
  H   H440      1.0  0.09954  0.88605  0.96289  1.0000
  H   H441      1.0  0.05756  0.87346  0.89010  1.0000
  H   H442      1.0  0.38752  0.54721  0.68670  1.0000
  H   H443      1.0  0.22027  0.75198  0.83534  1.0000
  Fe  Fe40      1.0  0.09757  0.66986  0.84491  1.0000
  S   S86       1.0  0.07832  0.68502  0.81024  1.0000
  S   S87       1.0  0.11475  0.70123  0.87076  1.0000
  Fe  Fe41      1.0  0.08992  0.60108  0.83836  1.0000
  S   S88       1.0  0.06979  0.61096  0.80346  1.0000
  S   S89       1.0  0.10065  0.55344  0.85460  1.0000
  Fe  Fe42      1.0  0.10504  0.64665  0.79796  1.0000
  S   S90       1.0  0.13197  0.65095  0.76564  1.0000
  Fe  Fe43      1.0  0.04506  0.64797  0.81916  1.0000
  S   S91       1.0  0.12703  0.63426  0.83190  1.0000
  H   H444      1.0  0.26060  0.95176  0.79580  1.0000
  H   H445      1.0  0.13964  0.75779  0.77569  1.0000
  H   H446      1.0  0.09539  0.86686  0.81114  1.0000
  N   N18       1.0  0.27086  0.90250  0.93968  1.0000
  Fe  Fe44      1.0  0.38296  0.93776  0.83340  1.0000
  S   S92       1.0  0.39555  0.92718  0.79780  1.0000
  S   S93       1.0  0.34269  0.91211  0.84794  1.0000
  Fe  Fe45      1.0  0.44153  0.92304  0.81131  1.0000
  S   S94       1.0  0.47510  0.88655  0.80667  1.0000
  H   H447      1.0  0.12777  0.72005  0.78775  1.0000
  S   S95       1.0  0.42861  0.92938  0.84749  1.0000
  H   H448      1.0  0.02104  0.56640  0.69047  1.0000
  H   H449      1.0  0.30636  0.98105  0.72518  1.0000
  H   H450      1.0  0.05712  0.85949  0.80821  1.0000
  C   C255      1.0  0.00739  0.51475  0.65507  1.0000
  N   N19       1.0  0.07382  0.59721  0.70239  1.0000
  H   H451      1.0  0.10954  0.62362  0.71542  1.0000
  C   C256      1.0  0.07338  0.87224  0.81779  1.0000
  C   C257      1.0  0.25805  0.96046  0.93205  1.0000
  C   C258      1.0  0.47973  0.87627  0.77861  1.0000
  C   C259      1.0  0.45874  0.88367  0.76140  1.0000
  C   C260      1.0  0.46456  0.87782  0.73860  1.0000
  C   C261      1.0  0.39233  0.52233  0.68589  1.0000
  C   C262      1.0  0.07281  0.86234  0.84381  1.0000
  H   H452      1.0  0.43834  0.89434  0.76559  1.0000
  H   H453      1.0  0.44860  0.88392  0.72519  1.0000
  H   H454      1.0  0.13428  0.59029  0.68875  1.0000
  C   C263      1.0  0.24847  0.92771  0.94080  1.0000
  H   H455      1.0  0.01447  0.57332  0.84191  1.0000
  H   H456      1.0  0.05679  0.80566  0.87920  1.0000
  S   S96       1.0  0.45259  0.97252  0.80163  1.0000
  C   C264      1.0  0.16241  0.55452  0.75297  1.0000
  C   C265      1.0  0.14990  0.56016  0.77397  1.0000
  C   C266      1.0  0.14076  0.58976  0.77780  1.0000
  C   C267      1.0  0.14477  0.61418  0.76092  1.0000
  C   C268      1.0  0.15828  0.60887  0.74017  1.0000
  C   C269      1.0  0.16661  0.57892  0.73601  1.0000
  H   H457      1.0  0.14697  0.54168  0.78736  1.0000
  H   H458      1.0  0.13083  0.59357  0.79401  1.0000
  H   H459      1.0  0.16189  0.62780  0.72720  1.0000
  H   H460      1.0  0.17681  0.57481  0.71993  1.0000
  H   H461      1.0  0.18679  0.93199  0.96248  1.0000
  H   H462      1.0  0.04236  0.63134  0.71043  1.0000
  H   H463      1.0  0.06113  0.61701  0.66811  1.0000
  H   H464      1.0  0.23971  0.84765  0.98048  1.0000
  C   C270      1.0  0.03637  0.89951  0.85316  1.0000
  C   C271      1.0  0.29860  0.87234  0.91055  1.0000
  H   H465      1.0  0.33125  0.96426  0.74635  1.0000
  H   H466      1.0  0.27726  0.95805  0.75744  1.0000
  H   H467      1.0  0.07180  0.57831  0.66929  1.0000
  C   C272      1.0  0.29788  0.90846  0.95365  1.0000
  C   C273      1.0  0.25378  0.95207  0.86625  1.0000
  C   C274      1.0  0.25592  0.92227  0.85964  1.0000
  C   C275      1.0  0.28324  0.91069  0.85356  1.0000
  C   C276      1.0  0.30864  0.92881  0.85385  1.0000
  C   C277      1.0  0.30643  0.95895  0.85984  1.0000
  C   C278      1.0  0.12276  0.61176  0.68229  1.0000
  H   H468      1.0  0.23659  0.90795  0.85951  1.0000
  H   H469      1.0  0.28480  0.88737  0.84891  1.0000
  H   H470      1.0  0.20510  0.69754  0.84509  1.0000
  H   H471      1.0  0.09000  0.87580  0.85209  1.0000
  C   C279      1.0  0.13464  0.80389  0.85543  1.0000
  C   C280      1.0  0.13912  0.78915  0.87743  1.0000
  C   C281      1.0  0.13241  0.75777  0.88193  1.0000
  C   C282      1.0  0.12091  0.74100  0.86459  1.0000
  C   C283      1.0  0.11551  0.75603  0.84278  1.0000
  C   C284      1.0  0.12253  0.78735  0.83819  1.0000
  H   H472      1.0  0.14840  0.80169  0.89083  1.0000
  H   H473      1.0  0.13652  0.74627  0.89887  1.0000
  H   H474      1.0  0.10632  0.74342  0.82939  1.0000
  H   H475      1.0  0.11881  0.79873  0.82117  1.0000
  H   H476      1.0  0.34162  0.96556  0.78410  1.0000
  C   C285      1.0  0.03421  0.99172  0.96165  1.0000
  H   H477      1.0  0.09865  0.93695  0.94272  1.0000
  H   H478      1.0  0.27146  0.85299  0.94811  1.0000
  H   H479      1.0  0.22825  0.92242  0.93106  1.0000
  H   H480      1.0  0.08817  0.82929  0.88425  1.0000
  H   H481      1.0  0.09729  0.55479  0.69823  1.0000
  H   H482      1.0  0.10491  0.57033  0.72433  1.0000
  H   H483      1.0  0.28684  0.85002  0.91171  1.0000
  H   H484      1.0  0.03323  0.59380  0.72182  1.0000
  H   H485      1.0  0.17114  0.68029  0.85299  1.0000
  S   S97       1.0  0.17914  0.53222  0.67991  1.0000
  H   H486      1.0  0.23094  0.73167  0.78789  1.0000
  H   H487      1.0  0.29512  0.91613  0.79947  1.0000
  C   C286      1.0  0.19666  0.75748  0.83331  1.0000
  H   H488      1.0  0.19568  0.77026  0.79678  1.0000
  H   H489      1.0  0.04699  0.53776  0.71431  1.0000
  H   H490      1.0  0.08975  0.64328  0.69248  1.0000
  C   C287      1.0  0.18714  0.68368  0.83872  1.0000
  C   C288      1.0  0.05216  0.60959  0.71853  1.0000
  H   H491      1.0  0.31766  0.87070  0.92241  1.0000
  H   H492      1.0  0.00917  0.55684  0.80805  1.0000
  C   C289      1.0  0.17438  0.72237  0.77733  1.0000
  H   H493      1.0  0.48152  0.97834  0.75068  1.0000
  C   C290      1.0  0.08675  0.56677  0.71203  1.0000
  C   C291      1.0  0.02708  0.50945  0.67352  1.0000
  S   S98       1.0  0.06222  0.63528  0.85484  1.0000
  H   H494      1.0  0.13372  0.72763  0.75769  1.0000
  H   H495      1.0  0.00670  0.93439  0.86362  1.0000
  C   C292      1.0  0.07921  0.52215  0.84757  1.0000
  H   H496      1.0  0.33525  0.50675  0.70175  1.0000
  H   H497      1.0  0.17513  0.69931  0.77076  1.0000
  H   H498      1.0  0.19417  0.78208  0.83633  1.0000
  H   H499      1.0  0.29162  0.91842  0.96979  1.0000
  H   H500      1.0  0.07240  0.50908  0.68435  1.0000
  C   C293      1.0  0.06578  0.54360  0.72496  1.0000
  H   H501      1.0  0.02921  0.67318  0.77220  1.0000
  H   H502      1.0  0.33194  0.94335  0.95461  1.0000
  Fe  Fe46      1.0  0.13852  0.50940  0.66772  1.0000
  H   H503      1.0  0.08110  0.59904  0.74914  1.0000
  H   H504      1.0  0.01897  0.66814  0.73101  1.0000
  C   C294      1.0  0.06464  0.61612  0.74220  1.0000
  H   H505      1.0  0.04656  0.61556  0.75482  1.0000
  C   C295      1.0  0.02383  0.81429  0.84211  1.0000
  H   H506      1.0  0.47913  0.94298  0.66148  1.0000
  C   C296      1.0  0.04567  0.49799  0.82229  1.0000
  H   H507      1.0  0.26594  0.96227  0.91414  1.0000
  S   S99       1.0  0.38977  0.98866  0.82644  1.0000
  H   H508      1.0  0.43340  0.52377  0.70501  1.0000
  C   C297      1.0  0.05973  0.59476  0.67908  1.0000
  C   C298      1.0  0.02696  0.58629  0.67844  1.0000
  H   H509      1.0  0.47636  0.92559  0.70275  1.0000
  C   C299      1.0  0.31392  0.92526  0.78901  1.0000
  H   H510      1.0  0.32502  0.95967  0.81116  1.0000
  C   C300      1.0  0.01934  0.84881  0.84463  1.0000
  H   H511      1.0  0.07460  0.63938  0.74131  1.0000
  C   C301      1.0  0.49278  0.95458  0.67389  1.0000
  H   H512      1.0  0.06251  0.81963  0.90650  1.0000
  C   C302      1.0  0.09845  0.62020  0.69891  1.0000
  C   C303      1.0  0.34582  0.51794  0.66487  1.0000
  S   S100      1.0  0.16882  0.86857  0.96210  1.0000
  H   H513      1.0  0.01358  0.90474  0.88595  1.0000
  H   H514      1.0  0.27539  0.97240  0.81769  1.0000
  H   H515      1.0  0.23872  0.97593  0.93211  1.0000
  S   S101      1.0  0.06946  0.94125  0.89956  1.0000
  C   C304      1.0  0.32041  0.95916  0.79255  1.0000
  C   C305      1.0  0.25669  0.87291  0.94957  1.0000
  H   H516      1.0  0.01895  0.50237  0.69044  1.0000
  H   H517      1.0  0.13945  0.63034  0.68086  1.0000
  H   H518      1.0  0.31409  0.94593  0.92746  1.0000
  C   C306      1.0  0.06447  0.82572  0.88768  1.0000
  C   C307      1.0  0.42593  0.51843  0.68770  1.0000
  H   H519      1.0  0.33308  0.91102  0.79508  1.0000
  H   H520      1.0  0.30461  0.50985  0.68268  1.0000
  H   H521      1.0  0.43491  0.93867  0.72889  1.0000
  H   H522      1.0  0.49450  0.97905  0.66706  1.0000
  H   H523      1.0  0.08092  0.83841  0.84586  1.0000
  H   H524      1.0  0.11422  0.60944  0.66472  1.0000
  H   H525      1.0  0.33995  0.91550  0.93554  1.0000
  H   H526      1.0  0.28698  0.91999  0.90586  1.0000
  C   C308      1.0  0.44235  0.95910  0.73722  1.0000
  H   H527      1.0  0.43750  0.53463  0.67505  1.0000
  N   N20       1.0  0.49264  0.96655  0.71648  1.0000
  C   C309      1.0  0.06422  0.52256  0.82657  1.0000
  H   H528      1.0  0.23641  0.86810  0.93971  1.0000
  C   C310      1.0  0.18475  0.75298  0.80915  1.0000
  H   H529      1.0  0.01323  0.86026  0.82742  1.0000
  N   N21       1.0  0.37824  0.51110  0.66480  1.0000
  C   C311      1.0  0.22597  0.68250  0.78940  1.0000
  H   H530      1.0  0.27471  0.96944  0.94358  1.0000
  H   H531      1.0  0.04672  0.80767  0.83897  1.0000
  H   H532      1.0  0.30740  0.87608  0.89282  1.0000
  N   N22       1.0  0.18753  0.72128  0.80122  1.0000
  N   N23       1.0  0.04382  0.86566  0.85555  1.0000
  C   C312      1.0  0.09782  0.99153  0.95751  1.0000
  C   C313      1.0  0.04668  0.85528  0.88089  1.0000
  H   H533      1.0  0.45498  0.95834  0.69462  1.0000
  H   H534      1.0  0.07027  0.89735  0.81400  1.0000
  H   H535      1.0  0.27753  0.99369  0.87099  1.0000
  H   H536      1.0  0.16463  0.67814  0.80710  1.0000
  H   H537      1.0  0.07795  0.52192  0.72982  1.0000
  H   H538      1.0  0.48288  0.93842  0.74811  1.0000
  C   C314      1.0  0.14204  0.73268  0.77485  1.0000
  C   C315      1.0  0.17833  0.92417  0.97923  1.0000
  C   C316      1.0  0.27903  0.97056  0.86594  1.0000
  N   N24       1.0  0.08406  0.96340  0.97008  1.0000
  H   H539      1.0  0.22252  0.68418  0.77050  1.0000
  H   H540      1.0  0.09576  0.99050  0.93857  1.0000
  H   H541      1.0  0.18358  0.74437  0.84685  1.0000
  H   H542      1.0  0.23131  0.71302  0.81579  1.0000
  C   C317      1.0  0.09915  0.93579  0.96182  1.0000
  H   H543      1.0  0.14998  0.70773  0.82242  1.0000
  C   C318      1.0  0.17098  0.69787  0.81683  1.0000
  H   H544      1.0  0.18734  0.73782  0.76493  1.0000
  H   H545      1.0  0.21247  0.66339  0.79749  1.0000
  H   H546      1.0  0.24935  0.67628  0.79259  1.0000
  H   H547      1.0  0.16142  0.76001  0.80957  1.0000
  C   C319      1.0  0.49159  0.86529  0.73303  1.0000
  H   H548      1.0  0.19526  0.66028  0.83626  1.0000
  C   C320      1.0  0.21955  0.71343  0.79915  1.0000
  H   H549      1.0  0.31044  0.92157  0.77071  1.0000
  H   H550      1.0  0.04915  0.95198  0.94692  1.0000
  C   C321      1.0  0.32178  0.92945  0.94170  1.0000
  C   C322      1.0  0.05467  0.97881  0.89731  1.0000
  S   S102      1.0  0.17327  0.51691  0.74888  1.0000
  Fe  Fe47      1.0  0.43684  0.97928  0.83691  1.0000
  H   H551      1.0  0.25693  0.89513  0.90520  1.0000
  Fe  Fe48      1.0  0.40509  0.97760  0.79184  1.0000
  H   H552      1.0  0.05780  0.55183  0.74118  1.0000
  C   C323      1.0  0.02435  0.98236  0.90028  1.0000
  H   H553      1.0  0.24146  0.92958  0.95877  1.0000
  Fe  Fe49      1.0  0.17140  0.50285  0.71289  1.0000
  C   C324      1.0  0.27757  0.89887  0.91483  1.0000
  H   H554      1.0  0.43330  0.95648  0.75486  1.0000
  H   H555      1.0  0.38310  0.51107  0.70199  1.0000
  H   H556      1.0  0.32593  0.97298  0.86036  1.0000
  C   C325      1.0  0.47607  0.96067  0.73879  1.0000
  C   C326      1.0  0.26976  0.97452  0.79910  1.0000
  C   C327      1.0  0.05736  0.51361  0.67013  1.0000
  H   H557      1.0  0.30907  0.88629  0.95916  1.0000
  C   C328      1.0  0.00985  0.90916  0.86715  1.0000
  H   H558      1.0  0.12263  0.93530  0.96666  1.0000
  H   H559      1.0  0.02100  0.58066  0.66086  1.0000
  H   H560      1.0  0.03153  0.90784  0.83495  1.0000
  H   H561      1.0  0.01062  0.96229  0.90366  1.0000
  H   H562      1.0  0.01323  0.60616  0.68193  1.0000
  C   C329      1.0  0.32766  0.50161  0.68450  1.0000
  H   H563      1.0  0.34206  0.54312  0.66502  1.0000
  H   H564      1.0  0.05547  0.91335  0.85824  1.0000
  H   H565      1.0  0.06651  0.54203  0.81387  1.0000
  H   H566      1.0  0.99883  0.85018  0.85469  1.0000
  H   H567      1.0  0.14483  0.97917  0.95684  1.0000
  H   H568      1.0  0.01540  0.80000  0.85740  1.0000
  H   H569      1.0  0.43255  0.98004  0.72825  1.0000
  C   C330      1.0  0.31483  0.98283  0.74287  1.0000
  C   C331      1.0  0.24838  0.87102  0.97527  1.0000
  H   H570      1.0  0.99883  0.52254  0.84075  1.0000
  C   C332      1.0  0.00903  0.66263  0.76712  1.0000
  H   H571      1.0  0.06361  0.90113  0.96587  1.0000
  C   C333      1.0  0.08689  0.90402  0.97081  1.0000
  H   H572      1.0  0.22585  0.98951  0.80691  1.0000
  C   C334      1.0  0.16797  0.89412  0.98361  1.0000
  H   H573      1.0  0.01151  0.80802  0.82677  1.0000
  N   N25       1.0  0.29669  0.98186  0.78478  1.0000
  H   H574      1.0  0.04024  0.94522  0.97648  1.0000
  H   H575      1.0  0.23058  0.88710  0.97869  1.0000
  C   C335      1.0  0.05191  0.96150  0.96385  1.0000
  H   H576      1.0  0.01065  0.98630  0.95924  1.0000
  H   H577      1.0  0.00194  0.54331  0.76976  1.0000
  C   C336      1.0  0.00335  0.65947  0.74386  1.0000
  C   C337      1.0  0.28894  0.97989  0.75984  1.0000
  Fe  Fe50      1.0  0.91246  0.13915  0.08653  1.0000
  S   S103      1.0  0.91953  0.08963  0.09942  1.0000
  S   S104      1.0  0.91264  0.16097  0.04986  1.0000
  Fe  Fe51      1.0  0.91392  0.16094  0.13470  1.0000
  S   S105      1.0  0.92103  0.11313  0.15152  1.0000
  S   S106      1.0  0.90879  0.20102  0.15631  1.0000
  Fe  Fe52      1.0  0.95310  0.10762  0.12312  1.0000
  H   H578      1.0  0.95699  0.47763  0.15100  1.0000
  Fe  Fe53      1.0  0.88656  0.09923  0.12676  1.0000
  S   S107      1.0  0.85094  0.06479  0.13828  1.0000
  S   S108      1.0  0.94829  0.15664  0.10823  1.0000
  S   S109      1.0  0.87719  0.14746  0.11192  1.0000
  Fe  Fe54      1.0  0.68503  0.08051  0.18190  1.0000
  S   S110      1.0  0.67515  0.09614  0.21661  1.0000
  S   S111      1.0  0.72189  0.10694  0.16267  1.0000
  Fe  Fe55      1.0  0.63250  0.03629  0.18544  1.0000
  S   S112      1.0  0.61930  0.04806  0.22036  1.0000
  H   H579      1.0  0.99273  0.14218  0.16602  1.0000
  Fe  Fe56      1.0  0.62814  0.09650  0.20573  1.0000
  S   S113      1.0  0.59561  0.13403  0.20962  1.0000
  Fe  Fe57      1.0  0.66758  0.04627  0.22774  1.0000
  H   H580      1.0  0.50113  0.12785  0.23481  1.0000
  S   S114      1.0  0.63796  0.08487  0.17007  1.0000
  C   C338      1.0  0.64741  0.06961  0.29601  1.0000
  C   C339      1.0  0.61881  0.05663  0.28648  1.0000
  H   H581      1.0  0.79628  0.08249  0.25274  1.0000
  H   H582      1.0  0.55010  0.07293  0.27989  1.0000
  S   S115      1.0  0.91216  0.41178  0.20613  1.0000
  C   C340      1.0  0.94500  0.40696  0.31474  1.0000
  H   H583      1.0  0.89043  0.06490  0.01601  1.0000
  H   H584      1.0  0.99236  0.22552  0.17730  1.0000
  C   C341      1.0  0.90379  0.42484  0.23283  1.0000
  C   C342      1.0  0.96674  0.16295  0.19113  1.0000
  H   H585      1.0  0.96219  0.11313  0.02058  1.0000
  H   H586      1.0  0.92127  0.34762  0.29141  1.0000
  H   H587      1.0  0.92707  0.47399  0.27115  1.0000
  C   C343      1.0  0.87772  0.41505  0.24365  1.0000
  H   H588      1.0  0.56296  0.12315  0.16611  1.0000
  H   H589      1.0  0.56325  0.08546  0.18212  1.0000
  H   H590      1.0  0.94229  0.21859  0.07336  1.0000
  H   H591      1.0  0.86365  0.39893  0.23588  1.0000
  H   H592      1.0  0.94480  0.06381  0.03933  1.0000
  H   H593      1.0  0.93016  0.34932  0.26168  1.0000
  C   C344      1.0  0.56440  0.15671  0.24373  1.0000
  C   C345      1.0  0.59050  0.14261  0.23798  1.0000
  C   C346      1.0  0.61169  0.13494  0.25496  1.0000
  H   H594      1.0  0.83634  0.03997  0.00519  1.0000
  H   H595      1.0  0.54827  0.16342  0.23061  1.0000
  H   H596      1.0  0.63218  0.12470  0.25045  1.0000
  C   C347      1.0  0.51982  0.09994  0.16769  1.0000
  H   H597      1.0  0.88216  0.25874  0.03397  1.0000
  C   C348      1.0  0.90401  0.10059  0.99028  1.0000
  H   H598      1.0  0.94854  0.14728  0.18740  1.0000
  C   C349      1.0  0.91328  0.45761  0.26348  1.0000
  H   H599      1.0  0.77268  0.06556  0.28759  1.0000
  H   H600      1.0  0.87827  0.31154  0.12437  1.0000
  C   C350      1.0  0.50138  0.10318  0.23196  1.0000
  C   C351      1.0  0.76419  0.05541  0.27214  1.0000
  H   H601      1.0  0.94844  0.29521  0.18403  1.0000
  H   H602      1.0  0.82481  0.09595  0.22333  1.0000
  C   C352      1.0  0.93319  0.23252  0.15509  1.0000
  C   C353      1.0  0.93084  0.25392  0.17146  1.0000
  C   C354      1.0  0.95007  0.27916  0.17110  1.0000
  C   C355      1.0  0.97343  0.26235  0.13744  1.0000
  C   C356      1.0  0.57265  0.02910  0.29120  1.0000
  C   C357      1.0  0.95438  0.23698  0.13793  1.0000
  H   H603      1.0  0.91425  0.25083  0.18463  1.0000
  H   H604      1.0  0.83232  0.24887  0.10615  1.0000
  H   H605      1.0  0.74792  0.01497  0.24316  1.0000
  H   H606      1.0  0.54067  0.10179  0.21238  1.0000
  C   C358      1.0  0.81488  0.07675  0.14433  1.0000
  C   C359      1.0  0.80784  0.10781  0.14473  1.0000
  C   C360      1.0  0.77920  0.11655  0.15017  1.0000
  C   C361      1.0  0.75735  0.09440  0.15553  1.0000
  C   C362      1.0  0.76430  0.06330  0.15504  1.0000
  C   C363      1.0  0.79293  0.05455  0.14939  1.0000
  H   H607      1.0  0.82447  0.12513  0.14095  1.0000
  H   H608      1.0  0.77397  0.14065  0.15040  1.0000
  H   H609      1.0  0.74751  0.04608  0.15867  1.0000
  H   H610      1.0  0.79813  0.03048  0.14893  1.0000
  H   H611      1.0  0.97026  0.04083  0.02563  1.0000
  C   C364      1.0  0.95663  0.38060  0.27985  1.0000
  C   C365      1.0  0.91420  0.14993  0.00450  1.0000
  C   C366      1.0  0.90790  0.13778  0.02705  1.0000
  C   C367      1.0  0.89917  0.10712  0.03110  1.0000
  C   C368      1.0  0.89709  0.08865  0.01274  1.0000
  H   H612      1.0  0.86732  0.22495  0.04930  1.0000
  H   H613      1.0  0.92095  0.17367  0.00125  1.0000
  H   H614      1.0  0.89405  0.09762  0.04838  1.0000
  H   H615      1.0  0.83555  0.08390  0.19634  1.0000
  C   C369      1.0  0.97167  0.28327  0.15421  1.0000
  C   C370      1.0  0.99705  0.03332  0.12073  1.0000
  N   N26       1.0  0.87559  0.24875  0.09084  1.0000
  C   C371      1.0  0.88691  0.27014  0.10776  1.0000
  C   C372      1.0  0.89953  0.22556  0.08819  1.0000
  C   C373      1.0  0.84919  0.23230  0.10147  1.0000
  C   C374      1.0  0.86772  0.26746  0.06862  1.0000
  C   C375      1.0  0.75951  0.00401  0.20963  1.0000
  C   C376      1.0  0.92798  0.23825  0.07666  1.0000
  Fe  Fe58      1.0  0.52100  0.15540  0.31459  1.0000
  C   C377      1.0  0.86530  0.25019  0.04666  1.0000
  H   H616      1.0  0.89315  0.25693  0.12427  1.0000
  H   H617      1.0  0.90716  0.28212  0.10131  1.0000
  H   H618      1.0  0.89211  0.20650  0.07849  1.0000
  H   H619      1.0  0.90579  0.21389  0.10528  1.0000
  H   H620      1.0  0.60886  0.07567  0.27512  1.0000
  H   H621      1.0  0.95639  0.18536  0.19364  1.0000
  H   H622      1.0  0.84645  0.27948  0.07045  1.0000
  H   H623      1.0  0.88413  0.28614  0.06480  1.0000
  H   H624      1.0  0.58425  0.09062  0.30612  1.0000
  H   H625      1.0  0.84753  0.28669  0.12484  1.0000
  H   H626      1.0  0.53590  0.03979  0.26782  1.0000
  C   C378      1.0  0.86594  0.29582  0.11391  1.0000
  H   H627      1.0  0.94065  0.25247  0.08795  1.0000
  H   H628      1.0  0.96120  0.10556  0.06129  1.0000
  H   H629      1.0  0.84656  0.19290  0.07998  1.0000
  H   H630      1.0  0.55981  0.02541  0.19460  1.0000
  H   H631      1.0  0.85554  0.21863  0.11787  1.0000
  H   H632      1.0  0.84373  0.25519  0.03817  1.0000
  H   H633      1.0  0.95627  0.22081  0.12513  1.0000
  C   C379      1.0  0.55062  0.01567  0.17982  1.0000
  H   H634      1.0  0.56093  0.08905  0.15168  1.0000
  H   H635      1.0  0.96396  0.04017  0.07807  1.0000
  C   C380      1.0  0.55363  0.09965  0.16723  1.0000
  C   C381      1.0  0.93966  0.35012  0.27919  1.0000
  H   H636      1.0  0.92391  0.25148  0.05986  1.0000
  H   H637      1.0  0.97504  0.37934  0.26751  1.0000
  H   H638      1.0  0.75935  0.03091  0.27750  1.0000
  C   C382      1.0  0.98391  0.08738  0.99611  1.0000
  H   H639      1.0  0.73686  0.11008  0.23842  1.0000
  N   N27       1.0  0.96760  0.38878  0.30299  1.0000
  H   H640      1.0  0.94212  0.45324  0.23472  1.0000
  H   H641      1.0  0.67323  0.48319  0.29831  1.0000
  S   S116      1.0  0.97564  0.35177  0.21197  1.0000
  H   H642      1.0  0.56973  0.05610  0.25740  1.0000
  H   H643      1.0  0.85753  0.31000  0.09856  1.0000
  C   C383      1.0  0.96740  0.05418  0.04073  1.0000
  S   S117      1.0  0.97531  0.39781  0.16391  1.0000
  H   H644      1.0  0.51597  0.16208  0.15097  1.0000
  S   S118      1.0  0.87713  0.45929  0.30116  1.0000
  C   C384      1.0  0.51712  0.09664  0.20956  1.0000
  H   H645      1.0  0.53831  0.17206  0.27093  1.0000
  C   C385      1.0  0.93502  0.48261  0.15794  1.0000
  H   H646      1.0  0.73102  0.06168  0.22811  1.0000
  N   N28       1.0  0.98955  0.07986  0.04056  1.0000
  H   H647      1.0  0.94213  0.39902  0.27186  1.0000
  H   H648      1.0  0.50530  0.02362  0.18895  1.0000
  H   H649      1.0  0.80644  0.04395  0.25900  1.0000
  C   C386      1.0  0.55871  0.16153  0.26661  1.0000
  N   N29       1.0  0.50582  0.11388  0.18763  1.0000
  H   H650      1.0  0.74450  0.11927  0.20897  1.0000
  S   S119      1.0  0.68971  0.02630  0.26023  1.0000
  C   C387      1.0  0.75187  0.07096  0.22046  1.0000
  C   C388      1.0  0.60625  0.14048  0.27784  1.0000
  H   H651      1.0  0.82087  0.22382  0.07208  1.0000
  H   H652      1.0  0.84993  0.41752  0.27307  1.0000
  C   C389      1.0  0.57929  0.15273  0.28379  1.0000
  H   H653      1.0  0.62248  0.13444  0.29104  1.0000
  H   H654      1.0  0.77419  0.11487  0.22865  1.0000
  H   H655      1.0  0.64329  0.08599  0.30897  1.0000
  N   N30       1.0  0.59702  0.04346  0.30413  1.0000
  C   C390      1.0  0.51410  0.14721  0.18813  1.0000
  C   C391      1.0  0.83253  0.21071  0.08654  1.0000
  H   H656      1.0  0.58130  0.00962  0.28222  1.0000
  C   C392      1.0  0.50801  0.00244  0.15724  1.0000
  H   H657      1.0  0.97350  0.03606  0.12122  1.0000
  H   H658      1.0  0.53811  0.14957  0.19079  1.0000
  H   H659      1.0  0.70715  0.47088  0.31218  1.0000
  H   H660      1.0  0.88402  0.46998  0.18557  1.0000
  H   H661      1.0  0.55563  0.01860  0.30283  1.0000
  H   H662      1.0  0.51582  0.07137  0.20844  1.0000
  H   H663      1.0  0.95434  0.32994  0.28222  1.0000
  H   H664      1.0  0.93438  0.47464  0.19464  1.0000
  H   H665      1.0  0.80095  0.10184  0.19808  1.0000
  H   H666      1.0  0.74454  0.01889  0.19856  1.0000
  Fe  Fe59      1.0  0.95893  0.39891  0.19998  1.0000
  H   H667      1.0  0.51240  0.07577  0.16729  1.0000
  C   C393      1.0  0.55639  0.05103  0.27312  1.0000
  C   C394      1.0  0.81646  0.08595  0.20785  1.0000
  S   S120      1.0  0.60765  0.00072  0.16780  1.0000
  H   H668      1.0  0.65950  0.08226  0.28161  1.0000
  C   C395      1.0  0.88734  0.44732  0.27444  1.0000
  H   H669      1.0  0.96427  0.07287  0.99402  1.0000
  C   C396      1.0  0.76765  0.01807  0.23209  1.0000
  S   S121      1.0  0.57013  0.15438  0.31276  1.0000
  C   C397      1.0  0.75253  0.10543  0.22470  1.0000
  C   C398      1.0  0.80284  0.05390  0.21324  1.0000
  H   H670      1.0  0.74927  0.06967  0.20168  1.0000
  H   H671      1.0  0.97747  0.45644  0.29431  1.0000
  H   H672      1.0  0.78492  0.00310  0.24085  1.0000
  H   H673      1.0  0.94926  0.01377  0.05987  1.0000
  H   H674      1.0  0.82078  0.03795  0.21962  1.0000
  C   C399      1.0  0.78755  0.05886  0.25304  1.0000
  N   N31       1.0  0.77733  0.05132  0.22963  1.0000
  H   H675      1.0  0.77930  0.99878  0.19975  1.0000
  C   C400      1.0  0.96767  0.03004  0.06168  1.0000
  C   C401      1.0  0.86989  0.42568  0.26463  1.0000
  H   H676      1.0  0.81544  0.19825  0.09724  1.0000
  C   C402      1.0  0.92185  0.44580  0.24293  1.0000
  H   H677      1.0  0.97470  0.17683  0.15592  1.0000
  H   H678      1.0  0.79633  0.04682  0.19623  1.0000
  H   H679      1.0  0.97938  0.43717  0.26812  1.0000
  S   S122      1.0  0.68062  0.03035  0.19390  1.0000
  H   H680      1.0  0.74347  0.06742  0.26698  1.0000
  H   H681      1.0  0.90236  0.38842  0.30526  1.0000
  H   H682      1.0  0.92324  0.46025  0.15953  1.0000
  C   C403      1.0  0.98373  0.10159  0.01932  1.0000
  C   C404      1.0  0.91247  0.13133  0.98615  1.0000
  H   H683      1.0  0.51272  0.11170  0.15094  1.0000
  C   C405      1.0  0.98446  0.09775  0.06105  1.0000
  H   H684      1.0  0.85138  0.49067  0.17709  1.0000
  H   H685      1.0  0.62527  0.03913  0.27484  1.0000
  H   H686      1.0  0.93875  0.42816  0.30386  1.0000
  H   H687      1.0  0.66216  0.05094  0.30329  1.0000
  H   H688      1.0  0.51328  0.09120  0.24681  1.0000
  C   C406      1.0  0.56929  0.00325  0.16402  1.0000
  C   C407      1.0  0.99003  0.43996  0.28489  1.0000
  C   C408      1.0  0.51984  0.01459  0.17670  1.0000
  H   H689      1.0  0.98796  0.01602  0.06249  1.0000
  H   H690      1.0  0.83655  0.07473  0.98700  1.0000
  H   H691      1.0  0.86525  0.49233  0.20547  1.0000
  H   H692      1.0  0.51392  0.19228  0.16930  1.0000
  H   H693      1.0  0.98999  0.26557  0.12425  1.0000
  H   H694      1.0  0.62383  0.00250  0.30883  1.0000
  H   H695      1.0  0.50375  0.15716  0.20291  1.0000
  C   C409      1.0  0.98796  0.16589  0.17054  1.0000
  H   H696      1.0  0.80210  0.05540  0.99506  1.0000
  H   H697      1.0  0.98748  0.08355  0.07759  1.0000
  C   C410      1.0  0.87194  0.49158  0.18730  1.0000
  C   C411      1.0  0.82519  0.05228  0.99006  1.0000
  C   C412      1.0  0.50571  0.16887  0.16685  1.0000
  C   C413      1.0  0.99443  0.40886  0.29936  1.0000
  C   C414      1.0  0.69046  0.48947  0.31056  1.0000
  H   H698      1.0  0.97712  0.15330  0.20732  1.0000
  C   C415      1.0  0.93893  0.49459  0.18189  1.0000
  H   H699      1.0  0.49750  0.27801  0.27777  1.0000
  Fe  Fe60      1.0  0.99539  0.35241  0.17680  1.0000
  H   H700      1.0  0.99590  0.14575  0.04997  1.0000
  H   H701      1.0  0.60522  0.38726  0.64666  1.0000
  C   C416      1.0  0.51230  0.49045  0.61097  1.0000
  H   H702      1.0  0.57863  0.49098  0.48023  1.0000
  C   C417      1.0  0.50166  0.32942  0.42243  1.0000
  H   H703      1.0  0.52149  0.46044  0.48838  1.0000
  H   H704      1.0  0.50821  0.45265  0.46074  1.0000
  H   H705      1.0  0.90277  0.40554  0.33152  1.0000
  H   H706      1.0  0.63975  0.03890  0.64645  1.0000
  H   H707      1.0  0.54399  0.42915  0.61510  1.0000
  H   H708      1.0  0.95428  0.41491  0.33087  1.0000
  H   H709      1.0  0.58597  0.01330  0.35082  1.0000
  C   C418      1.0  0.54613  0.37954  0.62093  1.0000
  C   C419      1.0  0.59422  0.99950  0.33726  1.0000
  H   H710      1.0  0.55793  0.47573  0.37639  1.0000
  C   C420      1.0  0.61276  0.01891  0.31943  1.0000
  C   C421      1.0  0.66721  0.49091  0.38599  1.0000
  H   H711      1.0  0.50740  0.23366  0.44873  1.0000
  C   C422      1.0  0.55656  0.06467  0.32977  1.0000
  H   H712      1.0  0.57916  0.41381  0.62081  1.0000
  C   C423      1.0  0.59499  0.45825  0.64308  1.0000
  H   H713      1.0  0.91841  0.36836  0.33121  1.0000
  H   H714      1.0  0.54669  0.45707  0.46488  1.0000
  H   H715      1.0  0.54989  0.04065  0.33390  1.0000
  H   H716      1.0  0.49990  0.30423  0.34586  1.0000
  C   C424      1.0  0.67628  0.49327  0.33403  1.0000
  H   H717      1.0  0.65218  0.49643  0.39994  1.0000
  H   H718      1.0  0.50047  0.47376  0.60200  1.0000
  H   H719      1.0  0.50775  0.33841  0.40466  1.0000
  H   H720      1.0  0.68982  0.02142  0.63746  1.0000
  H   H721      1.0  0.50228  0.28577  0.46108  1.0000
  C   C425      1.0  0.51446  0.48273  0.38936  1.0000
  H   H722      1.0  0.61256  0.44108  0.64663  1.0000
  H   H723      1.0  0.50935  0.43583  0.64273  1.0000
  H   H724      1.0  0.65728  0.47125  0.37813  1.0000
  C   C426      1.0  0.50939  0.01131  0.36531  1.0000
  C   C427      1.0  0.58650  0.06907  0.31768  1.0000
  H   H725      1.0  0.98141  0.36790  0.33639  1.0000
  H   H726      1.0  0.54942  0.49146  0.58829  1.0000
  H   H727      1.0  0.54882  0.37789  0.60220  1.0000
  H   H728      1.0  0.50695  0.45986  0.38665  1.0000
  H   H729      1.0  0.55740  0.07532  0.34628  1.0000
  H   H730      1.0  0.52272  0.37505  0.62471  1.0000
  H   H731      1.0  0.67697  0.47007  0.34363  1.0000
  C   C428      1.0  0.52497  0.46576  0.46967  1.0000
  H   H732      1.0  0.66906  0.08358  0.64342  1.0000
  H   H733      1.0  0.60299  0.07414  0.33093  1.0000
  H   H734      1.0  0.95781  0.34446  0.32155  1.0000
  H   H735      1.0  0.71945  0.48153  0.36303  1.0000
  H   H736      1.0  0.55959  0.36100  0.62999  1.0000
  C   C429      1.0  0.55615  0.41169  0.62666  1.0000
  H   H737      1.0  0.63042  0.02908  0.32951  1.0000
  H   H738      1.0  0.50578  0.26077  0.42404  1.0000
  H   H739      1.0  0.55042  0.46798  0.64945  1.0000
  H   H740      1.0  0.57015  0.49188  0.43649  1.0000
  H   H741      1.0  0.51948  0.31374  0.42902  1.0000
  C   C430      1.0  0.54336  0.49176  0.38361  1.0000
  H   H742      1.0  0.51650  0.00988  0.38309  1.0000
  H   H743      1.0  0.50059  0.34953  0.43262  1.0000
  H   H744      1.0  0.53902  0.07732  0.31954  1.0000
  H   H745      1.0  0.59171  0.46305  0.62423  1.0000
  H   H746      1.0  0.68846  0.48421  0.39432  1.0000
  H   H747      1.0  0.60294  0.48014  0.64918  1.0000
  C   C431      1.0  0.97618  0.36101  0.31892  1.0000
  C   C432      1.0  0.91576  0.39075  0.32090  1.0000
  Fe  Fe61      1.0  0.92140  0.13675  0.88873  1.0000
  S   S123      1.0  0.93624  0.10008  0.86697  1.0000
  S   S124      1.0  0.91185  0.18292  0.86907  1.0000
  Fe  Fe62      1.0  0.91615  0.09116  0.93153  1.0000
  S   S125      1.0  0.93082  0.05147  0.91256  1.0000
  S   S126      1.0  0.90253  0.07597  0.96812  1.0000
  Fe  Fe63      1.0  0.96500  0.08387  0.89707  1.0000
  H   H748      1.0  0.56573  0.04739  0.69645  1.0000
  Fe  Fe64      1.0  0.90054  0.07127  0.88439  1.0000
  S   S127      1.0  0.87061  0.04034  0.86547  1.0000
  S   S128      1.0  0.95246  0.12266  0.91798  1.0000
  S   S129      1.0  0.88377  0.10881  0.90426  1.0000
  C   C433      1.0  0.56560  0.39319  0.66796  1.0000
  S   S130      1.0  0.97445  0.37241  0.82723  1.0000
  S   S131      1.0  0.95159  0.37515  0.76203  1.0000
  C   C434      1.0  0.49890  0.01885  0.85484  1.0000
  H   H749      1.0  0.81278  0.14165  0.76632  1.0000
  H   H750      1.0  0.80120  0.07602  0.82362  1.0000
  C   C435      1.0  0.81300  0.12298  0.81905  1.0000
  H   H751      1.0  0.62370  0.12699  0.78727  1.0000
  H   H752      1.0  0.70682  0.03221  0.68639  1.0000
  S   S132      1.0  0.59949  0.15500  0.71508  1.0000
  S   S133      1.0  0.59187  0.05599  0.84259  1.0000
  Fe  Fe65      1.0  0.63267  0.03268  0.83132  1.0000
  H   H753      1.0  0.55121  0.06227  0.87812  1.0000
  C   C436      1.0  0.54901  0.08231  0.78436  1.0000
  Fe  Fe66      1.0  0.69940  0.03324  0.84168  1.0000
  C   C437      1.0  0.69291  0.10523  0.66961  1.0000
  S   S134      1.0  0.73208  0.05818  0.86301  1.0000
  Fe  Fe67      1.0  0.67655  0.03269  0.79254  1.0000
  S   S135      1.0  0.68883  0.05453  0.75758  1.0000
  H   H754      1.0  0.96925  0.48914  0.86571  1.0000
  S   S136      1.0  0.66937  0.06440  0.81971  1.0000
  Fe  Fe68      1.0  0.55623  0.14126  0.70054  1.0000
  H   H755      1.0  0.98458  0.44317  0.73534  1.0000
  C   C438      1.0  0.56827  0.02726  0.68730  1.0000
  Fe  Fe69      1.0  0.98506  0.36689  0.79042  1.0000
  H   H756      1.0  0.91776  0.14074  0.96888  1.0000
  C   C439      1.0  0.62340  0.12637  0.72726  1.0000
  C   C440      1.0  0.61344  0.09703  0.73537  1.0000
  C   C441      1.0  0.63325  0.07511  0.74567  1.0000
  C   C442      1.0  0.66316  0.08221  0.74694  1.0000
  C   C443      1.0  0.67309  0.11127  0.73839  1.0000
  C   C444      1.0  0.65319  0.13347  0.72902  1.0000
  H   H757      1.0  0.59056  0.09129  0.73382  1.0000
  H   H758      1.0  0.62559  0.05246  0.75199  1.0000
  H   H759      1.0  0.69618  0.11675  0.73919  1.0000
  H   H760      1.0  0.66097  0.15610  0.72276  1.0000
  H   H761      1.0  0.55252  0.37159  0.66818  1.0000
  S   S137      1.0  0.66183  0.00412  0.85584  1.0000
  C   C445      1.0  0.93563  0.46157  0.77834  1.0000
  C   C446      1.0  0.55512  0.99781  0.65575  1.0000
  C   C447      1.0  0.57642  0.13056  0.78255  1.0000
  H   H762      1.0  0.57716  0.15469  0.78709  1.0000
  H   H763      1.0  0.50676  0.01168  0.72430  1.0000
  C   C448      1.0  0.81920  0.02245  0.92986  1.0000
  C   C449      1.0  0.92006  0.42515  0.74339  1.0000
  C   C450      1.0  0.93790  0.41286  0.76162  1.0000
  C   C451      1.0  0.94572  0.43124  0.77901  1.0000
  H   H764      1.0  0.98544  0.17024  0.87240  1.0000
  C   C452      1.0  0.85172  0.01656  0.92454  1.0000
  H   H765      1.0  0.91382  0.41104  0.72993  1.0000
  H   H766      1.0  0.95952  0.42214  0.79310  1.0000
  H   H767      1.0  0.60112  0.09618  0.67989  1.0000
  H   H768      1.0  0.82395  0.00269  0.85036  1.0000
  C   C453      1.0  0.83213  0.04553  0.86476  1.0000
  C   C454      1.0  0.81917  0.07172  0.87229  1.0000
  C   C455      1.0  0.78849  0.07504  0.87183  1.0000
  C   C456      1.0  0.77046  0.05251  0.86345  1.0000
  C   C457      1.0  0.78337  0.02647  0.85559  1.0000
  C   C458      1.0  0.81410  0.02299  0.85630  1.0000
  H   H769      1.0  0.83280  0.08959  0.87823  1.0000
  H   H770      1.0  0.77870  0.09543  0.87767  1.0000
  H   H771      1.0  0.85257  0.03165  0.96690  1.0000
  H   H772      1.0  0.80072  0.10027  0.96486  1.0000
  C   C459      1.0  0.97462  0.26509  0.86672  1.0000
  C   C460      1.0  0.95346  0.26314  0.84952  1.0000
  C   C461      1.0  0.93364  0.23833  0.85088  1.0000
  C   C462      1.0  0.93528  0.21506  0.86916  1.0000
  C   C463      1.0  0.95592  0.21748  0.88667  1.0000
  C   C464      1.0  0.97538  0.24251  0.88550  1.0000
  S   S138      1.0  0.53223  0.09803  0.71254  1.0000
  C   C465      1.0  0.54165  0.11919  0.81381  1.0000
  H   H773      1.0  0.95695  0.20001  0.90105  1.0000
  H   H774      1.0  0.81403  0.14330  0.80634  1.0000
  H   H775      1.0  0.96193  0.38969  0.66453  1.0000
  C   C466      1.0  0.51137  0.43049  0.67949  1.0000
  S   S139      1.0  0.55009  0.13687  0.66282  1.0000
  H   H776      1.0  0.56063  0.06883  0.79874  1.0000
  H   H777      1.0  0.55800  0.10579  0.82472  1.0000
  H   H778      1.0  0.89754  0.46547  0.72796  1.0000
  H   H779      1.0  0.60391  0.11573  0.81294  1.0000
  H   H780      1.0  0.83045  0.46706  0.71467  1.0000
  H   H781      1.0  0.56389  0.39937  0.68593  1.0000
  H   H782      1.0  0.70730  0.13338  0.80451  1.0000
  H   H783      1.0  0.79528  0.09236  0.76310  1.0000
  C   C467      1.0  0.51996  0.06541  0.78031  1.0000
  H   H784      1.0  0.95633  0.17796  0.81363  1.0000
  H   H785      1.0  0.65423  0.01916  0.71930  1.0000
  N   N32       1.0  0.81327  0.04504  0.94735  1.0000
  H   H786      1.0  0.67447  0.11972  0.67457  1.0000
  C   C468      1.0  0.78055  0.04524  0.95104  1.0000
  H   H787      1.0  0.50517  0.29058  0.68017  1.0000
  C   C469      1.0  0.82527  0.07600  0.93836  1.0000
  C   C470      1.0  0.61827  0.08616  0.66944  1.0000
  C   C471      1.0  0.76181  0.05552  0.92958  1.0000
  C   C472      1.0  0.95866  0.40479  0.67855  1.0000
  H   H788      1.0  0.69064  0.00503  0.72259  1.0000
  C   C473      1.0  0.52441  0.13198  0.77328  1.0000
  H   H789      1.0  0.60030  0.00616  0.71113  1.0000
  H   H790      1.0  0.69225  0.05755  0.70522  1.0000
  H   H791      1.0  0.98275  0.10618  0.98193  1.0000
  H   H792      1.0  0.86382  0.03812  0.91954  1.0000
  H   H793      1.0  0.79854  0.11804  0.93577  1.0000
  H   H794      1.0  0.84946  0.07640  0.94078  1.0000
  H   H795      1.0  0.82162  0.07993  0.91948  1.0000
  H   H796      1.0  0.78852  0.04244  0.77089  1.0000
  H   H797      1.0  0.51915  0.41453  0.69412  1.0000
  H   H798      1.0  0.83122  0.12026  0.95209  1.0000
  H   H799      1.0  0.54007  0.17997  0.76886  1.0000
  C   C474      1.0  0.51482  0.00996  0.83605  1.0000
  H   H800      1.0  0.60179  0.36065  0.67095  1.0000
  H   H801      1.0  0.62745  0.05177  0.69697  1.0000
  H   H802      1.0  0.77411  0.05999  0.96452  1.0000
  C   C475      1.0  0.68586  0.03984  0.69366  1.0000
  H   H803      1.0  0.95256  0.28055  0.83509  1.0000
  C   C476      1.0  0.64040  0.06869  0.68592  1.0000
  H   H804      1.0  0.52945  0.12922  0.75497  1.0000
  H   H805      1.0  0.98256  0.14753  0.81626  1.0000
  C   C477      1.0  0.59815  0.38519  0.66478  1.0000
  H   H806      1.0  0.51553  0.17154  0.79314  1.0000
  C   C478      1.0  0.58771  0.00388  0.69563  1.0000
  H   H807      1.0  0.98815  0.01419  0.90102  1.0000
  H   H808      1.0  0.50395  0.06692  0.79425  1.0000
  C   C479      1.0  0.97642  0.39289  0.70021  1.0000
  H   H809      1.0  0.93499  0.40526  0.68288  1.0000
  H   H810      1.0  0.94161  0.47529  0.79206  1.0000
  H   H811      1.0  0.54563  0.14310  0.81811  1.0000
  H   H812      1.0  0.51167  0.08376  0.82922  1.0000
  H   H813      1.0  0.64883  0.08515  0.69767  1.0000
  N   N33       1.0  0.54721  0.11580  0.78877  1.0000
  H   H814      1.0  0.52466  0.04061  0.77950  1.0000
  H   H815      1.0  0.91748  0.23677  0.83741  1.0000
  H   H816      1.0  0.56236  0.07959  0.76878  1.0000
  H   H817      1.0  0.60618  0.09052  0.79014  1.0000
  H   H818      1.0  0.61253  0.39957  0.67481  1.0000
  C   C480      1.0  0.54137  0.04729  0.86650  1.0000
  C   C481      1.0  0.60378  0.11471  0.79405  1.0000
  H   H819      1.0  0.76948  0.07747  0.92060  1.0000
  H   H820      1.0  0.99149  0.24414  0.89900  1.0000
  H   H821      1.0  0.82040  0.08609  0.79786  1.0000
  H   H822      1.0  0.50670  0.12128  0.83874  1.0000
  C   C482      1.0  0.55207  0.02435  0.66721  1.0000
  H   H823      1.0  0.97713  0.36749  0.70012  1.0000
  C   C483      1.0  0.55742  0.03853  0.84790  1.0000
  H   H824      1.0  0.77002  0.01575  0.79065  1.0000
  H   H825      1.0  0.76969  0.00892  0.84915  1.0000
  C   C484      1.0  0.51157  0.10870  0.82357  1.0000
  H   H826      1.0  0.96083  0.45087  0.71039  1.0000
  H   H827      1.0  0.57982  0.13197  0.76363  1.0000
  C   C485      1.0  0.77979  0.49586  0.76407  1.0000
  H   H828      1.0  0.70757  0.09975  0.68462  1.0000
  N   N34       1.0  0.66546  0.05328  0.67490  1.0000
  H   H829      1.0  0.51095  0.23526  0.67479  1.0000
  H   H830      1.0  0.63829  0.01339  0.67159  1.0000
  H   H831      1.0  0.73880  0.05906  0.93488  1.0000
  C   C486      1.0  0.78189  0.03805  0.78910  1.0000
  H   H832      1.0  0.76023  0.13781  0.80961  1.0000
  H   H833      1.0  0.74643  0.10418  0.82454  1.0000
  N   N35       1.0  0.77357  0.09535  0.79560  1.0000
  H   H834      1.0  0.77877  0.15596  0.77696  1.0000
  C   C487      1.0  0.75155  0.11477  0.80691  1.0000
  C   C488      1.0  0.80232  0.09372  0.80873  1.0000
  C   C489      1.0  0.78849  0.14004  0.76552  1.0000
  H   H835      1.0  0.83553  0.11890  0.82606  1.0000
  H   H836      1.0  0.83601  0.48740  0.75030  1.0000
  S   S140      1.0  0.70911  0.00330  0.81354  1.0000
  C   C490      1.0  0.72230  0.12075  0.79382  1.0000
  H   H837      1.0  0.75381  0.05538  0.81431  1.0000
  C   C491      1.0  0.76114  0.06319  0.79656  1.0000
  H   H838      1.0  0.78101  0.14874  0.74798  1.0000
  H   H839      1.0  0.71089  0.09936  0.79035  1.0000
  C   C492      1.0  0.77831  0.10649  0.77071  1.0000
  C   C493      1.0  0.65336  0.02871  0.66108  1.0000
  H   H840      1.0  0.79919  0.12807  0.83382  1.0000
  H   H841      1.0  0.72543  0.13525  0.77740  1.0000
  C   C494      1.0  0.67365  0.01262  0.70957  1.0000
  C   C495      1.0  0.81277  0.10468  0.94858  1.0000
  C   C496      1.0  0.91085  0.45596  0.74226  1.0000
  H   H842      1.0  0.74129  0.06236  0.78554  1.0000
  H   H843      1.0  0.75843  0.10288  0.76008  1.0000
  H   H844      1.0  0.51870  0.45427  0.68154  1.0000
  S   S141      1.0  0.52591  0.05205  0.65726  1.0000
  C   C497      1.0  0.97293  0.16618  0.82535  1.0000
  H   H845      1.0  0.80154  0.03480  0.80035  1.0000
  H   H846      1.0  0.56948  0.45115  0.67395  1.0000
  H   H847      1.0  0.98686  0.47856  0.71768  1.0000
  C   C498      1.0  0.82848  0.03314  0.96942  1.0000
  H   H848      1.0  0.55621  0.01349  0.81788  1.0000
  C   C499      1.0  0.91854  0.47416  0.75984  1.0000
  C   C500      1.0  0.54416  0.01971  0.83263  1.0000
  S   S142      1.0  0.63715  0.00343  0.80202  1.0000
  C   C501      1.0  0.51247  0.03728  0.87007  1.0000
  H   H849      1.0  0.50036  0.04437  0.88454  1.0000
  S   S143      1.0  0.51736  0.17227  0.70266  1.0000
  C   C502      1.0  0.99599  0.19004  0.83149  1.0000
  C   C503      1.0  0.52064  0.16664  0.77534  1.0000
  H   H850      1.0  0.96071  0.15628  0.84062  1.0000
  H   H851      1.0  0.51148  0.00516  0.69572  1.0000
  H   H852      1.0  0.96321  0.39622  0.71567  1.0000
  H   H853      1.0  0.96413  0.42862  0.67187  1.0000
  H   H854      1.0  0.70574  0.11955  0.65652  1.0000
  H   H855      1.0  0.60688  0.07087  0.65818  1.0000
  H   H856      1.0  0.98384  0.20875  0.83893  1.0000
  Fe  Fe70      1.0  0.52329  0.09553  0.67497  1.0000
  H   H857      1.0  0.62849  0.10557  0.65880  1.0000
  C   C504      1.0  0.98327  0.45352  0.71732  1.0000
  H   H858      1.0  0.80898  0.03029  0.91299  1.0000
  H   H859      1.0  0.79899  0.48469  0.77288  1.0000
  H   H860      1.0  0.76106  0.03767  0.91728  1.0000
  H   H861      1.0  0.50974  0.07384  0.76359  1.0000
  H   H862      1.0  0.77285  0.02187  0.95765  1.0000
  H   H863      1.0  0.76906  0.47932  0.75337  1.0000
  C   C505      1.0  0.81966  0.48967  0.71569  1.0000
  Fe  Fe71      1.0  0.50866  0.16397  0.66600  1.0000
  C   C506      1.0  0.68226  0.07606  0.65904  1.0000
  H   H864      1.0  0.79583  0.48554  0.71777  1.0000
  C   C507      1.0  0.49955  0.25029  0.66196  1.0000
  H   H865      1.0  0.82098  0.00935  0.97500  1.0000
  H   H866      1.0  0.70221  0.06517  0.65256  1.0000
  C   C508      1.0  0.56593  0.44916  0.65528  1.0000
  H   H867      1.0  0.50962  0.39720  0.65505  1.0000
  C   C509      1.0  0.52029  0.41986  0.65605  1.0000
  H   H868      1.0  0.85287  0.00251  0.90968  1.0000
  H   H869      1.0  0.80908  0.99970  0.93524  1.0000
  N   N36       1.0  0.55280  0.41826  0.65143  1.0000
  H   H870      1.0  0.50247  0.12161  0.77609  1.0000
  H   H871      1.0  0.50182  0.17510  0.76435  1.0000
  H   H872      1.0  0.86311  0.00317  0.93901  1.0000
  C   C510      1.0  0.67621  0.00820  0.65057  1.0000
  H   H873      1.0  0.94816  0.57962  0.14695  1.0000
  S   S144      1.0  0.56502  0.92456  0.30652  1.0000
  C   C511      1.0  0.55718  0.99024  0.14521  1.0000
  C   C512      1.0  0.95521  0.63210  0.26298  1.0000
  H   H874      1.0  0.99504  0.98566  0.11397  1.0000
  S   S145      1.0  0.51380  0.87535  0.27093  1.0000
  H   H875      1.0  0.97228  0.79825  0.23091  1.0000
  H   H876      1.0  0.96816  0.72838  0.16627  1.0000
  H   H877      1.0  0.88840  0.52206  0.15945  1.0000
  S   S146      1.0  0.86083  0.54672  0.28621  1.0000
  C   C513      1.0  0.69639  0.97384  0.28856  1.0000
  C   C514      1.0  0.98815  0.74755  0.19553  1.0000
  H   H878      1.0  0.91900  0.55431  0.14135  1.0000
  C   C515      1.0  0.98101  0.77640  0.23944  1.0000
  H   H879      1.0  0.95633  0.55490  0.18520  1.0000
  S   S147      1.0  0.93003  0.52961  0.29746  1.0000
  C   C516      1.0  0.60198  0.88675  0.24166  1.0000
  C   C517      1.0  0.52686  0.99039  0.14161  1.0000
  C   C518      1.0  0.99063  0.63629  0.22393  1.0000
  S   S148      1.0  0.64924  0.89880  0.31043  1.0000
  C   C519      1.0  0.94873  0.61429  0.24491  1.0000
  H   H880      1.0  0.59684  0.86250  0.24778  1.0000
  C   C520      1.0  0.63998  0.95154  0.28113  1.0000
  H   H881      1.0  0.66664  0.58384  0.31498  1.0000
  C   C521      1.0  0.97909  0.65258  0.26122  1.0000
  H   H882      1.0  0.61819  0.94293  0.27831  1.0000
  C   C522      1.0  0.96635  0.61667  0.22534  1.0000
  H   H883      1.0  0.96133  0.60326  0.21117  1.0000
  H   H884      1.0  0.61465  0.88551  0.22576  1.0000
  H   H885      1.0  0.56867  0.91384  0.25524  1.0000
  H   H886      1.0  0.96446  0.75785  0.23887  1.0000
  H   H887      1.0  0.98380  0.80701  0.19276  1.0000
  C   C523      1.0  0.68750  0.94560  0.29963  1.0000
  N   N37       1.0  0.57158  0.93071  0.21934  1.0000
  C   C524      1.0  0.54084  0.94385  0.21911  1.0000
  C   C525      1.0  0.57674  0.91955  0.19605  1.0000
  C   C526      1.0  0.59289  0.95612  0.22342  1.0000
  C   C527      1.0  0.53332  0.96412  0.23856  1.0000
  C   C528      1.0  0.55462  0.89566  0.18855  1.0000
  H   H888      1.0  0.53630  0.95803  0.20262  1.0000
  H   H889      1.0  0.52410  0.92518  0.22008  1.0000
  H   H890      1.0  0.57645  0.93936  0.18255  1.0000
  H   H891      1.0  0.58616  0.97773  0.21313  1.0000
  H   H892      1.0  0.59236  0.96120  0.24171  1.0000
  H   H893      1.0  0.63750  0.97304  0.21972  1.0000
  H   H894      1.0  0.53785  0.95242  0.25585  1.0000
  C   C529      1.0  0.65925  0.93447  0.29615  1.0000
  H   H895      1.0  0.63628  0.93326  0.22864  1.0000
  H   H896      1.0  0.56143  0.88849  0.17164  1.0000
  H   H897      1.0  0.53224  0.90541  0.18606  1.0000
  C   C530      1.0  0.93437  0.55175  0.17760  1.0000
  H   H898      1.0  0.90535  0.54195  0.21744  1.0000
  C   C531      1.0  0.62541  0.95152  0.21731  1.0000
  Fe  Fe72      1.0  0.54025  0.88086  0.30269  1.0000
  C   C532      1.0  0.57310  0.90501  0.23840  1.0000
  H   H899      1.0  0.55405  0.87467  0.20077  1.0000
  S   S149      1.0  0.57819  0.84925  0.31164  1.0000
  H   H900      1.0  0.61609  0.89621  0.25487  1.0000
  H   H901      1.0  0.50948  0.96944  0.23772  1.0000
  C   C533      1.0  0.91914  0.52240  0.21293  1.0000
  H   H902      1.0  0.98432  0.77967  0.25790  1.0000
  C   C534      1.0  0.64927  0.97948  0.26940  1.0000
  H   H903      1.0  0.55517  0.88814  0.23673  1.0000
  H   H904      1.0  0.92106  0.57159  0.18233  1.0000
  C   C535      1.0  0.93940  0.55610  0.15149  1.0000
  H   H905      1.0  0.62858  0.94775  0.19900  1.0000
  H   H906      1.0  0.94143  0.63066  0.27802  1.0000
  H   H907      1.0  0.87697  0.54080  0.18308  1.0000
  S   S150      1.0  0.91845  0.58944  0.24587  1.0000
  H   H908      1.0  0.65766  0.79793  0.30074  1.0000
  H   H909      1.0  0.59868  0.90914  0.19474  1.0000
  H   H910      1.0  0.96625  0.75465  0.20130  1.0000
  H   H911      1.0  0.71813  0.98246  0.29171  1.0000
  Fe  Fe73      1.0  0.90457  0.56955  0.28093  1.0000
  H   H912      1.0  0.98759  0.55125  0.28223  1.0000
  N   N38       1.0  0.92069  0.52182  0.18715  1.0000
  H   H913      1.0  0.57136  0.98040  0.13306  1.0000
  H   H914      1.0  0.96407  0.50555  0.22221  1.0000
  H   H915      1.0  0.70247  0.93252  0.31118  1.0000
  H   H916      1.0  0.65675  0.54593  0.30886  1.0000
  H   H917      1.0  0.95642  0.54011  0.14620  1.0000
  S   S151      1.0  0.90206  0.59409  0.31271  1.0000
  H   H918      1.0  0.98367  0.66685  0.27494  1.0000
  C   C536      1.0  0.67747  0.99074  0.27329  1.0000
  H   H919      1.0  0.95946  0.54678  0.22235  1.0000
  Fe  Fe74      1.0  0.88622  0.50881  0.30569  1.0000
  C   C537      1.0  0.94874  0.52411  0.22583  1.0000
  H   H920      1.0  0.54500  0.98646  0.23647  1.0000
  H   H921      1.0  0.63455  0.99251  0.25768  1.0000
  H   H922      1.0  0.50148  0.92802  0.29517  1.0000
  C   C538      1.0  0.88956  0.52044  0.17842  1.0000
  H   H923      1.0  0.94444  0.52141  0.24460  1.0000
  C   C539      1.0  0.98457  0.74634  0.16940  1.0000
  H   H924      1.0  0.51793  0.98098  0.12656  1.0000
  H   H925      1.0  0.74795  0.98185  0.21395  1.0000
  H   H926      1.0  0.97595  0.76836  0.16102  1.0000
  H   H927      1.0  0.70050  0.51066  0.30230  1.0000
  H   H928      1.0  0.99149  0.72353  0.20346  1.0000
  H   H929      1.0  0.96253  0.49976  0.18398  1.0000
  C   C540      1.0  0.99702  0.65448  0.24175  1.0000
  H   H930      1.0  0.90815  0.50150  0.22099  1.0000
  H   H931      1.0  0.92401  0.49842  0.14480  1.0000
  C   C541      1.0  0.60834  0.70981  0.54077  1.0000
  C   C542      1.0  0.57234  0.70150  0.58383  1.0000
  H   H932      1.0  0.58311  0.77966  0.33492  1.0000
  H   H933      1.0  0.60832  0.79272  0.60584  1.0000
  C   C543      1.0  0.57331  0.51282  0.46968  1.0000
  Fe  Fe75      1.0  0.56184  0.84831  0.34781  1.0000
  C   C544      1.0  0.73452  0.53614  0.58804  1.0000
  H   H934      1.0  0.60856  0.73005  0.33136  1.0000
  C   C545      1.0  0.74600  0.51256  0.34133  1.0000
  H   H935      1.0  0.54111  0.67609  0.60638  1.0000
  H   H936      1.0  0.85456  0.60421  0.44196  1.0000
  Fe  Fe76      1.0  0.67989  0.58298  0.63711  1.0000
  S   S152      1.0  0.67709  0.63412  0.62811  1.0000
  Fe  Fe77      1.0  0.61881  0.57108  0.61691  1.0000
  S   S153      1.0  0.61110  0.62108  0.60621  1.0000
  H   H937      1.0  0.74540  0.64422  0.61121  1.0000
  Fe  Fe78      1.0  0.65780  0.62217  0.59451  1.0000
  S   S154      1.0  0.67287  0.64644  0.56080  1.0000
  H   H938      1.0  0.75096  0.53744  0.33823  1.0000
  S   S155      1.0  0.66429  0.57168  0.60244  1.0000
  Fe  Fe79      1.0  0.63148  0.63985  0.39036  1.0000
  S   S156      1.0  0.66316  0.63342  0.42040  1.0000
  S   S157      1.0  0.62831  0.68202  0.36443  1.0000
  Fe  Fe80      1.0  0.61313  0.57198  0.39456  1.0000
  S   S158      1.0  0.64343  0.56093  0.42442  1.0000
  S   S159      1.0  0.59033  0.53124  0.38061  1.0000
  Fe  Fe81      1.0  0.62702  0.60432  0.43738  1.0000
  S   S160      1.0  0.60978  0.59833  0.47388  1.0000
  Fe  Fe82      1.0  0.67703  0.59033  0.40493  1.0000
  S   S161      1.0  0.72244  0.56839  0.40488  1.0000
  S   S162      1.0  0.59423  0.61378  0.40844  1.0000
  S   S163      1.0  0.64788  0.59845  0.37403  1.0000
  C   C546      1.0  0.65603  0.63265  0.53653  1.0000
  C   C547      1.0  0.66639  0.64187  0.51436  1.0000
  C   C548      1.0  0.65279  0.63116  0.49490  1.0000
  C   C549      1.0  0.62850  0.61158  0.49759  1.0000
  C   C550      1.0  0.61822  0.60255  0.51979  1.0000
  C   C551      1.0  0.63206  0.61277  0.53918  1.0000
  H   H939      1.0  0.68489  0.65732  0.51219  1.0000
  H   H940      1.0  0.66078  0.63837  0.47785  1.0000
  H   H941      1.0  0.59942  0.58757  0.52206  1.0000
  H   H942      1.0  0.62392  0.60543  0.55616  1.0000
  H   H943      1.0  0.57665  0.75684  0.40779  1.0000
  H   H944      1.0  0.72654  0.61487  0.36565  1.0000
  C   C552      1.0  0.53452  0.54179  0.39657  1.0000
  H   H945      1.0  0.76094  0.63298  0.55025  1.0000
  C   C553      1.0  0.54320  0.53439  0.63355  1.0000
  H   H946      1.0  0.57590  0.68029  0.57505  1.0000
  C   C554      1.0  0.79261  0.58719  0.34914  1.0000
  C   C555      1.0  0.79582  0.56287  0.36630  1.0000
  C   C556      1.0  0.77434  0.55772  0.38346  1.0000
  C   C557      1.0  0.74916  0.57633  0.38330  1.0000
  C   C558      1.0  0.74577  0.60035  0.36594  1.0000
  C   C559      1.0  0.79476  0.57238  0.59891  1.0000
  H   H947      1.0  0.81477  0.54805  0.36629  1.0000
  H   H948      1.0  0.65132  0.84635  0.39644  1.0000
  H   H949      1.0  0.73361  0.81239  0.34810  1.0000
  H   H950      1.0  0.49788  0.50576  0.46565  1.0000
  H   H951      1.0  0.74482  0.65547  0.58116  1.0000
  C   C560      1.0  0.67000  0.51967  0.36865  1.0000
  H   H952      1.0  0.84172  0.62978  0.41885  1.0000
  H   H953      1.0  0.58876  0.69511  0.53919  1.0000
  H   H954      1.0  0.71901  0.51775  0.58403  1.0000
  S   S164      1.0  0.88186  0.52807  0.33993  1.0000
  C   C561      1.0  0.55563  0.52248  0.61444  1.0000
  H   H955      1.0  0.64414  0.56122  0.33471  1.0000
  H   H956      1.0  0.65754  0.73433  0.60221  1.0000
  S   S165      1.0  0.53599  0.95570  0.36431  1.0000
  H   H957      1.0  0.57093  0.75394  0.59763  1.0000
  C   C562      1.0  0.57850  0.77186  0.37162  1.0000
  C   C563      1.0  0.59793  0.72287  0.38909  1.0000
  C   C564      1.0  0.60729  0.71534  0.36759  1.0000
  C   C565      1.0  0.60160  0.73587  0.34808  1.0000
  C   C566      1.0  0.58729  0.76403  0.35005  1.0000
  H   H958      1.0  0.60221  0.70727  0.40423  1.0000
  H   H959      1.0  0.95756  0.58975  0.39528  1.0000
  H   H960      1.0  0.85931  0.65333  0.38245  1.0000
  H   H961      1.0  0.96510  0.62904  0.38723  1.0000
  S   S166      1.0  0.96311  0.55806  0.35317  1.0000
  H   H962      1.0  0.54115  0.49747  0.50681  1.0000
  H   H963      1.0  0.74336  0.82677  0.37451  1.0000
  H   H964      1.0  0.72498  0.51810  0.37310  1.0000
  H   H965      1.0  0.94553  0.61895  0.41327  1.0000
  C   C567      1.0  0.67520  0.81257  0.33265  1.0000
  C   C568      1.0  0.85426  0.60814  0.42289  1.0000
  H   H966      1.0  0.85613  0.54613  0.39242  1.0000
  C   C569      1.0  0.87618  0.54428  0.40320  1.0000
  H   H967      1.0  0.91916  0.56183  0.40630  1.0000
  C   C570      1.0  0.76753  0.60587  0.34907  1.0000
  H   H968      1.0  0.69575  0.80161  0.32774  1.0000
  N   N39       1.0  0.75190  0.59007  0.57095  1.0000
  H   H969      1.0  0.50682  0.59192  0.45565  1.0000
  H   H970      1.0  0.58495  0.74843  0.55215  1.0000
  C   C571      1.0  0.60401  0.73382  0.55822  1.0000
  C   C572      1.0  0.75271  0.63734  0.59435  1.0000
  H   H971      1.0  0.70572  0.76059  0.34963  1.0000
  Fe  Fe83      1.0  0.54928  0.91777  0.34294  1.0000
  H   H972      1.0  0.77807  0.56105  0.61033  1.0000
  H   H973      1.0  0.84189  0.58881  0.41669  1.0000
  H   H974      1.0  0.77702  0.53896  0.39677  1.0000
  H   H975      1.0  0.74033  0.58216  0.52120  1.0000
  N   N40       1.0  0.54175  0.52181  0.47275  1.0000
  N   N41       1.0  0.68963  0.51680  0.34823  1.0000
  C   C573      1.0  0.78415  0.58284  0.57417  1.0000
  H   H976      1.0  0.71096  0.56759  0.56395  1.0000
  C   C574      1.0  0.61084  0.77782  0.59156  1.0000
  H   H977      1.0  0.55386  0.71397  0.57450  1.0000
  C   C575      1.0  0.50010  0.50176  0.63036  1.0000
  H   H978      1.0  0.90798  0.55894  0.37748  1.0000
  C   C576      1.0  0.59453  0.74723  0.59787  1.0000
  H   H979      1.0  0.61204  0.72200  0.52347  1.0000
  C   C577      1.0  0.53726  0.55380  0.46121  1.0000
  N   N42       1.0  0.89304  0.60027  0.39134  1.0000
  H   H980      1.0  0.67189  0.69807  0.59661  1.0000
  H   H981      1.0  0.87104  0.54702  0.42141  1.0000
  H   H982      1.0  0.66437  0.99040  0.64172  1.0000
  C   C578      1.0  0.74793  0.61159  0.54933  1.0000
  C   C579      1.0  0.88624  0.61192  0.41424  1.0000
  H   H983      1.0  0.54033  0.55420  0.44237  1.0000
  H   H984      1.0  0.76490  0.62475  0.33584  1.0000
  H   H985      1.0  0.89096  0.63701  0.41350  1.0000
  H   H986      1.0  0.51319  0.97178  0.31802  1.0000
  H   H987      1.0  0.92431  0.61005  0.36370  1.0000
  S   S167      1.0  0.59127  0.53244  0.60483  1.0000
  C   C580      1.0  0.90052  0.56651  0.39415  1.0000
  H   H988      1.0  0.62337  0.74921  0.55635  1.0000
  H   H989      1.0  0.67766  0.53860  0.37868  1.0000
  H   H990      1.0  0.63457  0.77514  0.58883  1.0000
  H   H991      1.0  0.77889  0.58863  0.52733  1.0000
  H   H992      1.0  0.57604  0.54032  0.51123  1.0000
  H   H993      1.0  0.79744  0.60359  0.56859  1.0000
  H   H994      1.0  0.69408  0.73626  0.37398  1.0000
  C   C581      1.0  0.55199  0.54389  0.51154  1.0000
  H   H995      1.0  0.77699  0.63685  0.59459  1.0000
  C   C582      1.0  0.62486  0.70124  0.59183  1.0000
  H   H996      1.0  0.55463  0.70949  0.61821  1.0000
  H   H997      1.0  0.64500  0.77489  0.32560  1.0000
  H   H998      1.0  0.87374  0.59543  0.35796  1.0000
  H   H999      1.0  0.60836  0.98134  0.34618  1.0000
  H   H1000     1.0  0.80456  0.59188  0.60717  1.0000
  S   S168      1.0  0.56185  0.80767  0.37513  1.0000
  H   H1001     1.0  0.74057  0.59153  0.60709  1.0000
  H   H1002     1.0  0.74238  0.54992  0.55298  1.0000
  H   H1003     1.0  0.62400  0.81773  0.35531  1.0000
  H   H1004     1.0  0.79085  0.56487  0.56296  1.0000
  S   S169      1.0  0.58814  0.88956  0.35550  1.0000
  H   H1005     1.0  0.59958  0.73966  0.61617  1.0000
  C   C583      1.0  0.75669  0.59894  0.52655  1.0000
  H   H1006     1.0  0.64730  0.52578  0.36306  1.0000
  C   C584      1.0  0.71947  0.50658  0.35740  1.0000
  C   C585      1.0  0.73919  0.60587  0.59050  1.0000
  H   H1007     1.0  0.58835  0.53028  0.47603  1.0000
  C   C586      1.0  0.53999  0.50065  0.60314  1.0000
  C   C587      1.0  0.73434  0.56147  0.56787  1.0000
  C   C588      1.0  0.86836  0.60575  0.37412  1.0000
  H   H1008     1.0  0.72887  0.78896  0.37538  1.0000
  C   C589      1.0  0.86035  0.63974  0.36743  1.0000
  C   C590      1.0  0.58357  0.75102  0.39106  1.0000
  H   H1009     1.0  0.84789  0.59406  0.37996  1.0000
  H   H1010     1.0  0.75639  0.52519  0.59037  1.0000
  H   H1011     1.0  0.54207  0.56466  0.39923  1.0000
  H   H1012     1.0  0.83841  0.64104  0.35903  1.0000
  H   H1013     1.0  0.54533  0.54070  0.52988  1.0000
  H   H1014     1.0  0.87605  0.65055  0.35465  1.0000
  H   H1015     1.0  0.67245  0.73822  0.34882  1.0000
  H   H1016     1.0  0.54683  0.56801  0.50526  1.0000
  H   H1017     1.0  0.66172  0.72432  0.57281  1.0000
  H   H1018     1.0  0.57711  0.67557  0.61813  1.0000
  C   C591      1.0  0.65551  0.71590  0.59059  1.0000
  N   N43       1.0  0.59959  0.72127  0.58292  1.0000
  H   H1019     1.0  0.72690  0.54429  0.60432  1.0000
  H   H1020     1.0  0.62604  0.68039  0.58239  1.0000
  H   H1021     1.0  0.71528  0.60967  0.58773  1.0000
  H   H1022     1.0  0.72466  0.61910  0.54730  1.0000
  H   H1023     1.0  0.75682  0.61818  0.51268  1.0000
  Fe  Fe84      1.0  0.92423  0.55209  0.32992  1.0000
  H   H1024     1.0  0.91560  0.64228  0.37873  1.0000
  C   C592      1.0  0.91960  0.61709  0.38118  1.0000
  H   H1025     1.0  0.90093  0.60082  0.42790  1.0000
  Fe  Fe85      1.0  0.63060  0.62938  0.64061  1.0000
  C   C593      1.0  0.55360  0.52119  0.38740  1.0000
  H   H1026     1.0  0.67752  0.83710  0.32567  1.0000
  C   C594      1.0  0.94829  0.61319  0.39536  1.0000
  N   N44       1.0  0.67103  0.81033  0.35836  1.0000
  C   C595      1.0  0.64362  0.82826  0.36276  1.0000
  C   C596      1.0  0.53541  0.52044  0.49812  1.0000
  C   C597      1.0  0.69633  0.82604  0.36916  1.0000
  C   C598      1.0  0.66739  0.77776  0.36913  1.0000
  C   C599      1.0  0.63605  0.83090  0.38825  1.0000
  H   H1027     1.0  0.64425  0.77038  0.36742  1.0000
  C   C600      1.0  0.72703  0.81233  0.36631  1.0000
  C   C601      1.0  0.68619  0.75249  0.35946  1.0000
  H   H1028     1.0  0.64490  0.85207  0.35408  1.0000
  C   C602      1.0  0.50753  0.98978  0.32866  1.0000
  C   C603      1.0  0.51548  0.52401  0.64150  1.0000
  H   H1029     1.0  0.52287  0.50311  0.44297  1.0000
  H   H1030     1.0  0.69724  0.85076  0.36236  1.0000
  H   H1031     1.0  0.69340  0.82572  0.38805  1.0000
  H   H1032     1.0  0.67150  0.77651  0.38800  1.0000
  H   H1033     1.0  0.60104  0.79045  0.57598  1.0000
  H   H1034     1.0  0.61398  0.84138  0.38919  1.0000
  H   H1035     1.0  0.63484  0.80817  0.39836  1.0000
  H   H1036     1.0  0.62795  0.69528  0.54480  1.0000
  S   S170      1.0  0.52142  0.87645  0.33827  1.0000
  H   H1037     1.0  0.63053  0.81301  0.31820  1.0000
  H   H1038     1.0  0.55516  0.55117  0.64241  1.0000
  H   H1039     1.0  0.55417  0.56987  0.46682  1.0000
  C   C604      1.0  0.50561  0.53285  0.40222  1.0000
  H   H1040     1.0  0.58182  0.53165  0.43393  1.0000
  H   H1041     1.0  0.81286  0.55554  0.59810  1.0000
  H   H1042     1.0  0.62153  0.69259  0.61010  1.0000
  C   C605      1.0  0.56102  0.69035  0.60811  1.0000
  C   C606      1.0  0.51663  0.98776  0.35167  1.0000
  H   H1043     1.0  0.60619  0.50205  0.44487  1.0000
  H   H1044     1.0  0.69840  0.56560  0.34702  1.0000
  C   C607      1.0  0.69137  0.54830  0.33525  1.0000
  H   H1045     1.0  0.57611  0.98725  0.32936  1.0000
  S   S171      1.0  0.81956  0.59578  0.32784  1.0000
  Fe  Fe86      1.0  0.85981  0.56810  0.31971  1.0000
  H   H1046     1.0  0.66334  0.75719  0.64332  1.0000
  H   H1047     1.0  0.70833  0.54965  0.32172  1.0000
  H   H1048     1.0  0.51152  0.52311  0.50124  1.0000
  H   H1049     1.0  0.88426  0.52036  0.40276  1.0000
  C   C608      1.0  0.98595  0.50360  0.34116  1.0000
  C   C609      1.0  0.66292  0.56006  0.32293  1.0000
  H   H1050     1.0  0.76576  0.50181  0.34991  1.0000
  C   C610      1.0  0.58290  0.50945  0.44475  1.0000
  C   C611      1.0  0.52110  0.50027  0.46197  1.0000
  C   C612      1.0  0.50690  0.56825  0.46445  1.0000
  Fe  Fe87      1.0  0.60145  0.89260  0.31860  1.0000
  H   H1051     1.0  0.65610  0.70056  0.64541  1.0000
  C   C613      1.0  0.99137  0.53101  0.35096  1.0000
  C   C614      1.0  0.65051  0.79863  0.31881  1.0000
  H   H1052     1.0  0.50184  0.57030  0.48276  1.0000
  H   H1053     1.0  0.74323  0.61501  0.65050  1.0000
  H   H1054     1.0  0.96402  0.49826  0.33567  1.0000
  H   H1055     1.0  0.74349  0.50259  0.32479  1.0000
  H   H1056     1.0  0.54237  0.99529  0.64035  1.0000
  H   H1057     1.0  0.65236  0.49750  0.33114  1.0000
  C   C615      1.0  0.64333  0.74711  0.65046  1.0000
  H   H1058     1.0  0.52977  0.95710  0.75718  1.0000
  S   S172      1.0  0.96031  0.54718  0.71375  1.0000
  H   H1059     1.0  0.94589  0.63251  0.78976  1.0000
  S   S173      1.0  0.89997  0.58778  0.71765  1.0000
  Fe  Fe88      1.0  0.94512  0.59528  0.70342  1.0000
  S   S174      1.0  0.97408  0.63577  0.70872  1.0000
  Fe  Fe89      1.0  0.91389  0.53857  0.72472  1.0000
  S   S175      1.0  0.63523  0.86276  0.70352  1.0000
  H   H1060     1.0  0.56858  0.96503  0.78793  1.0000
  H   H1061     1.0  0.63773  0.73778  0.70432  1.0000
  H   H1062     1.0  0.54607  0.98783  0.73826  1.0000
  Fe  Fe90      1.0  0.60556  0.83598  0.68176  1.0000
  S   S176      1.0  0.57732  0.81782  0.71133  1.0000
  C   C616      1.0  0.59611  0.75296  0.66810  1.0000
  H   H1063     1.0  0.96330  0.53959  0.77255  1.0000
  S   S177      1.0  0.57563  0.88875  0.72615  1.0000
  H   H1064     1.0  0.57178  0.71100  0.67600  1.0000
  Fe  Fe91      1.0  0.60467  0.84787  0.73215  1.0000
  S   S178      1.0  0.62048  0.83038  0.76736  1.0000
  Fe  Fe92      1.0  0.55066  0.86058  0.70260  1.0000
  H   H1065     1.0  0.85652  0.55388  0.75518  1.0000
  H   H1066     1.0  0.80312  0.54832  0.70782  1.0000
  S   S179      1.0  0.66900  0.92531  0.83370  1.0000
  H   H1067     1.0  0.50616  0.53290  0.65650  1.0000
  S   S180      1.0  0.90652  0.51243  0.75918  1.0000
  C   C617      1.0  0.62955  0.74017  0.72186  1.0000
  H   H1068     1.0  0.93426  0.57890  0.78288  1.0000
  C   C618      1.0  0.50558  0.86141  0.77324  1.0000
  H   H1069     1.0  0.84852  0.50484  0.78252  1.0000
  H   H1070     1.0  0.49850  0.91938  0.86958  1.0000
  H   H1071     1.0  0.68125  0.81076  0.70074  1.0000
  H   H1072     1.0  0.53253  0.92603  0.80620  1.0000
  S   S181      1.0  0.62779  0.80621  0.65707  1.0000
  C   C619      1.0  0.68632  0.71105  0.71724  1.0000
  H   H1073     1.0  0.85172  0.53940  0.79588  1.0000
  C   C620      1.0  0.67885  0.78579  0.70598  1.0000
  H   H1074     1.0  0.65066  0.75691  0.79691  1.0000
  S   S182      1.0  0.89769  0.52460  0.69087  1.0000
  H   H1075     1.0  0.64455  0.79763  0.72874  1.0000
  C   C621      1.0  0.75396  0.56696  0.65544  1.0000
  H   H1076     1.0  0.57933  0.76743  0.67445  1.0000
  C   C622      1.0  0.63418  0.85796  0.78471  1.0000
  C   C623      1.0  0.63557  0.88935  0.77706  1.0000
  C   C624      1.0  0.64644  0.91057  0.79180  1.0000
  C   C625      1.0  0.65595  0.90027  0.81407  1.0000
  C   C626      1.0  0.65447  0.86895  0.82151  1.0000
  C   C627      1.0  0.64367  0.84793  0.80693  1.0000
  H   H1077     1.0  0.62840  0.89724  0.75983  1.0000
  H   H1078     1.0  0.64761  0.93474  0.78591  1.0000
  H   H1079     1.0  0.66173  0.86089  0.83870  1.0000
  H   H1080     1.0  0.64262  0.82379  0.81295  1.0000
  C   C628      1.0  0.83753  0.52706  0.78429  1.0000
  N   N45       1.0  0.65373  0.74937  0.73756  1.0000
  S   S183      1.0  0.57655  0.87685  0.67115  1.0000
  H   H1081     1.0  0.57403  0.96783  0.84857  1.0000
  H   H1082     1.0  0.82369  0.50331  0.69905  1.0000
  H   H1083     1.0  0.76372  0.49984  0.77770  1.0000
  Fe  Fe93      1.0  0.94370  0.53678  0.67925  1.0000
  H   H1084     1.0  0.98729  0.51212  0.78809  1.0000
  H   H1085     1.0  0.68241  0.74731  0.78125  1.0000
  H   H1086     1.0  0.68943  0.72716  0.70171  1.0000
  C   C629      1.0  0.97828  0.64383  0.73738  1.0000
  C   C630      1.0  0.83328  0.50534  0.73580  1.0000
  H   H1087     1.0  0.53673  0.95809  0.70463  1.0000
  H   H1088     1.0  0.57732  0.95433  0.65484  1.0000
  C   C631      1.0  0.96218  0.63929  0.77699  1.0000
  C   C632      1.0  0.95743  0.63412  0.75393  1.0000
  C   C633      1.0  0.54077  0.96301  0.74048  1.0000
  H   H1089     1.0  0.82349  0.56849  0.76589  1.0000
  H   H1090     1.0  0.51959  0.88494  0.84254  1.0000
  H   H1091     1.0  0.93760  0.62292  0.74891  1.0000
  H   H1092     1.0  0.62122  0.76579  0.76047  1.0000
  H   H1093     1.0  0.70132  0.77608  0.70705  1.0000
  N   N46       1.0  0.96538  0.54989  0.82195  1.0000
  C   C634      1.0  0.93452  0.54517  0.81362  1.0000
  H   H1094     1.0  0.80244  0.60203  0.70808  1.0000
  C   C635      1.0  0.57585  0.94403  0.79862  1.0000
  C   C636      1.0  0.96559  0.57607  0.83699  1.0000
  H   H1095     1.0  0.67947  0.79048  0.74161  1.0000
  S   S184      1.0  0.50148  0.86333  0.70423  1.0000
  H   H1096     1.0  0.69960  0.73883  0.74414  1.0000
  S   S185      1.0  0.93237  0.58577  0.66767  1.0000
  C   C637      1.0  0.81710  0.55652  0.72161  1.0000
  H   H1097     1.0  0.57376  0.94635  0.87659  1.0000
  H   H1098     1.0  0.93567  0.50176  0.85239  1.0000
  C   C638      1.0  0.66356  0.78153  0.72944  1.0000
  H   H1099     1.0  0.63276  0.72739  0.76812  1.0000
  C   C639      1.0  0.61336  0.70193  0.66066  1.0000
  C   C640      1.0  0.99433  0.58010  0.85062  1.0000
  H   H1100     1.0  0.94752  0.57317  0.84971  1.0000
  H   H1101     1.0  0.62852  0.69177  0.73729  1.0000
  H   H1102     1.0  0.61257  0.75855  0.71944  1.0000
  H   H1103     1.0  0.60181  0.70118  0.71518  1.0000
  H   H1104     1.0  0.99305  0.56786  0.86812  1.0000
  H   H1105     1.0  0.96121  0.59827  0.82658  1.0000
  H   H1106     1.0  0.99696  0.60476  0.85336  1.0000
  H   H1107     1.0  0.56214  0.95076  0.74135  1.0000
  C   C641      1.0  0.98859  0.65210  0.78373  1.0000
  C   C642      1.0  0.80567  0.58894  0.72516  1.0000
  C   C643      1.0  0.67920  0.72713  0.73904  1.0000
  H   H1108     1.0  0.77720  0.54550  0.75918  1.0000
  C   C644      1.0  0.83412  0.54707  0.76128  1.0000
  N   N47       1.0  0.56027  0.90957  0.83490  1.0000
  C   C645      1.0  0.56859  0.88139  0.82335  1.0000
  C   C646      1.0  0.55166  0.93398  0.81607  1.0000
  C   C647      1.0  0.53439  0.90144  0.85036  1.0000
  C   C648      1.0  0.58638  0.91860  0.84872  1.0000
  C   C649      1.0  0.57546  0.85217  0.83942  1.0000
  H   H1109     1.0  0.60737  0.95783  0.86209  1.0000
  H   H1110     1.0  0.67564  0.70817  0.75288  1.0000
  C   C650      1.0  0.58473  0.94927  0.85961  1.0000
  H   H1111     1.0  0.55083  0.87536  0.81147  1.0000
  H   H1112     1.0  0.58836  0.88572  0.81249  1.0000
  H   H1113     1.0  0.70709  0.69796  0.72015  1.0000
  H   H1114     1.0  0.93309  0.52434  0.80415  1.0000
  H   H1115     1.0  0.83948  0.55942  0.71412  1.0000
  H   H1116     1.0  0.54177  0.88934  0.86702  1.0000
  H   H1117     1.0  0.59077  0.90094  0.86329  1.0000
  H   H1118     1.0  0.60694  0.91854  0.83865  1.0000
  H   H1119     1.0  0.55666  0.84472  0.85051  1.0000
  H   H1120     1.0  0.58023  0.83314  0.82866  1.0000
  H   H1121     1.0  0.59533  0.85504  0.85003  1.0000
  H   H1122     1.0  0.91932  0.54074  0.82836  1.0000
  C   C651      1.0  0.64080  0.75043  0.76123  1.0000
  Fe  Fe94      1.0  0.60372  0.90177  0.69564  1.0000
  H   H1123     1.0  0.53205  0.84542  0.74649  1.0000
  H   H1124     1.0  0.82201  0.60209  0.73443  1.0000
  N   N48       1.0  0.81723  0.53330  0.74249  1.0000
  H   H1125     1.0  0.59656  0.94991  0.80714  1.0000
  C   C652      1.0  0.66172  0.76065  0.77999  1.0000
  Fe  Fe95      1.0  0.88763  0.57491  0.68243  1.0000
  H   H1126     1.0  0.97515  0.50129  0.82412  1.0000
  C   C653      1.0  0.51168  0.85629  0.75049  1.0000
  S   S186      1.0  0.60723  0.66185  0.66261  1.0000
  S   S187      1.0  0.99658  0.65293  0.81301  1.0000
  H   H1127     1.0  0.51457  0.94332  0.67409  1.0000
  C   C654      1.0  0.51429  0.92806  0.85609  1.0000
  H   H1128     1.0  0.81622  0.52348  0.79315  1.0000
  C   C655      1.0  0.61342  0.71002  0.72995  1.0000
  H   H1129     1.0  0.66619  0.77617  0.69219  1.0000
  H   H1130     1.0  0.66920  0.69416  0.71351  1.0000
  C   C656      1.0  0.59186  0.72101  0.66891  1.0000
  H   H1131     1.0  0.77154  0.52663  0.73399  1.0000
  H   H1132     1.0  0.66668  0.78556  0.77751  1.0000
  H   H1133     1.0  0.98274  0.58168  0.79446  1.0000
  Fe  Fe96      1.0  0.66902  0.97663  0.82565  1.0000
  C   C657      1.0  0.98597  0.55763  0.80209  1.0000
  C   C658      1.0  0.80590  0.55518  0.66223  1.0000
  H   H1134     1.0  0.59647  0.71420  0.74287  1.0000
  H   H1135     1.0  0.54387  0.95513  0.82302  1.0000
  C   C659      1.0  0.97565  0.52057  0.83519  1.0000
  S   S188      1.0  0.61869  0.95102  0.69263  1.0000
  H   H1136     1.0  0.58000  0.92621  0.78671  1.0000
  H   H1137     1.0  0.89925  0.56524  0.79208  1.0000
  C   C660      1.0  0.95797  0.50951  0.85682  1.0000
  C   C661      1.0  0.78587  0.52670  0.74953  1.0000
  H   H1138     1.0  0.52637  0.94733  0.86268  1.0000
  H   H1139     1.0  0.66835  0.99240  0.70026  1.0000
  H   H1140     1.0  0.52124  0.85424  0.78656  1.0000
  H   H1141     1.0  0.77175  0.52115  0.66094  1.0000
  H   H1142     1.0  0.91744  0.59237  0.80818  1.0000
  H   H1143     1.0  0.95673  0.52697  0.86931  1.0000
  C   C662      1.0  0.57460  0.97446  0.66406  1.0000
  C   C663      1.0  0.92102  0.57224  0.79835  1.0000
  C   C664      1.0  0.59121  0.97768  0.68385  1.0000
  H   H1144     1.0  0.85616  0.51155  0.73075  1.0000
  H   H1145     1.0  0.52135  0.92713  0.72251  1.0000
  H   H1146     1.0  0.78428  0.58837  0.73405  1.0000
  S   S189      1.0  0.96990  0.50565  0.65842  1.0000
  H   H1147     1.0  0.98920  0.89811  0.86219  1.0000
  H   H1148     1.0  0.50443  0.99601  0.82407  1.0000
  C   C665      1.0  0.76060  0.59828  0.65362  1.0000
  C   C666      1.0  0.52285  0.95269  0.72003  1.0000
  C   C667      1.0  0.98422  0.53673  0.78222  1.0000
  C   C668      1.0  0.62185  0.76614  0.65883  1.0000
  H   H1149     1.0  0.50093  0.93675  0.84089  1.0000
  S   S190      1.0  0.84828  0.60008  0.66542  1.0000
  H   H1150     1.0  0.82337  0.53855  0.66513  1.0000
  C   C669      1.0  0.81239  0.58651  0.66104  1.0000
  C   C670      1.0  0.77671  0.54544  0.65975  1.0000
  C   C671      1.0  0.78971  0.60799  0.65638  1.0000
  S   S191      1.0  0.71767  0.55370  0.65250  1.0000
  C   C672      1.0  0.63923  0.71508  0.65154  1.0000
  H   H1151     1.0  0.79464  0.63229  0.65528  1.0000
  S   S192      1.0  0.63464  0.57877  0.65239  1.0000
  H   H1152     1.0  0.69043  0.99569  0.66374  1.0000
