data_image0
_chemical_formula_structural       HCH2C2H2CHC2HC3HCHCHNH5CHC2SH3CHSH6C4H2CH2CHC2HCNH7CNH4CH6CHSHCH5SH4CHCFeHCFeSFeSCSHCH2CSHFeS2FeS2FeSFeS3H3FeS2H2FeSHSFeS2FeS2FeSFeS3FeS2H2FeCHSCH7CH5C6H4C3H2C6H4C6H4C6H4CH2C3H3CSCHFeH5C6H4CH8CH2CHSH2C5HCH5FeH2C2HC2HCHSC2FeHCH4C2HCH3C3H6NH3C3HCH3CH4SCH5CHCH11CH3CH3C4H2CH3C2H5NHCHC5H2CHCHNC2H3CH9CH4C2H3NCH5CHC2H2NCSCHCH3CHCH9C2H4C3H3CHN2H3C2NH2CHSCHC2H4N2SH2CH3SC2HC2SHCSH3CH2C2FeCH3CHCH3CHC2H2C2HCH6FeS2FeS2FeSFeS3CFeCH2SHCHC3HFeS2H3FeSFeSNSHSH2CH6CSCHC6H2CH3NCH4CHFeC2SCHCHC2H3CH2CSNSC4H2C4HCH2CHC3FeSH2C6H8C2NC3H6CHC4H2C2H2CH6CH4NH2CH3CH4SC2H6SH6CH3CHCH3SCHFeC2HFeH3CHCSCH8CH6C2HNH2CH5CH3CHSCHC3SCH5FeH4C4H2CH3CHCH6SH2CHFeCFeS2FeS2FeHFeHS2FeCSHCH2SHCH2C6H7CHC2NSHCHC4H3CHCH2CHNH2CH2C2H5CSH3CH2CHC4H3C3NH2SC2HCH2SCH2C2HCHCHCH3CH4NH8CSCH3FeH3CHCH2C2H2C2HCHCH7SH4CHCH2CH4CH3SHFeHCH4C2HSH3SHFeH2FeS2FeSFeHS2FeSHFeSHFeC2HSHC6H5CHC2H2C2H3C5H4FeH2SCHSH6C2FeC8HCH4CH4CSCH5SHFe2HCH2CH7SNH4NCH2SHCHCH2C3HC2HCHSHCH3SHCSHC2HNCH4CHCHCNH2C2HSH2CHCH2CH3CH3C2H2FeS2CHCH4CFeS2FeSFe2S3HNHSFeSCHCNC4H2C2H2CH2CHC6HCH3CH3SH3C3H2C3HCH3CHCFeH4SC2H3CFeHFeSH4CS2HC2HCHCNHC4H7CH4C2HC2HSH6CH4C3H2CH4C2HCH2SCH2CFeSHSCH4CHC2HNH4CHCH4CHCSHCHSCHCH2C2H6CH4CH7CH3NCHCHCH5CNSC2FeS2FeSFeSFeS3H2CFeS2FeS2FeSFeS3H3SH2CHSCHSHCH2SHFeSFeSHCSH2FeC3H5CHCHC6SH10C2FeHFeH2CH2CS2H3CH3CH2C3FeH2C6H2CHC6H5C2H4C6H4C6H8CHSHC3HSC3HNC2SCH2FeH3CH6S2H4CNCH2CH2CH3NC2HC3HCH4CH9SHSCH8CSH3CH3CH4CH2NHCHCHCHC2HSH3CH2SHCH5C3H2C2FeH2C2H5NC2H4SCH2NC2H6NHC2H3CHCHCSNH2C6H3CH2C2H3C2H5C3H3CH5SCH7C6H2C3HCHNHFeHCH3CFeNHCHSH3CHCH6CHFeNHCH3CHCH2C4H6CH3CH5CNCHC2H8CHC3HC3HFeH3NHSHFeC2FeS2CFeH2S3CFeSC3H2CH3FeHCH3CH2CSFeHC2HC2H3CH2SCSNSC3HCHCHFe2H2C2SCH6FeCHSH5CH4CHSCH3SHCHCNC4SH2SH2FeHCSCH4SCH5CHC2H12C3H6C3H2CHC2FeSCFeSCFeSFeS3CHFeH2SHSC2HCFeS2FeS2FeSCS2HNFeSHC5H3FeNH2C3H3CFeNC2H7CH2C7H4C4HCH4C6H4SC3HCH2C2HCH8FeSCSCHCH9CH5CH2SCH2CHFeHSHNH2CHCSC3H3FeC2H6C2FeCHSH4CH3CH2CSC2SHFeHNC2SCH2CHSHC2HCH2S2CHFeHCH2FeH3CHCSH4FeHFeSH5CSCH4SHSHCH2C3S2HSCHC5H2C2H2CHCHCH2CH8NH2CHCHCFeC3H4SH4C2H2CH2FeS2FeCSFeSFeHS2C2SHC3HSH2SC4HCH4SH2C6HCH2C6H2CH4C3H3CH2FeHSC2H4C3HCHCH5CHSCHSHCH7CH4SH3CSNC2HCH2NC4HCHCHCH6FeH5N2HFeH3CSHCSHC2HNH3CH4CHCH4FeNH10CH4CHCHCH2CSHCH5C2FeSCSH2FeS2FeS2FeSCFeSFeS3HFeHSCH2CFeS2FeS2FeSFeHS3HCH2FeS2FeSCHS2C6H6C6H4C3HC2HCH2C6H4C6H4CHCH5C2HC3H4CH2SFeH3CH2CH2C2H5CHS2CHC2HCH2CH5CH2CSNH5CH3C3NCH5CH6NH2CSCSH7CHS2H5SH5CHC2H2C2H3FeH5C2H2SHSHCHCH5CHCHNFeH4SHCH2CH2FeHCHCHCHCH2SHCNC2H2FeC4H2CHC2H2FeH2C2H4CH2CSCH3C3HNH3CH5C2HCH3Fe2H2CH2NC2H7CSCHCH4CHNH2CNCH3C2H2CHSH9SHFeSC2Fe2CHCH2SH2C4SHS2HCH2NHCFeHS3FeSH2CFeC2FeHC7SHCH3SHFeHSCH4SH2CHC8H4SH4S2FeHCH5SH2NH2C2HSH2CH4CHSFeHCFeH7NSHCHFeH4CHCHCH4SCH5C2HCHFeCH2CH3C2SHCH2CHC2H2CHC4HC2SHC3H3CH2CH4SCNC2HCFeHSCH4C2H3SHSCH2NH4SHCFeS4HFeSFeHS2HFeHC6H5CSCH6C7H5C7H3C2FeH3CHC2HCHCHCH10NHCHSH6CHNC8H7C2H2C3H2NH3FeH6CFeCFeS2FeS2FeSFeS3H2FeS2FeS2FeSFeS3FeS2FeS2FeSFeS3FeS2FeHFeSH3C2HCHC2H4C6H4C6HSH2C6H4C6H4C6H4C6H4C6H4C2SC4NHC4H2C2HC3SH2NHC3H2C2H3CH3SH3CH8CHNH2C2H5SCH3CH2SH3SHCH2SHCNCHNC2H2FeHC2HCHC2H6CH6CH4CH3NC8H19FeH2CHCHC2HNCHCH3CHSHCHC2H3CH2CH3CH11CHCH5SH4SC2H2NCHCH2CSH2C6H4CH3NH5SH6C2HC2H2FeHCH2FeC2H4C2H7CH8CH5C2HCSHC2H4CNH2CH2C2H4CH4SH2SH2CFeCH3CH3CH5C4H3CHCH2C2HSH5SH3C2H2CH5SH7SCH2SFeH2CHCHSC6S3HNH2CHSCHCH2CSFeCH4C2HCH2NH2CHCHCHCH2CH4CH4CH2CHCH3NCH2SCHFeC2H8C2FeH3C3NH2C3H11FeSFeS2FeSFeS3FeS2FeS2FeHFeS4NH6CH3CHC2HC6H4C3H3NCH2C6H4C6H6C3H2CH2SH3CHC3H5CH2CH3SH3CHCHCH3CHC2H5CH2CHC2SH2CH2NC8H22CH2SC3HCH6SC2HCH11CH2CHNHCH4C2H2SCFeCH5NC7H8CHCH6NC2H3CHCHCH4CHCHCH5CHCHNHCH2SH2C3H3CHCH5SH2CH4C2SH5CH2CH2CH8CH2C2H4CH3NHCHCSCHCNCH2C3H2FeHCHFeC2HC2FeCFeS2FeS2FeSFeS4CFeSHSC2H6CHC2HC6H5SHCSC6H5C5H2CH4CHSH7C2H2CHCH2CSNC5HCHC4H2CH6SH4FeHCHCH7CHS2H10CH3FeH5CH2CHCHC2H2C2NHCSC2H3NH3SCNC5H4CH8CH2SHCHCFeHCH6C2FeHCH3CH3NH2C3SHFeH2C2H4CHCHCH3CNH5C2H2NH4FeS2FeSCFeSH2S2C2FeHSFeCSCFeSCSHFeS2FeS2FeSFeS2CHCH2SHSHSHFeCSHSHC6H4CH2CHCH3C7H5CH3CHCH3C4H2C6H4CHCHC2H4C2H3CHC2H4NC4H2CH9CH2SHC2HSH5SCHCHSCSH2SHCHCSCH2FeC2HCHC2H2SH2CH4NH3NHCFeHCH3CH3C2HCH3CH2C2H5CH2CFeH2SCH3CH3CHCH3C2HCSHCHNH3CH2C2H2CHSFeCH2CHNH3C2HCNC3H2FeHC2H3S2H2CH2NFeS2FeS2FeSFeS3FeHSFeS2FeS2Fe2S4HSNSHSH2SH3SC2H2C2SFeH3CHCHC6H4C6H4C6H4FeC8H4C6H4C2HCHCH2CFeC2H5C7H3NC8H20NC8H21CSH2CH4SNC6FeCH11CH4C2H2CHSCH3CH4CHC2H2CFe2H2CH3CH5NHC2HCH5FeC2SHC2H2CH4S2FeH7NC2H2FeSH3CH2C2H2CH2CH2C2H3CSCH2CH7CHC2H5CHSCHC2H2C2SHCHCH3C2H3NHSCH2CFeH2SH2SH8C2H6SH2SNC2H4CHC4H2CHC2H5C5NFeSFeH2SCFe2HSH2FeC2HSH2C2HCHFeS2FeS2FeHFeS4C6H6CH3CH3NHC2H3C2HSHSH5C6HCH2SCHC2HCH2C2H4C2SHSHNH4SHNCFeCH3CHFeHCS2H2CHCNC8H25CH3CS2HNCH2C2HCH2CH3C3HSH3CHCHC2HC2HCHCHCHC2HCHSCHC2H2SCHC3H2FeH2SC3H6CH7CHFeH2CH6CH4CH3C3HCSC2SH3CHCHS2HCH2SFeSHFeSNFeHFeSHSH3C2HCH2C4FeCH2SH2CH4SHCHCH3C5H2SH2SH5C4HSCH6C2H8C2H2SH2CHCH6NCH7CHCFeH2CNCHFeH2CSCHFeCSCH3CH2CHC2FeH4CHFeH2CH2C4HFeH3CH3CHCHNH2CNCHSH2SH7CFeCHC2H2C2H3C2HC2H4C5HCSHSH2CH3CH6SHCH6C2HCHC2SHS2H2FeSHC2FeS2FeS2FeSFeS3C2H4C2H2SFeHSFeHSHNCS2FeHSFeCSFeSH2SCH2FeS2FeCHSHC6H4CHC2H3CHC2H7NC2HCH3NC6H4C6H4C3H3CHC2SH10CHC5H3NHCHCFeHFeC3NCHCNH4CH4CHC2HC2H2CFeCHC2HCNHCH2NC8H20NC8H20C3H3CHCHCH2C2H4CH2CHCH4SCSFeCH2FeH9C2HC2H3SCHC3HCNH2CHCH3C2H2C2H4CH5CH6CH3CSCH4SH3FeHSH2FeHC2H4CHC4H2C2HC2SH2CH2CNHCHFeHCHC2H2CSH2SHCH2CH2S
_chemical_formula_sum              "H3456 C2016 N144 S576 Fe288"
_cell_length_a       77.0464
_cell_length_b       77.8156
_cell_length_c       77.4954
_cell_angle_alpha    74.2644
_cell_angle_beta     73.9105
_cell_angle_gamma    73.879

_space_group_name_H-M_alt    "P 1"
_space_group_IT_number       1

loop_
  _space_group_symop_operation_xyz
  'x, y, z'

loop_
  _atom_site_type_symbol
  _atom_site_label
  _atom_site_symmetry_multiplicity
  _atom_site_fract_x
  _atom_site_fract_y
  _atom_site_fract_z
  _atom_site_occupancy
  H   H1        1.0  0.39276  0.99599  0.30951  1.0000
  C   C1        1.0  0.44336  0.06955  0.25002  1.0000
  H   H2        1.0  0.43297  0.06261  0.26048  1.0000
  H   H3        1.0  0.49031  0.17884  0.18498  1.0000
  C   C2        1.0  0.48745  0.01686  0.24511  1.0000
  C   C3        1.0  0.48708  0.11481  0.26638  1.0000
  H   H4        1.0  0.44921  0.06562  0.21238  1.0000
  H   H5        1.0  0.45967  0.99631  0.16200  1.0000
  C   C4        1.0  0.47483  0.07402  0.20773  1.0000
  H   H6        1.0  0.47964  0.00670  0.24555  1.0000
  C   C5        1.0  0.44653  0.00686  0.30357  1.0000
  C   C6        1.0  0.46038  0.10127  0.27966  1.0000
  H   H7        1.0  0.46088  0.18097  0.15379  1.0000
  C   C7        1.0  0.45340  0.99517  0.15123  1.0000
  C   C8        1.0  0.48588  0.11881  0.28334  1.0000
  C   C9        1.0  0.45210  0.02308  0.22259  1.0000
  H   H8        1.0  0.44912  0.03167  0.20931  1.0000
  C   C10       1.0  0.46156  0.20642  0.13452  1.0000
  H   H9        1.0  0.43857  0.03066  0.28183  1.0000
  C   C11       1.0  0.46446  0.20543  0.17336  1.0000
  H   H10       1.0  0.45051  0.02576  0.25012  1.0000
  N   N1        1.0  0.47891  0.19389  0.16108  1.0000
  H   H11       1.0  0.44505  0.08089  0.25512  1.0000
  H   H12       1.0  0.43654  0.04398  0.23747  1.0000
  H   H13       1.0  0.44230  0.19062  0.17698  1.0000
  H   H14       1.0  0.46844  0.08443  0.21631  1.0000
  H   H15       1.0  0.48417  0.02045  0.25871  1.0000
  C   C12       1.0  0.44723  0.19787  0.18446  1.0000
  H   H16       1.0  0.45788  0.99376  0.27069  1.0000
  C   C13       1.0  0.47435  0.10603  0.26448  1.0000
  C   C14       1.0  0.46383  0.05889  0.21307  1.0000
  S   S1        1.0  0.47574  0.10082  0.24332  1.0000
  H   H17       1.0  0.45034  0.09467  0.27830  1.0000
  H   H18       1.0  0.46582  0.01371  0.21990  1.0000
  H   H19       1.0  0.48227  0.18141  0.13828  1.0000
  C   C15       1.0  0.46718  0.99621  0.13244  1.0000
  H   H20       1.0  0.43425  0.22719  0.02757  1.0000
  S   S2        1.0  0.48876  0.22622  0.08537  1.0000
  H   H21       1.0  0.44850  0.10138  0.30829  1.0000
  H   H22       1.0  0.44167  0.01444  0.22832  1.0000
  H   H23       1.0  0.46880  0.05131  0.20172  1.0000
  H   H24       1.0  0.47474  0.08123  0.19324  1.0000
  H   H25       1.0  0.46320  0.23424  0.02307  1.0000
  H   H26       1.0  0.42395  0.01082  0.27942  1.0000
  C   C16       1.0  0.48829  0.17637  0.17223  1.0000
  C   C17       1.0  0.49552  0.20266  0.02163  1.0000
  C   C18       1.0  0.47109  0.18969  0.14723  1.0000
  C   C19       1.0  0.44233  0.02756  0.29529  1.0000
  H   H27       1.0  0.47351  0.06342  0.24385  1.0000
  H   H28       1.0  0.43774  0.07627  0.23759  1.0000
  C   C20       1.0  0.46226  0.05606  0.24624  1.0000
  H   H29       1.0  0.43546  0.20951  0.18740  1.0000
  H   H30       1.0  0.47058  0.20770  0.18375  1.0000
  C   C21       1.0  0.45941  0.10492  0.29673  1.0000
  H   H31       1.0  0.45492  0.03285  0.29323  1.0000
  C   C22       1.0  0.45061  0.03486  0.23632  1.0000
  C   C23       1.0  0.42896  0.99666  0.28680  1.0000
  H   H32       1.0  0.46342  0.04635  0.25951  1.0000
  C   C24       1.0  0.47218  0.11367  0.29862  1.0000
  N   N2        1.0  0.46521  0.04590  0.23130  1.0000
  H   H33       1.0  0.44986  0.21524  0.14232  1.0000
  H   H34       1.0  0.45586  0.20156  0.12547  1.0000
  H   H35       1.0  0.46005  0.00088  0.29537  1.0000
  H   H36       1.0  0.45973  0.21958  0.16565  1.0000
  H   H37       1.0  0.48701  0.21867  0.14355  1.0000
  H   H38       1.0  0.44912  0.00545  0.31736  1.0000
  H   H39       1.0  0.43999  0.23633  0.05343  1.0000
  C   C25       1.0  0.48438  0.03376  0.22944  1.0000
  N   N3        1.0  0.43179  0.99675  0.30529  1.0000
  H   H40       1.0  0.49561  0.07860  0.29361  1.0000
  H   H41       1.0  0.49494  0.04163  0.22806  1.0000
  H   H42       1.0  0.44975  0.18878  0.19773  1.0000
  H   H43       1.0  0.47148  0.21465  0.12529  1.0000
  C   C26       1.0  0.47901  0.15988  0.17794  1.0000
  H   H44       1.0  0.46442  0.16304  0.18533  1.0000
  H   H45       1.0  0.44141  0.00698  0.15021  1.0000
  H   H46       1.0  0.48005  0.15426  0.16586  1.0000
  H   H47       1.0  0.44204  0.98924  0.26037  1.0000
  H   H48       1.0  0.47149  0.00940  0.12960  1.0000
  H   H49       1.0  0.45932  0.99782  0.12181  1.0000
  C   C27       1.0  0.49343  0.20474  0.15041  1.0000
  H   H50       1.0  0.43130  0.03518  0.30486  1.0000
  S   S3        1.0  0.48307  0.00830  0.17894  1.0000
  H   H51       1.0  0.49242  0.18966  0.02951  1.0000
  C   C28       1.0  0.49594  0.20752  0.00272  1.0000
  H   H52       1.0  0.40881  0.02034  0.30754  1.0000
  H   H53       1.0  0.48834  0.02852  0.21667  1.0000
  H   H54       1.0  0.48661  0.14872  0.18732  1.0000
  H   H55       1.0  0.48948  0.06839  0.20867  1.0000
  H   H56       1.0  0.48978  0.04471  0.16955  1.0000
  S   S4        1.0  0.49064  0.19284  0.99212  1.0000
  H   H57       1.0  0.41797  0.98926  0.28846  1.0000
  H   H58       1.0  0.40383  0.23203  0.01988  1.0000
  H   H59       1.0  0.42249  0.23296  0.00027  1.0000
  H   H60       1.0  0.49335  0.01269  0.10399  1.0000
  C   C29       1.0  0.41380  0.00656  0.31573  1.0000
  H   H61       1.0  0.49567  0.12575  0.28467  1.0000
  C   C30       1.0  0.44580  0.98758  0.27368  1.0000
  Fe  Fe1       1.0  0.46343  0.05668  0.35623  1.0000
  H   H62       1.0  0.25002  0.03706  0.49260  1.0000
  C   C31       1.0  0.04759  0.14004  0.58198  1.0000
  Fe  Fe2       1.0  0.46820  0.07707  0.38237  1.0000
  S   S5        1.0  0.44789  0.10233  0.37261  1.0000
  Fe  Fe3       1.0  0.43064  0.08288  0.37366  1.0000
  S   S6        1.0  0.40010  0.08867  0.38635  1.0000
  C   C32       1.0  0.15793  0.15339  0.56359  1.0000
  S   S7        1.0  0.45000  0.05798  0.38549  1.0000
  H   H63       1.0  0.12705  0.15029  0.59062  1.0000
  C   C33       1.0  0.04570  0.16439  0.55429  1.0000
  H   H64       1.0  0.27293  0.02370  0.45017  1.0000
  H   H65       1.0  0.44484  0.07474  0.46672  1.0000
  C   C34       1.0  0.05279  0.13114  0.55296  1.0000
  S   S8        1.0  0.47389  0.03040  0.34648  1.0000
  H   H66       1.0  0.01191  0.16591  0.54419  1.0000
  Fe  Fe4       1.0  0.18790  0.07739  0.58101  1.0000
  S   S9        1.0  0.19597  0.09182  0.55174  1.0000
  S   S10       1.0  0.19376  0.08311  0.60568  1.0000
  Fe  Fe5       1.0  0.17019  0.05161  0.57093  1.0000
  S   S11       1.0  0.17642  0.06438  0.54091  1.0000
  S   S12       1.0  0.15947  0.02581  0.58417  1.0000
  Fe  Fe6       1.0  0.20424  0.06386  0.54518  1.0000
  S   S13       1.0  0.23064  0.04954  0.52864  1.0000
  Fe  Fe7       1.0  0.16724  0.09117  0.55038  1.0000
  S   S14       1.0  0.14999  0.11692  0.53610  1.0000
  S   S15       1.0  0.19849  0.04951  0.57470  1.0000
  S   S16       1.0  0.15875  0.07832  0.58018  1.0000
  H   H67       1.0  0.30002  0.15874  0.62482  1.0000
  H   H68       1.0  0.38051  0.99211  0.40750  1.0000
  H   H69       1.0  0.17680  0.00399  0.50969  1.0000
  Fe  Fe8       1.0  0.28401  0.09571  0.61743  1.0000
  S   S17       1.0  0.30537  0.06996  0.61370  1.0000
  S   S18       1.0  0.26761  0.10934  0.59529  1.0000
  H   H70       1.0  0.04462  0.14825  0.60750  1.0000
  H   H71       1.0  0.27102  0.02395  0.49894  1.0000
  Fe  Fe9       1.0  0.32379  0.08216  0.62244  1.0000
  S   S19       1.0  0.35398  0.08102  0.60988  1.0000
  H   H72       1.0  0.22525  0.99317  0.50069  1.0000
  S   S20       1.0  0.30348  0.10906  0.62343  1.0000
  Fe  Fe10      1.0  0.36046  0.06434  0.51568  1.0000
  S   S21       1.0  0.33266  0.05806  0.52960  1.0000
  S   S22       1.0  0.37330  0.08179  0.52507  1.0000
  Fe  Fe11      1.0  0.36579  0.04456  0.48509  1.0000
  S   S23       1.0  0.33822  0.03691  0.49622  1.0000
  S   S24       1.0  0.38568  0.03290  0.46157  1.0000
  Fe  Fe12      1.0  0.32759  0.06539  0.50120  1.0000
  S   S25       1.0  0.30084  0.08425  0.49583  1.0000
  Fe  Fe13      1.0  0.34597  0.03028  0.52343  1.0000
  S   S26       1.0  0.34022  0.00508  0.54388  1.0000
  S   S27       1.0  0.35453  0.07391  0.48744  1.0000
  S   S28       1.0  0.37436  0.03575  0.51212  1.0000
  Fe  Fe14      1.0  0.07099  0.19444  0.56869  1.0000
  S   S29       1.0  0.04194  0.20896  0.57967  1.0000
  S   S30       1.0  0.08190  0.16515  0.58210  1.0000
  H   H73       1.0  0.23553  0.02971  0.63939  1.0000
  H   H74       1.0  0.14416  0.18065  0.59371  1.0000
  Fe  Fe15      1.0  0.03985  0.21900  0.55023  1.0000
  C   C35       1.0  0.34429  0.16319  0.64703  1.0000
  H   H75       1.0  0.26525  0.99795  0.59104  1.0000
  S   S31       1.0  0.06778  0.20249  0.53957  1.0000
  C   C36       1.0  0.17415  0.14232  0.60916  1.0000
  H   H76       1.0  0.27944  0.06072  0.57421  1.0000
  H   H77       1.0  0.41586  0.00895  0.32850  1.0000
  H   H78       1.0  0.01332  0.15587  0.57643  1.0000
  H   H79       1.0  0.16164  0.14828  0.61862  1.0000
  H   H80       1.0  0.35837  0.16530  0.63982  1.0000
  H   H81       1.0  0.35868  0.99136  0.59850  1.0000
  H   H82       1.0  0.49656  0.00717  0.37654  1.0000
  C   C37       1.0  0.13834  0.15417  0.59413  1.0000
  H   H83       1.0  0.18601  0.14654  0.61110  1.0000
  H   H84       1.0  0.04890  0.13360  0.53965  1.0000
  H   H85       1.0  0.19245  0.01594  0.62712  1.0000
  H   H86       1.0  0.15834  0.16813  0.56027  1.0000
  H   H87       1.0  0.33450  0.99693  0.51209  1.0000
  C   C38       1.0  0.35972  0.08022  0.58655  1.0000
  C   C39       1.0  0.37228  0.09029  0.57441  1.0000
  C   C40       1.0  0.37648  0.09050  0.55559  1.0000
  C   C41       1.0  0.36856  0.08022  0.54888  1.0000
  C   C42       1.0  0.35665  0.06943  0.56114  1.0000
  C   C43       1.0  0.35201  0.06963  0.57995  1.0000
  H   H88       1.0  0.37846  0.09831  0.57948  1.0000
  H   H89       1.0  0.38583  0.09872  0.54619  1.0000
  H   H90       1.0  0.35080  0.06114  0.55613  1.0000
  H   H91       1.0  0.34259  0.06152  0.58933  1.0000
  C   C44       1.0  0.30448  0.01022  0.61292  1.0000
  C   C45       1.0  0.30198  0.02193  0.62469  1.0000
  C   C46       1.0  0.35750  0.10245  0.64553  1.0000
  H   H92       1.0  0.31226  0.01316  0.59890  1.0000
  H   H93       1.0  0.30827  0.03356  0.61985  1.0000
  C   C47       1.0  0.09999  0.15155  0.56874  1.0000
  C   C48       1.0  0.10685  0.13327  0.57668  1.0000
  C   C49       1.0  0.12182  0.12232  0.56664  1.0000
  C   C50       1.0  0.13002  0.12958  0.54857  1.0000
  C   C51       1.0  0.12267  0.14765  0.54042  1.0000
  C   C52       1.0  0.10781  0.15867  0.55051  1.0000
  H   H94       1.0  0.10075  0.12763  0.59072  1.0000
  H   H95       1.0  0.12708  0.10832  0.57293  1.0000
  H   H96       1.0  0.12888  0.15335  0.52642  1.0000
  H   H97       1.0  0.10266  0.17274  0.54425  1.0000
  C   C53       1.0  0.24977  0.05981  0.52148  1.0000
  C   C54       1.0  0.24784  0.07838  0.51323  1.0000
  C   C55       1.0  0.26361  0.08584  0.50556  1.0000
  C   C56       1.0  0.28127  0.07489  0.50664  1.0000
  C   C57       1.0  0.28313  0.05650  0.51567  1.0000
  C   C58       1.0  0.26741  0.04892  0.52281  1.0000
  H   H98       1.0  0.23426  0.08680  0.51206  1.0000
  H   H99       1.0  0.26211  0.10006  0.49855  1.0000
  H   H100      1.0  0.29669  0.04794  0.51664  1.0000
  H   H101      1.0  0.26890  0.03452  0.52918  1.0000
  C   C59       1.0  0.21366  0.09141  0.60277  1.0000
  C   C60       1.0  0.22109  0.10195  0.58602  1.0000
  C   C61       1.0  0.23746  0.10771  0.58395  1.0000
  C   C62       1.0  0.24667  0.10264  0.59847  1.0000
  C   C63       1.0  0.23912  0.09222  0.61522  1.0000
  C   C64       1.0  0.22251  0.08691  0.61745  1.0000
  H   H102      1.0  0.21423  0.10568  0.57469  1.0000
  H   H103      1.0  0.24303  0.11602  0.57108  1.0000
  H   H104      1.0  0.24595  0.08835  0.62654  1.0000
  H   H105      1.0  0.21672  0.07894  0.63052  1.0000
  C   C65       1.0  0.15418  0.01402  0.57048  1.0000
  H   H106      1.0  0.24627  0.99992  0.61071  1.0000
  H   H107      1.0  0.48226  0.03376  0.40318  1.0000
  C   C66       1.0  0.15861  0.12486  0.58703  1.0000
  C   C67       1.0  0.21596  0.02174  0.50065  1.0000
  C   C68       1.0  0.15005  0.02284  0.55333  1.0000
  H   H108      1.0  0.04583  0.12588  0.58896  1.0000
  H   H109      1.0  0.14399  0.99967  0.61827  1.0000
  H   H110      1.0  0.15004  0.03723  0.54821  1.0000
  C   C69       1.0  0.14829  0.11544  0.60582  1.0000
  S   S32       1.0  0.09987  0.23433  0.51313  1.0000
  C   C70       1.0  0.27367  0.10482  0.53784  1.0000
  H   H111      1.0  0.37449  0.13052  0.62785  1.0000
  Fe  Fe16      1.0  0.07834  0.22694  0.53828  1.0000
  H   H112      1.0  0.06254  0.13958  0.58002  1.0000
  H   H113      1.0  0.17556  0.12968  0.55177  1.0000
  H   H114      1.0  0.32974  0.14234  0.61103  1.0000
  H   H115      1.0  0.18796  0.14652  0.55130  1.0000
  H   H116      1.0  0.43582  0.05260  0.64174  1.0000
  C   C71       1.0  0.39401  0.07225  0.40611  1.0000
  C   C72       1.0  0.37953  0.07756  0.42049  1.0000
  C   C73       1.0  0.37649  0.06537  0.43752  1.0000
  C   C74       1.0  0.38778  0.04779  0.44003  1.0000
  C   C75       1.0  0.40148  0.04211  0.42531  1.0000
  C   C76       1.0  0.40452  0.05431  0.40833  1.0000
  H   H117      1.0  0.37119  0.09137  0.41869  1.0000
  H   H118      1.0  0.36566  0.06970  0.44874  1.0000
  H   H119      1.0  0.41004  0.02844  0.42711  1.0000
  H   H120      1.0  0.41504  0.04987  0.39699  1.0000
  C   C77       1.0  0.99924  0.20877  0.54843  1.0000
  H   H121      1.0  0.43508  0.04161  0.36239  1.0000
  H   H122      1.0  0.15295  0.10037  0.60741  1.0000
  H   H123      1.0  0.20143  0.02366  0.49972  1.0000
  H   H124      1.0  0.44722  0.00138  0.42843  1.0000
  H   H125      1.0  0.38808  0.09867  0.47202  1.0000
  H   H126      1.0  0.40271  0.99733  0.44539  1.0000
  H   H127      1.0  0.33206  0.01187  0.64172  1.0000
  H   H128      1.0  0.22422  0.02466  0.48639  1.0000
  C   C78       1.0  0.14552  0.99441  0.54943  1.0000
  H   H129      1.0  0.12028  0.17977  0.60001  1.0000
  H   H130      1.0  0.45451  0.02182  0.41420  1.0000
  C   C79       1.0  0.28452  0.00253  0.64914  1.0000
  H   H131      1.0  0.22880  0.02763  0.59258  1.0000
  S   S33       1.0  0.44247  0.07984  0.34446  1.0000
  H   H132      1.0  0.36045  0.11959  0.60365  1.0000
  H   H133      1.0  0.48558  0.00748  0.42596  1.0000
  C   C80       1.0  0.36487  0.99305  0.62396  1.0000
  C   C81       1.0  0.18710  0.99254  0.51580  1.0000
  C   C82       1.0  0.47723  0.99939  0.42315  1.0000
  C   C83       1.0  0.03743  0.15245  0.59592  1.0000
  C   C84       1.0  0.28697  0.99084  0.63732  1.0000
  H   H134      1.0  0.36297  0.14214  0.59115  1.0000
  C   C85       1.0  0.35123  0.99340  0.61253  1.0000
  H   H135      1.0  0.05433  0.22548  0.48275  1.0000
  H   H136      1.0  0.40934  0.02560  0.37091  1.0000
  H   H137      1.0  0.17239  0.16410  0.58520  1.0000
  H   H138      1.0  0.13314  0.11880  0.60659  1.0000
  H   H139      1.0  0.33869  0.11297  0.62727  1.0000
  Fe  Fe17      1.0  0.29521  0.06026  0.64391  1.0000
  H   H140      1.0  0.15086  0.11887  0.61769  1.0000
  H   H141      1.0  0.24627  0.02514  0.57251  1.0000
  C   C86       1.0  0.29690  0.99474  0.61922  1.0000
  C   C87       1.0  0.28956  0.99521  0.53218  1.0000
  H   H142      1.0  0.38836  0.00507  0.59481  1.0000
  C   C88       1.0  0.25019  0.00315  0.59554  1.0000
  C   C89       1.0  0.45904  0.00137  0.35006  1.0000
  H   H143      1.0  0.40163  0.02909  0.59654  1.0000
  C   C90       1.0  0.44457  0.99214  0.35538  1.0000
  H   H144      1.0  0.28109  0.01918  0.58713  1.0000
  S   S34       1.0  0.01544  0.22264  0.53784  1.0000
  C   C91       1.0  0.30968  0.15133  0.63408  1.0000
  C   C92       1.0  0.37821  0.00265  0.41552  1.0000
  Fe  Fe18      1.0  0.46154  0.09703  0.34432  1.0000
  H   H145      1.0  0.25873  0.06240  0.55703  1.0000
  C   C93       1.0  0.37274  0.99576  0.43650  1.0000
  H   H146      1.0  0.30374  0.00479  0.56571  1.0000
  H   H147      1.0  0.18586  0.01283  0.53058  1.0000
  H   H148      1.0  0.33023  0.03268  0.64805  1.0000
  H   H149      1.0  0.38234  0.12497  0.59840  1.0000
  C   C94       1.0  0.39739  0.99692  0.32149  1.0000
  C   C95       1.0  0.34021  0.02028  0.64424  1.0000
  H   H150      1.0  0.25940  0.04222  0.61509  1.0000
  C   C96       1.0  0.01244  0.15133  0.55105  1.0000
  H   H151      1.0  0.16903  0.00796  0.61742  1.0000
  H   H152      1.0  0.26186  0.01868  0.61647  1.0000
  H   H153      1.0  0.26515  0.05479  0.46492  1.0000
  C   C97       1.0  0.29456  0.03912  0.44492  1.0000
  C   C98       1.0  0.29464  0.07521  0.45359  1.0000
  C   C99       1.0  0.28774  0.02284  0.44353  1.0000
  H   H154      1.0  0.28601  0.05161  0.43780  1.0000
  H   H155      1.0  0.30887  0.03824  0.43631  1.0000
  H   H156      1.0  0.30294  0.08481  0.45365  1.0000
  H   H157      1.0  0.29431  0.07654  0.43908  1.0000
  H   H158      1.0  0.28050  0.07994  0.46154  1.0000
  H   H159      1.0  0.29621  0.00950  0.44913  1.0000
  N   N4        1.0  0.15694  0.14530  0.58380  1.0000
  H   H160      1.0  0.39847  0.99720  0.62427  1.0000
  H   H161      1.0  0.45961  0.02888  0.64914  1.0000
  H   H162      1.0  0.34721  0.03340  0.61611  1.0000
  C   C100      1.0  0.30611  0.99439  0.51887  1.0000
  C   C101      1.0  0.35499  0.02596  0.62709  1.0000
  C   C102      1.0  0.38732  0.03319  0.59425  1.0000
  H   H163      1.0  0.35873  0.99284  0.43956  1.0000
  C   C103      1.0  0.19295  0.99823  0.53068  1.0000
  H   H164      1.0  0.00751  0.23634  0.60369  1.0000
  H   H165      1.0  0.19435  0.99941  0.56583  1.0000
  H   H166      1.0  0.34085  0.00647  0.61134  1.0000
  C   C104      1.0  0.32168  0.99768  0.52234  1.0000
  H   H167      1.0  0.07977  0.12106  0.56109  1.0000
  H   H168      1.0  0.39177  0.02007  0.62742  1.0000
  H   H169      1.0  0.36035  0.03658  0.62994  1.0000
  H   H170      1.0  0.21687  0.03205  0.50762  1.0000
  S   S35       1.0  0.40804  0.99018  0.36780  1.0000
  C   C105      1.0  0.28848  0.99961  0.54882  1.0000
  H   H171      1.0  0.38839  0.03869  0.57926  1.0000
  H   H172      1.0  0.02296  0.15092  0.60196  1.0000
  H   H173      1.0  0.20875  0.02131  0.53754  1.0000
  H   H174      1.0  0.38544  0.00510  0.32979  1.0000
  H   H175      1.0  0.40692  0.07228  0.64574  1.0000
  C   C106      1.0  0.15392  0.99540  0.57706  1.0000
  H   H176      1.0  0.01900  0.14230  0.54109  1.0000
  C   C107      1.0  0.17471  0.14444  0.55016  1.0000
  H   H177      1.0  0.14525  0.15284  0.55973  1.0000
  H   H178      1.0  0.15314  0.12154  0.57676  1.0000
  H   H179      1.0  0.17307  0.15094  0.53587  1.0000
  H   H180      1.0  0.28584  0.09890  0.56068  1.0000
  H   H181      1.0  0.31895  0.09818  0.51655  1.0000
  H   H182      1.0  0.28408  0.13137  0.55452  1.0000
  H   H183      1.0  0.13672  0.14922  0.60920  1.0000
  H   H184      1.0  0.27338  0.05510  0.48387  1.0000
  H   H185      1.0  0.18627  0.14271  0.58096  1.0000
  H   H186      1.0  0.23654  0.07698  0.56264  1.0000
  H   H187      1.0  0.36675  0.02037  0.59272  1.0000
  C   C108      1.0  0.32451  0.01618  0.46567  1.0000
  H   H188      1.0  0.27687  0.10643  0.52276  1.0000
  H   H189      1.0  0.32960  0.11538  0.54288  1.0000
  H   H190      1.0  0.30191  0.11696  0.50950  1.0000
  C   C109      1.0  0.32738  0.12378  0.50844  1.0000
  H   H191      1.0  0.33349  0.02548  0.46467  1.0000
  H   H192      1.0  0.44122  0.10546  0.43260  1.0000
  H   H193      1.0  0.13164  0.18164  0.57653  1.0000
  C   C110      1.0  0.31403  0.10462  0.56899  1.0000
  C   C111      1.0  0.30410  0.02335  0.47464  1.0000
  C   C112      1.0  0.17278  0.14918  0.58891  1.0000
  C   C113      1.0  0.43780  0.02780  0.36044  1.0000
  H   H194      1.0  0.06232  0.16951  0.52607  1.0000
  H   H195      1.0  0.29162  0.15445  0.51655  1.0000
  C   C114      1.0  0.45568  0.01915  0.35269  1.0000
  H   H196      1.0  0.17342  0.11746  0.58494  1.0000
  H   H197      1.0  0.08048  0.11995  0.53827  1.0000
  H   H198      1.0  0.30811  0.09241  0.57595  1.0000
  C   C115      1.0  0.32078  0.00129  0.53933  1.0000
  C   C116      1.0  0.32973  0.14838  0.62254  1.0000
  H   H199      1.0  0.45361  0.09433  0.46269  1.0000
  H   H200      1.0  0.42069  0.99694  0.41685  1.0000
  H   H201      1.0  0.30757  0.15984  0.64419  1.0000
  H   H202      1.0  0.47284  0.99473  0.34389  1.0000
  H   H203      1.0  0.39529  0.07843  0.48799  1.0000
  N   N5        1.0  0.04191  0.14569  0.56372  1.0000
  H   H204      1.0  0.20886  0.99466  0.62327  1.0000
  C   C117      1.0  0.43382  0.09831  0.44592  1.0000
  H   H205      1.0  0.46153  0.08049  0.44559  1.0000
  C   C118      1.0  0.48688  0.01105  0.38920  1.0000
  C   C119      1.0  0.14558  0.01308  0.54290  1.0000
  C   C120      1.0  0.24405  0.02375  0.58761  1.0000
  C   C121      1.0  0.45697  0.01036  0.42601  1.0000
  C   C122      1.0  0.30391  0.05563  0.46225  1.0000
  H   H206      1.0  0.31820  0.05293  0.45372  1.0000
  H   H207      1.0  0.29715  0.01190  0.47718  1.0000
  C   C123      1.0  0.36726  0.13076  0.60242  1.0000
  H   H208      1.0  0.17713  0.12716  0.61304  1.0000
  C   C124      1.0  0.28473  0.04662  0.58140  1.0000
  H   H209      1.0  0.28909  0.02314  0.42880  1.0000
  N   N6        1.0  0.29405  0.04074  0.46402  1.0000
  C   C125      1.0  0.27426  0.04624  0.47443  1.0000
  C   C126      1.0  0.26463  0.03087  0.48693  1.0000
  H   H210      1.0  0.30550  0.05604  0.47598  1.0000
  H   H211      1.0  0.32604  0.01348  0.45194  1.0000
  H   H212      1.0  0.26446  0.02054  0.47969  1.0000
  C   C127      1.0  0.13370  0.17526  0.59069  1.0000
  H   H213      1.0  0.33383  0.17307  0.63982  1.0000
  H   H214      1.0  0.35320  0.08913  0.65030  1.0000
  H   H215      1.0  0.30375  0.02520  0.48852  1.0000
  H   H216      1.0  0.29870  0.08598  0.54377  1.0000
  H   H217      1.0  0.32655  0.10281  0.57428  1.0000
  H   H218      1.0  0.41695  0.10658  0.40506  1.0000
  H   H219      1.0  0.24310  0.99538  0.59059  1.0000
  H   H220      1.0  0.32986  0.00291  0.47442  1.0000
  H   H221      1.0  0.04949  0.11762  0.56045  1.0000
  C   C128      1.0  0.38241  0.00098  0.65105  1.0000
  H   H222      1.0  0.32772  0.09259  0.54535  1.0000
  H   H223      1.0  0.30429  0.11700  0.57310  1.0000
  H   H224      1.0  0.26623  0.09348  0.54372  1.0000
  H   H225      1.0  0.45358  0.01619  0.43844  1.0000
  C   C129      1.0  0.31960  0.10625  0.54799  1.0000
  C   C130      1.0  0.29113  0.10003  0.54565  1.0000
  H   H226      1.0  0.27573  0.00002  0.55912  1.0000
  H   H227      1.0  0.20075  0.01111  0.60482  1.0000
  H   H228      1.0  0.37101  0.00788  0.44229  1.0000
  N   N7        1.0  0.30395  0.11316  0.53793  1.0000
  C   C131      1.0  0.31241  0.11254  0.51799  1.0000
  H   H229      1.0  0.32326  0.13768  0.51140  1.0000
  H   H230      1.0  0.26397  0.11726  0.54189  1.0000
  H   H231      1.0  0.07870  0.14159  0.54321  1.0000
  H   H232      1.0  0.40109  0.07177  0.45714  1.0000
  H   H233      1.0  0.28528  0.04685  0.59545  1.0000
  C   C132      1.0  0.29403  0.13216  0.54092  1.0000
  H   H234      1.0  0.34077  0.11655  0.51242  1.0000
  C   C133      1.0  0.34153  0.11727  0.63856  1.0000
  C   C134      1.0  0.30423  0.00225  0.55255  1.0000
  H   H235      1.0  0.30416  0.13969  0.54152  1.0000
  H   H236      1.0  0.32991  0.12525  0.49334  1.0000
  N   N8        1.0  0.37074  0.01083  0.62074  1.0000
  C   C135      1.0  0.40045  0.08838  0.47562  1.0000
  S   S36       1.0  0.08376  0.21777  0.56678  1.0000
  C   C136      1.0  0.07408  0.12850  0.54875  1.0000
  H   H237      1.0  0.42997  0.04882  0.44360  1.0000
  C   C137      1.0  0.28332  0.14480  0.52627  1.0000
  H   H238      1.0  0.27845  0.13776  0.51853  1.0000
  H   H239      1.0  0.27075  0.15354  0.53323  1.0000
  H   H240      1.0  0.14232  0.01995  0.52967  1.0000
  C   C138      1.0  0.18001  0.99616  0.62167  1.0000
  H   H241      1.0  0.04178  0.16206  0.52721  1.0000
  C   C139      1.0  0.44927  0.08603  0.45567  1.0000
  H   H242      1.0  0.15715  0.98841  0.59025  1.0000
  H   H243      1.0  0.22515  0.04754  0.62296  1.0000
  H   H244      1.0  0.40398  0.05089  0.62697  1.0000
  H   H245      1.0  0.39032  0.00902  0.41155  1.0000
  H   H246      1.0  0.27448  0.03291  0.56678  1.0000
  H   H247      1.0  0.19838  0.98847  0.50435  1.0000
  H   H248      1.0  0.36480  0.15200  0.61599  1.0000
  H   H249      1.0  0.44959  0.05667  0.44482  1.0000
  H   H250      1.0  0.22633  0.02387  0.62354  1.0000
  C   C140      1.0  0.22394  0.00206  0.51014  1.0000
  C   C141      1.0  0.02153  0.14596  0.56766  1.0000
  H   H251      1.0  0.47340  0.01738  0.38508  1.0000
  H   H252      1.0  0.42645  0.10959  0.45335  1.0000
  H   H253      1.0  0.05885  0.16553  0.55682  1.0000
  H   H254      1.0  0.42087  0.06608  0.46633  1.0000
  C   C142      1.0  0.44015  0.05747  0.43608  1.0000
  C   C143      1.0  0.24446  0.06262  0.56529  1.0000
  C   C144      1.0  0.36312  0.13760  0.62042  1.0000
  H   H255      1.0  0.42835  0.03494  0.63800  1.0000
  H   H256      1.0  0.04025  0.18450  0.52952  1.0000
  H   H257      1.0  0.44879  0.05140  0.42426  1.0000
  C   C145      1.0  0.27347  0.03298  0.58139  1.0000
  H   H258      1.0  0.39901  0.11396  0.44395  1.0000
  N   N9        1.0  0.34438  0.13662  0.63280  1.0000
  N   N10       1.0  0.42052  0.08908  0.44271  1.0000
  H   H259      1.0  0.44060  0.08380  0.41776  1.0000
  H   H260      1.0  0.23793  0.05453  0.56028  1.0000
  H   H261      1.0  0.21796  0.98805  0.56806  1.0000
  C   C146      1.0  0.41106  0.07796  0.46017  1.0000
  C   C147      1.0  0.43025  0.07722  0.42880  1.0000
  N   N11       1.0  0.25359  0.03621  0.59177  1.0000
  H   H262      1.0  0.22875  0.05761  0.59272  1.0000
  H   H263      1.0  0.36663  0.01369  0.41111  1.0000
  C   C148      1.0  0.24369  0.05572  0.58602  1.0000
  H   H264      1.0  0.32891  0.11628  0.64962  1.0000
  S   S37       1.0  0.27078  0.98906  0.52884  1.0000
  C   C149      1.0  0.40556  0.10387  0.43496  1.0000
  H   H265      1.0  0.42026  0.07574  0.42164  1.0000
  C   C150      1.0  0.41168  0.11516  0.41550  1.0000
  C   C151      1.0  0.42323  0.01872  0.36529  1.0000
  H   H266      1.0  0.23086  0.00691  0.53909  1.0000
  H   H267      1.0  0.29923  0.04223  0.57394  1.0000
  H   H268      1.0  0.03477  0.17517  0.56038  1.0000
  H   H269      1.0  0.39945  0.12544  0.41147  1.0000
  N   N12       1.0  0.21340  0.99553  0.52934  1.0000
  N   N13       1.0  0.48526  0.99441  0.40463  1.0000
  S   S38       1.0  0.48119  0.07331  0.40625  1.0000
  H   H270      1.0  0.24909  0.06519  0.59062  1.0000
  H   H271      1.0  0.40943  0.09486  0.47964  1.0000
  C   C152      1.0  0.04758  0.16998  0.53318  1.0000
  H   H272      1.0  0.42212  0.12279  0.41481  1.0000
  H   H273      1.0  0.39419  0.09791  0.43444  1.0000
  H   H274      1.0  0.01882  0.13233  0.57560  1.0000
  S   S39       1.0  0.48340  0.07345  0.35412  1.0000
  C   C153      1.0  0.25318  0.03239  0.61201  1.0000
  C   C154      1.0  0.42661  0.00087  0.36275  1.0000
  H   H275      1.0  0.00796  0.19880  0.57415  1.0000
  C   C155      1.0  0.23383  0.03348  0.62496  1.0000
  C   C156      1.0  0.38653  0.00746  0.63005  1.0000
  S   S40       1.0  0.47152  0.11803  0.31992  1.0000
  H   H276      1.0  0.36452  0.00277  0.47204  1.0000
  C   C157      1.0  0.37807  0.01663  0.60032  1.0000
  S   S41       1.0  0.27250  0.08510  0.64717  1.0000
  H   H277      1.0  0.33279  0.16211  0.61581  1.0000
  H   H278      1.0  0.37926  0.04445  0.60136  1.0000
  H   H279      1.0  0.03775  0.16704  0.58993  1.0000
  C   C158      1.0  0.29187  0.01822  0.64275  1.0000
  H   H280      1.0  0.37005  0.10073  0.63437  1.0000
  H   H281      1.0  0.38517  0.06989  0.63012  1.0000
  C   C159      1.0  0.19647  0.00473  0.61956  1.0000
  C   C160      1.0  0.39265  0.05685  0.63747  1.0000
  Fe  Fe19      1.0  0.05446  0.23318  0.57508  1.0000
  C   C161      1.0  0.43032  0.04014  0.64919  1.0000
  H   H282      1.0  0.18642  0.99065  0.54422  1.0000
  H   H283      1.0  0.38795  0.99347  0.47563  1.0000
  H   H284      1.0  0.15625  0.01044  0.64826  1.0000
  C   C162      1.0  0.49288  0.02686  0.39281  1.0000
  H   H285      1.0  0.49457  0.03735  0.37986  1.0000
  C   C163      1.0  0.99840  0.19849  0.56639  1.0000
  H   H286      1.0  0.38253  0.04790  0.64346  1.0000
  H   H287      1.0  0.05362  0.22448  0.50643  1.0000
  H   H288      1.0  0.20941  0.01147  0.56897  1.0000
  C   C164      1.0  0.21596  0.00676  0.54128  1.0000
  H   H289      1.0  0.30695  0.99103  0.50600  1.0000
  C   C165      1.0  0.20889  0.00084  0.56218  1.0000
  C   C166      1.0  0.04947  0.23345  0.49376  1.0000
  H   H290      1.0  0.45893  0.99425  0.39937  1.0000
  H   H291      1.0  0.00395  0.23080  0.57789  1.0000
  C   C167      1.0  0.14053  0.99170  0.63247  1.0000
  C   C168      1.0  0.37463  0.99016  0.47639  1.0000
  H   H292      1.0  0.30544  0.13829  0.64141  1.0000
  C   C169      1.0  0.34297  0.14315  0.64985  1.0000
  H   H293      1.0  0.23859  0.00127  0.51020  1.0000
  H   H294      1.0  0.13362  0.00111  0.64204  1.0000
  H   H295      1.0  0.03419  0.23675  0.49745  1.0000
  H   H296      1.0  0.35842  0.98828  0.63858  1.0000
  H   H297      1.0  0.99777  0.15001  0.55607  1.0000
  H   H298      1.0  0.18398  0.98770  0.61108  1.0000
  Fe  Fe20      1.0  0.41007  0.10526  0.70515  1.0000
  S   S42       1.0  0.39099  0.12975  0.71552  1.0000
  S   S43       1.0  0.43728  0.10334  0.68492  1.0000
  Fe  Fe21      1.0  0.38535  0.07976  0.72782  1.0000
  S   S44       1.0  0.36392  0.10161  0.74014  1.0000
  S   S45       1.0  0.38431  0.05029  0.73655  1.0000
  Fe  Fe22      1.0  0.36865  0.11853  0.71156  1.0000
  S   S46       1.0  0.34489  0.13680  0.69936  1.0000
  Fe  Fe23      1.0  0.38805  0.11054  0.74323  1.0000
  S   S47       1.0  0.38631  0.11435  0.77161  1.0000
  S   S48       1.0  0.38808  0.09576  0.69888  1.0000
  S   S49       1.0  0.40909  0.08707  0.73310  1.0000
  C   C170      1.0  0.45068  0.03686  0.78476  1.0000
  Fe  Fe24      1.0  0.45851  0.22408  0.94039  1.0000
  C   C171      1.0  0.40250  0.02896  0.66897  1.0000
  H   H299      1.0  0.41861  0.07539  0.81029  1.0000
  H   H300      1.0  0.46677  0.00430  0.72740  1.0000
  S   S50       1.0  0.49605  0.10304  0.72770  1.0000
  H   H301      1.0  0.44337  0.11730  0.94926  1.0000
  C   C172      1.0  0.45416  0.99918  0.88916  1.0000
  H   H302      1.0  0.39571  0.99571  0.65563  1.0000
  C   C173      1.0  0.46580  0.04700  0.78349  1.0000
  C   C174      1.0  0.31055  0.13850  0.69537  1.0000
  C   C175      1.0  0.47258  0.09617  0.68992  1.0000
  H   H303      1.0  0.25076  0.06683  0.71431  1.0000
  Fe  Fe25      1.0  0.45606  0.09355  0.85169  1.0000
  S   S51       1.0  0.44009  0.12243  0.84385  1.0000
  S   S52       1.0  0.44072  0.07057  0.86471  1.0000
  H   H304      1.0  0.34092  0.04904  0.76396  1.0000
  H   H305      1.0  0.44788  0.01698  0.75280  1.0000
  H   H306      1.0  0.41026  0.99804  0.74535  1.0000
  Fe  Fe26      1.0  0.46126  0.13096  0.85313  1.0000
  S   S53       1.0  0.45287  0.15431  0.86844  1.0000
  Fe  Fe27      1.0  0.46044  0.12263  0.81686  1.0000
  S   S54       1.0  0.45449  0.13257  0.78846  1.0000
  N   N14       1.0  0.43767  0.00384  0.73731  1.0000
  S   S55       1.0  0.47518  0.09341  0.82403  1.0000
  H   H307      1.0  0.41856  0.00427  0.88252  1.0000
  S   S56       1.0  0.47017  0.19430  0.95040  1.0000
  H   H308      1.0  0.46306  0.15492  0.95376  1.0000
  H   H309      1.0  0.46728  0.01653  0.89675  1.0000
  C   C176      1.0  0.43213  0.14720  0.92076  1.0000
  H   H310      1.0  0.43059  0.04835  0.71974  1.0000
  H   H311      1.0  0.29218  0.06627  0.71252  1.0000
  H   H312      1.0  0.26755  0.04510  0.69191  1.0000
  H   H313      1.0  0.41673  0.02449  0.72505  1.0000
  H   H314      1.0  0.43811  0.08237  0.81202  1.0000
  H   H315      1.0  0.33363  0.09313  0.80521  1.0000
  C   C177      1.0  0.49680  0.15487  0.88794  1.0000
  S   S57       1.0  0.47948  0.22653  0.91370  1.0000
  C   C178      1.0  0.29757  0.13281  0.68993  1.0000
  H   H316      1.0  0.30824  0.01692  0.71149  1.0000
  C   C179      1.0  0.44818  0.05221  0.85330  1.0000
  C   C180      1.0  0.43586  0.04147  0.85423  1.0000
  C   C181      1.0  0.44163  0.02704  0.84478  1.0000
  C   C182      1.0  0.45985  0.02313  0.83471  1.0000
  C   C183      1.0  0.47221  0.03359  0.83414  1.0000
  C   C184      1.0  0.46640  0.04810  0.84335  1.0000
  H   H317      1.0  0.42175  0.04461  0.86195  1.0000
  H   H318      1.0  0.43195  0.01912  0.84517  1.0000
  C   C185      1.0  0.37920  0.06122  0.78120  1.0000
  H   H319      1.0  0.47614  0.05591  0.84304  1.0000
  H   H320      1.0  0.36627  0.03377  0.77823  1.0000
  H   H321      1.0  0.48486  0.18267  0.74986  1.0000
  N   N15       1.0  0.46089  0.06768  0.77863  1.0000
  C   C186      1.0  0.29769  0.02438  0.70328  1.0000
  H   H322      1.0  0.43707  0.99902  0.76617  1.0000
  H   H323      1.0  0.48536  0.04284  0.70127  1.0000
  H   H324      1.0  0.46647  0.12983  0.92795  1.0000
  H   H325      1.0  0.44942  0.18646  0.88154  1.0000
  C   C187      1.0  0.37874  0.98912  0.77146  1.0000
  H   H326      1.0  0.33114  0.06464  0.77903  1.0000
  Fe  Fe28      1.0  0.29387  0.09602  0.65303  1.0000
  C   C188      1.0  0.48574  0.09599  0.69941  1.0000
  C   C189      1.0  0.41816  0.02442  0.76012  1.0000
  S   S58       1.0  0.31556  0.07021  0.65246  1.0000
  C   C190      1.0  0.46021  0.14353  0.93137  1.0000
  H   H327      1.0  0.43103  0.18441  0.91708  1.0000
  C   C191      1.0  0.28735  0.00992  0.70357  1.0000
  H   H328      1.0  0.44598  0.13302  0.97389  1.0000
  C   C192      1.0  0.47178  0.07510  0.78729  1.0000
  C   C193      1.0  0.26092  0.07014  0.70135  1.0000
  H   H329      1.0  0.42175  0.03916  0.68777  1.0000
  H   H330      1.0  0.32002  0.05332  0.72444  1.0000
  H   H331      1.0  0.43650  0.15814  0.90903  1.0000
  C   C194      1.0  0.41435  0.05059  0.67868  1.0000
  H   H332      1.0  0.47830  0.04160  0.77352  1.0000
  H   H333      1.0  0.41981  0.12922  0.95201  1.0000
  C   C195      1.0  0.44069  0.07557  0.78551  1.0000
  S   S59       1.0  0.48032  0.01448  0.68695  1.0000
  N   N16       1.0  0.43944  0.14638  0.93724  1.0000
  S   S60       1.0  0.28557  0.11049  0.67652  1.0000
  C   C196      1.0  0.49297  0.07049  0.78045  1.0000
  C   C197      1.0  0.32813  0.12729  0.69604  1.0000
  C   C198      1.0  0.33249  0.10998  0.69168  1.0000
  C   C199      1.0  0.31949  0.10437  0.68587  1.0000
  H   H334      1.0  0.34607  0.10128  0.69212  1.0000
  H   H335      1.0  0.32294  0.09122  0.68212  1.0000
  C   C200      1.0  0.37260  0.04422  0.72362  1.0000
  C   C201      1.0  0.36399  0.05739  0.71049  1.0000
  C   C202      1.0  0.35570  0.05203  0.69942  1.0000
  C   C203      1.0  0.35567  0.03356  0.70188  1.0000
  H   H336      1.0  0.30970  0.05417  0.69725  1.0000
  C   C204      1.0  0.37240  0.02584  0.72614  1.0000
  H   H337      1.0  0.36362  0.07168  0.70892  1.0000
  H   H338      1.0  0.34914  0.06216  0.68916  1.0000
  C   C205      1.0  0.27513  0.05302  0.69595  1.0000
  H   H339      1.0  0.37904  0.01567  0.73629  1.0000
  C   C206      1.0  0.45397  0.10441  0.69575  1.0000
  C   C207      1.0  0.44862  0.11292  0.71071  1.0000
  C   C208      1.0  0.46186  0.11314  0.71986  1.0000
  Fe  Fe29      1.0  0.34771  0.99647  0.69795  1.0000
  S   S61       1.0  0.48027  0.13363  0.82522  1.0000
  H   H340      1.0  0.43427  0.11942  0.71520  1.0000
  H   H341      1.0  0.45767  0.11972  0.73141  1.0000
  C   C209      1.0  0.40523  0.11964  0.77608  1.0000
  C   C210      1.0  0.40639  0.11737  0.79437  1.0000
  C   C211      1.0  0.42150  0.12116  0.79838  1.0000
  C   C212      1.0  0.43531  0.12765  0.78410  1.0000
  C   C213      1.0  0.43398  0.13021  0.76585  1.0000
  C   C214      1.0  0.41915  0.12595  0.76181  1.0000
  H   H342      1.0  0.39560  0.11260  0.80547  1.0000
  H   H343      1.0  0.42232  0.11929  0.81251  1.0000
  H   H344      1.0  0.44446  0.13559  0.75482  1.0000
  H   H345      1.0  0.41829  0.12791  0.74768  1.0000
  H   H346      1.0  0.37512  0.98962  0.65606  1.0000
  H   H347      1.0  0.38732  0.03391  0.67380  1.0000
  H   H348      1.0  0.45694  0.02202  0.78604  1.0000
  H   H349      1.0  0.40565  0.01985  0.76047  1.0000
  C   C215      1.0  0.46839  0.16104  0.87717  1.0000
  C   C216      1.0  0.46268  0.17762  0.88326  1.0000
  N   N17       1.0  0.41213  0.04477  0.66250  1.0000
  C   C217      1.0  0.49622  0.03082  0.70389  1.0000
  C   C218      1.0  0.35042  0.06540  0.80621  1.0000
  C   C219      1.0  0.49380  0.17438  0.75958  1.0000
  H   H350      1.0  0.19352  0.99646  0.65686  1.0000
  H   H351      1.0  0.46919  0.06973  0.80242  1.0000
  H   H352      1.0  0.47445  0.14864  0.72804  1.0000
  H   H353      1.0  0.42393  0.98885  0.71474  1.0000
  H   H354      1.0  0.44141  0.07150  0.75061  1.0000
  H   H355      1.0  0.27571  0.01547  0.69649  1.0000
  C   C220      1.0  0.45751  0.99462  0.73074  1.0000
  H   H356      1.0  0.44449  0.04134  0.77259  1.0000
  C   C221      1.0  0.43043  0.16418  0.94353  1.0000
  C   C222      1.0  0.43390  0.13044  0.95203  1.0000
  C   C223      1.0  0.48564  0.14980  0.87933  1.0000
  C   C224      1.0  0.43615  0.01066  0.75422  1.0000
  H   H357      1.0  0.43746  0.09057  0.77998  1.0000
  H   H358      1.0  0.48860  0.16432  0.72505  1.0000
  C   C225      1.0  0.30212  0.11603  0.68463  1.0000
  C   C226      1.0  0.48983  0.14161  0.74947  1.0000
  H   H359      1.0  0.27005  0.04882  0.73562  1.0000
  H   H360      1.0  0.46991  0.04201  0.79696  1.0000
  C   C227      1.0  0.39975  0.06080  0.65252  1.0000
  H   H361      1.0  0.17694  0.01723  0.65948  1.0000
  H   H362      1.0  0.41506  0.16627  0.94659  1.0000
  H   H363      1.0  0.24435  0.03898  0.73838  1.0000
  H   H364      1.0  0.47789  0.00668  0.76028  1.0000
  H   H365      1.0  0.43940  0.05854  0.81368  1.0000
  H   H366      1.0  0.46439  0.15299  0.91822  1.0000
  C   C228      1.0  0.43397  0.07262  0.80660  1.0000
  H   H367      1.0  0.34563  0.03605  0.79561  1.0000
  H   H368      1.0  0.25740  0.01608  0.73872  1.0000
  H   H369      1.0  0.41669  0.15079  0.92395  1.0000
  H   H370      1.0  0.30125  0.04434  0.73988  1.0000
  N   N18       1.0  0.28616  0.04140  0.71001  1.0000
  H   H371      1.0  0.34126  0.08740  0.78317  1.0000
  H   H372      1.0  0.40056  0.05494  0.68762  1.0000
  C   C229      1.0  0.43566  0.18154  0.93009  1.0000
  H   H373      1.0  0.28270  0.02584  0.73793  1.0000
  H   H374      1.0  0.28261  0.00250  0.71778  1.0000
  H   H375      1.0  0.42865  0.19356  0.93651  1.0000
  C   C230      1.0  0.47384  0.18269  0.89186  1.0000
  H   H376      1.0  0.40121  0.00238  0.68696  1.0000
  H   H377      1.0  0.47760  0.14929  0.75794  1.0000
  H   H378      1.0  0.49021  0.13701  0.87469  1.0000
  H   H379      1.0  0.44035  0.00701  0.89516  1.0000
  S   S62       1.0  0.47525  0.10193  0.86359  1.0000
  C   C231      1.0  0.46591  0.07462  0.75813  1.0000
  C   C232      1.0  0.45669  0.06819  0.74646  1.0000
  H   H380      1.0  0.46267  0.08987  0.75482  1.0000
  H   H381      1.0  0.48637  0.03055  0.82649  1.0000
  H   H382      1.0  0.35703  0.09258  0.79333  1.0000
  H   H383      1.0  0.46034  0.07537  0.73193  1.0000
  H   H384      1.0  0.43929  0.06216  0.66622  1.0000
  H   H385      1.0  0.46212  0.05342  0.74650  1.0000
  S   S63       1.0  0.46777  0.00557  0.82229  1.0000
  H   H386      1.0  0.30711  0.15187  0.69866  1.0000
  H   H387      1.0  0.28463  0.05782  0.68284  1.0000
  H   H388      1.0  0.25318  0.03093  0.71756  1.0000
  H   H389      1.0  0.48346  0.14984  0.93730  1.0000
  H   H390      1.0  0.40272  0.05517  0.79446  1.0000
  H   H391      1.0  0.41723  0.02586  0.77424  1.0000
  C   C233      1.0  0.25647  0.03039  0.73070  1.0000
  H   H392      1.0  0.43363  0.16415  0.95662  1.0000
  H   H393      1.0  0.37189  0.00326  0.77146  1.0000
  H   H394      1.0  0.26759  0.08066  0.70226  1.0000
  C   C234      1.0  0.43199  0.01923  0.72197  1.0000
  H   H395      1.0  0.46424  0.99647  0.91404  1.0000
  C   C235      1.0  0.27434  0.03679  0.72899  1.0000
  H   H396      1.0  0.38505  0.07509  0.79975  1.0000
  H   H397      1.0  0.28411  0.14175  0.68927  1.0000
  H   H398      1.0  0.40426  0.01822  0.69796  1.0000
  S   S64       1.0  0.34575  0.02665  0.68796  1.0000
  C   C236      1.0  0.36253  0.02412  0.82229  1.0000
  H   H399      1.0  0.31909  0.03046  0.72551  1.0000
  Fe  Fe30      1.0  0.49240  0.19741  0.92467  1.0000
  C   C237      1.0  0.34546  0.08562  0.79618  1.0000
  C   C238      1.0  0.16484  0.99725  0.65426  1.0000
  H   H400      1.0  0.43167  0.07025  0.78031  1.0000
  Fe  Fe31      1.0  0.48741  0.20453  0.96292  1.0000
  H   H401      1.0  0.46727  0.09032  0.78529  1.0000
  H   H402      1.0  0.43951  0.03822  0.79722  1.0000
  H   H403      1.0  0.37305  0.07340  0.77176  1.0000
  C   C239      1.0  0.34444  0.05711  0.77185  1.0000
  H   H404      1.0  0.47674  0.08961  0.67832  1.0000
  C   C240      1.0  0.36384  0.02052  0.71536  1.0000
  S   S65       1.0  0.42804  0.23387  0.94097  1.0000
  C   C241      1.0  0.44122  0.03580  0.71719  1.0000
  H   H405      1.0  0.48528  0.16757  0.77227  1.0000
  H   H406      1.0  0.41801  0.03816  0.75109  1.0000
  H   H407      1.0  0.34922  0.03175  0.82933  1.0000
  H   H408      1.0  0.35996  0.01435  0.81564  1.0000
  H   H409      1.0  0.35224  0.06679  0.76163  1.0000
  H   H410      1.0  0.43510  0.01406  0.70915  1.0000
  H   H411      1.0  0.44766  0.03868  0.70230  1.0000
  H   H412      1.0  0.45219  0.03398  0.72458  1.0000
  C   C242      1.0  0.48035  0.10432  0.71453  1.0000
  H   H413      1.0  0.46914  0.19537  0.89667  1.0000
  H   H414      1.0  0.48757  0.12738  0.75310  1.0000
  H   H415      1.0  0.42340  0.00731  0.68200  1.0000
  H   H416      1.0  0.41760  0.07909  0.66640  1.0000
  H   H417      1.0  0.45072  0.18083  0.92720  1.0000
  H   H418      1.0  0.37029  0.01563  0.83295  1.0000
  C   C243      1.0  0.39250  0.06713  0.78897  1.0000
  C   C244      1.0  0.35562  0.04386  0.78565  1.0000
  H   H419      1.0  0.45739  0.00658  0.87461  1.0000
  N   N19       1.0  0.36464  0.05231  0.79529  1.0000
  H   H420      1.0  0.30571  0.02812  0.68895  1.0000
  H   H421      1.0  0.36375  0.00626  0.71746  1.0000
  C   C245      1.0  0.40847  0.01351  0.68483  1.0000
  H   H422      1.0  0.38797  0.05179  0.77210  1.0000
  H   H423      1.0  0.40051  0.07592  0.77761  1.0000
  H   H424      1.0  0.38039  0.04246  0.81670  1.0000
  H   H425      1.0  0.44609  0.01177  0.65537  1.0000
  H   H426      1.0  0.33725  0.06055  0.81183  1.0000
  C   C246      1.0  0.47070  0.14487  0.94510  1.0000
  H   H427      1.0  0.25296  0.07665  0.69040  1.0000
  H   H428      1.0  0.38640  0.02829  0.80053  1.0000
  H   H429      1.0  0.35501  0.06583  0.81850  1.0000
  C   C247      1.0  0.29947  0.05223  0.71062  1.0000
  H   H430      1.0  0.32976  0.14148  0.65973  1.0000
  S   S66       1.0  0.47393  0.23403  0.95489  1.0000
  C   C248      1.0  0.31044  0.04436  0.72605  1.0000
  H   H431      1.0  0.48562  0.99013  0.86353  1.0000
  C   C249      1.0  0.37443  0.03696  0.80833  1.0000
  C   C250      1.0  0.43313  0.13078  0.97205  1.0000
  C   C251      1.0  0.44606  0.02558  0.65691  1.0000
  S   S67       1.0  0.28834  0.03292  0.65752  1.0000
  C   C252      1.0  0.48813  0.14964  0.72933  1.0000
  H   H432      1.0  0.44577  0.02505  0.67135  1.0000
  H   H433      1.0  0.43395  0.11760  0.92327  1.0000
  H   H434      1.0  0.42578  0.06885  0.68695  1.0000
  H   H435      1.0  0.45329  0.12636  0.90718  1.0000
  H   H436      1.0  0.43133  0.13182  0.90148  1.0000
  Fe  Fe32      1.0  0.49308  0.10417  0.83499  1.0000
  H   H437      1.0  0.49158  0.13550  0.78223  1.0000
  H   H438      1.0  0.27682  0.99948  0.66318  1.0000
  H   H439      1.0  0.15503  0.99082  0.66613  1.0000
  H   H440      1.0  0.29711  0.99946  0.69616  1.0000
  C   C253      1.0  0.17878  0.00212  0.66226  1.0000
  C   C254      1.0  0.43817  0.12958  0.91304  1.0000
  C   C255      1.0  0.46791  0.00165  0.89899  1.0000
  C   C256      1.0  0.49080  0.17115  0.89457  1.0000
  H   H441      1.0  0.48103  0.07036  0.75261  1.0000
  H   H442      1.0  0.48243  0.99521  0.89343  1.0000
  C   C257      1.0  0.49302  0.00129  0.75869  1.0000
  H   H443      1.0  0.34608  0.01281  0.65629  1.0000
  H   H444      1.0  0.43108  0.11734  0.98097  1.0000
  H   H445      1.0  0.34162  0.16646  0.66077  1.0000
  C   C258      1.0  0.42498  0.99069  0.74235  1.0000
  H   H446      1.0  0.47484  0.13127  0.95396  1.0000
  C   C259      1.0  0.42486  0.06606  0.67395  1.0000
  H   H447      1.0  0.37456  0.01252  0.65786  1.0000
  H   H448      1.0  0.35399  0.13467  0.65723  1.0000
  H   H449      1.0  0.36093  0.10524  0.65732  1.0000
  H   H450      1.0  0.40412  0.02240  0.65738  1.0000
  H   H451      1.0  0.42112  0.14125  0.97721  1.0000
  H   H452      1.0  0.45941  0.99033  0.71764  1.0000
  S   S68       1.0  0.39768  0.99256  0.79516  1.0000
  H   H453      1.0  0.38721  0.06640  0.66241  1.0000
  H   H454      1.0  0.17595  0.99734  0.67744  1.0000
  C   C260      1.0  0.42040  0.98928  0.88437  1.0000
  H   H455      1.0  0.48883  0.99258  0.78797  1.0000
  Fe  Fe33      1.0  0.49615  0.23388  0.92921  1.0000
  C   C261      1.0  0.49697  0.01493  0.69825  1.0000
  Fe  Fe34      1.0  0.44541  0.35992  0.10182  1.0000
  S   S69       1.0  0.47598  0.35438  0.09083  1.0000
  S   S70       1.0  0.43298  0.33808  0.12293  1.0000
  Fe  Fe35      1.0  0.43919  0.39889  0.07937  1.0000
  S   S71       1.0  0.46945  0.39643  0.06642  1.0000
  S   S72       1.0  0.42120  0.42639  0.07021  1.0000
  Fe  Fe36      1.0  0.46840  0.36879  0.06396  1.0000
  H   H456      1.0  0.40097  0.44468  0.10615  1.0000
  Fe  Fe37      1.0  0.47391  0.38238  0.09464  1.0000
  H   H457      1.0  0.43383  0.32413  0.05024  1.0000
  S   S73       1.0  0.43779  0.37222  0.07451  1.0000
  S   S74       1.0  0.44369  0.38701  0.10802  1.0000
  Fe  Fe38      1.0  0.32090  0.46065  0.07048  1.0000
  C   C262      1.0  0.40413  0.38582  0.01182  1.0000
  S   S75       1.0  0.33749  0.43168  0.07205  1.0000
  H   H458      1.0  0.44276  0.25949  0.05057  1.0000
  C   C263      1.0  0.39132  0.38311  0.04587  1.0000
  H   H459      1.0  0.45625  0.23955  0.99449  1.0000
  H   H460      1.0  0.45588  0.33599  0.05958  1.0000
  S   S76       1.0  0.28981  0.46698  0.07831  1.0000
  H   H461      1.0  0.37356  0.38648  0.01806  1.0000
  C   C264      1.0  0.42138  0.39056  0.03186  1.0000
  H   H462      1.0  0.48681  0.30653  0.16941  1.0000
  H   H463      1.0  0.07445  0.43682  0.29405  1.0000
  C   C265      1.0  0.36080  0.43005  0.07136  1.0000
  C   C266      1.0  0.37137  0.41368  0.07959  1.0000
  C   C267      1.0  0.39004  0.41231  0.07920  1.0000
  C   C268      1.0  0.39816  0.42729  0.07041  1.0000
  C   C269      1.0  0.38764  0.44356  0.06195  1.0000
  C   C270      1.0  0.36896  0.44499  0.06253  1.0000
  H   H464      1.0  0.36502  0.40213  0.08651  1.0000
  H   H465      1.0  0.39807  0.39975  0.08587  1.0000
  H   H466      1.0  0.39393  0.45514  0.05498  1.0000
  H   H467      1.0  0.36088  0.45763  0.05606  1.0000
  H   H468      1.0  0.08381  0.48547  0.31345  1.0000
  H   H469      1.0  0.24149  0.48021  0.14568  1.0000
  H   H470      1.0  0.47265  0.36387  0.00377  1.0000
  C   C271      1.0  0.45491  0.24789  0.02563  1.0000
  H   H471      1.0  0.40627  0.25370  0.00535  1.0000
  C   C272      1.0  0.46180  0.27845  0.12125  1.0000
  C   C273      1.0  0.44218  0.33293  0.04011  1.0000
  N   N20       1.0  0.43937  0.25447  0.01544  1.0000
  S   S77       1.0  0.47271  0.25521  0.12248  1.0000
  H   H472      1.0  0.31862  0.37472  0.00593  1.0000
  C   C274      1.0  0.31038  0.38899  0.00371  1.0000
  H   H473      1.0  0.42265  0.27355  0.03259  1.0000
  C   C275      1.0  0.43898  0.30140  0.13635  1.0000
  C   C276      1.0  0.44406  0.31529  0.12155  1.0000
  C   C277      1.0  0.45799  0.31074  0.10639  1.0000
  C   C278      1.0  0.46687  0.29227  0.10622  1.0000
  H   H474      1.0  0.42820  0.30481  0.14804  1.0000
  H   H475      1.0  0.46167  0.32140  0.09473  1.0000
  H   H476      1.0  0.41136  0.35954  0.05744  1.0000
  C   C279      1.0  0.39848  0.45924  0.09874  1.0000
  H   H477      1.0  0.46460  0.32271  0.15278  1.0000
  C   C280      1.0  0.28763  0.46973  0.02260  1.0000
  H   H478      1.0  0.38599  0.38427  0.99550  1.0000
  H   H479      1.0  0.44883  0.39596  0.01967  1.0000
  C   C281      1.0  0.37837  0.46804  0.12763  1.0000
  H   H480      1.0  0.07433  0.46739  0.30152  1.0000
  N   N21       1.0  0.40229  0.39307  0.02861  1.0000
  H   H481      1.0  0.24348  0.47071  0.09237  1.0000
  H   H482      1.0  0.37747  0.43225  0.10926  1.0000
  C   C282      1.0  0.45462  0.33965  0.04540  1.0000
  H   H483      1.0  0.37678  0.38480  0.04518  1.0000
  H   H484      1.0  0.35126  0.43634  0.98597  1.0000
  C   C283      1.0  0.39911  0.36236  0.05142  1.0000
  C   C284      1.0  0.44782  0.28311  0.13622  1.0000
  H   H485      1.0  0.44381  0.27250  0.14783  1.0000
  H   H486      1.0  0.36382  0.41332  0.03615  1.0000
  H   H487      1.0  0.10088  0.42650  0.30466  1.0000
  H   H488      1.0  0.19493  0.46476  0.04698  1.0000
  H   H489      1.0  0.46305  0.30315  0.01823  1.0000
  C   C285      1.0  0.46415  0.35526  0.01397  1.0000
  S   S78       1.0  0.48192  0.35850  0.03820  1.0000
  H   H490      1.0  0.40086  0.28105  0.01477  1.0000
  H   H491      1.0  0.43970  0.28250  0.01523  1.0000
  H   H492      1.0  0.29366  0.46450  0.03457  1.0000
  C   C286      1.0  0.38699  0.38022  0.01012  1.0000
  H   H493      1.0  0.44839  0.35380  0.14671  1.0000
  H   H494      1.0  0.49643  0.31746  0.08708  1.0000
  C   C287      1.0  0.48958  0.32998  0.17661  1.0000
  H   H495      1.0  0.20284  0.46944  0.07266  1.0000
  C   C288      1.0  0.42968  0.27363  0.01796  1.0000
  C   C289      1.0  0.46344  0.35160  0.14595  1.0000
  C   C290      1.0  0.38395  0.48291  0.13343  1.0000
  C   C291      1.0  0.49277  0.29411  0.13843  1.0000
  H   H496      1.0  0.46858  0.36212  0.13421  1.0000
  H   H497      1.0  0.38888  0.36509  0.01373  1.0000
  H   H498      1.0  0.47111  0.33211  0.12907  1.0000
  C   C292      1.0  0.28482  0.46649  0.99333  1.0000
  C   C293      1.0  0.29214  0.45941  0.00908  1.0000
  C   C294      1.0  0.46574  0.35066  0.03222  1.0000
  N   N22       1.0  0.38001  0.46989  0.10729  1.0000
  H   H499      1.0  0.22840  0.46028  0.08682  1.0000
  H   H500      1.0  0.41554  0.37338  0.01133  1.0000
  S   S79       1.0  0.42569  0.32843  0.01499  1.0000
  C   C295      1.0  0.44805  0.25365  0.99558  1.0000
  C   C296      1.0  0.47305  0.33214  0.14278  1.0000
  H   H501      1.0  0.47302  0.26452  0.99099  1.0000
  C   C297      1.0  0.44065  0.33749  0.02175  1.0000
  H   H502      1.0  0.42042  0.39516  0.04459  1.0000
  H   H503      1.0  0.30172  0.44626  0.01057  1.0000
  S   S80       1.0  0.32406  0.47810  0.08772  1.0000
  C   C298      1.0  0.36507  0.46193  0.10528  1.0000
  H   H504      1.0  0.40156  0.42093  0.01306  1.0000
  H   H505      1.0  0.47459  0.33161  0.18315  1.0000
  C   C299      1.0  0.43490  0.40053  0.01634  1.0000
  C   C300      1.0  0.36511  0.44183  0.11529  1.0000
  H   H506      1.0  0.46972  0.29436  0.03954  1.0000
  C   C301      1.0  0.27254  0.48354  0.99132  1.0000
  H   H507      1.0  0.49279  0.34360  0.17035  1.0000
  C   C302      1.0  0.06305  0.44482  0.30294  1.0000
  H   H508      1.0  0.47816  0.28078  0.02278  1.0000
  C   C303      1.0  0.41562  0.46609  0.09796  1.0000
  H   H509      1.0  0.38849  0.35608  0.06229  1.0000
  H   H510      1.0  0.31219  0.39634  0.01329  1.0000
  H   H511      1.0  0.41687  0.24493  0.03655  1.0000
  C   C304      1.0  0.07001  0.45582  0.31248  1.0000
  H   H512      1.0  0.22343  0.46554  0.05550  1.0000
  H   H513      1.0  0.41360  0.29886  0.00445  1.0000
  H   H514      1.0  0.36399  0.43958  0.13026  1.0000
  H   H515      1.0  0.35291  0.43808  0.11346  1.0000
  N   N23       1.0  0.49328  0.32549  0.14364  1.0000
  H   H516      1.0  0.47755  0.28871  0.09455  1.0000
  H   H517      1.0  0.33410  0.41268  0.00056  1.0000
  H   H518      1.0  0.35113  0.47026  0.11032  1.0000
  H   H519      1.0  0.41772  0.46468  0.11188  1.0000
  H   H520      1.0  0.42852  0.37587  0.03407  1.0000
  H   H521      1.0  0.47766  0.29796  0.13928  1.0000
  H   H522      1.0  0.49566  0.28547  0.15171  1.0000
  H   H523      1.0  0.42805  0.45736  0.09076  1.0000
  C   C305      1.0  0.45152  0.34882  0.00883  1.0000
  S   S81       1.0  0.32245  0.48222  0.04448  1.0000
  C   C306      1.0  0.44921  0.24606  0.04667  1.0000
  H   H524      1.0  0.05398  0.45454  0.29395  1.0000
  H   H525      1.0  0.39456  0.41885  0.03728  1.0000
  H   H526      1.0  0.36595  0.46232  0.09065  1.0000
  Fe  Fe39      1.0  0.49484  0.24482  0.09950  1.0000
  H   H527      1.0  0.40271  0.35538  0.03981  1.0000
  H   H528      1.0  0.36377  0.46834  0.13539  1.0000
  H   H529      1.0  0.39034  0.48709  0.06897  1.0000
  C   C307      1.0  0.21051  0.47595  0.05911  1.0000
  H   H530      1.0  0.39871  0.45883  0.08449  1.0000
  C   C308      1.0  0.19922  0.47783  0.04481  1.0000
  H   H531      1.0  0.39029  0.38906  0.05772  1.0000
  H   H532      1.0  0.43641  0.39723  0.00288  1.0000
  C   C309      1.0  0.37343  0.41933  0.02392  1.0000
  C   C310      1.0  0.41458  0.28390  0.00699  1.0000
  H   H533      1.0  0.21922  0.47922  0.09856  1.0000
  H   H534      1.0  0.46490  0.35393  0.15885  1.0000
  C   C311      1.0  0.47480  0.29501  0.02453  1.0000
  C   C312      1.0  0.23035  0.47358  0.08771  1.0000
  H   H535      1.0  0.37186  0.41669  0.01116  1.0000
  C   C313      1.0  0.39375  0.41330  0.02577  1.0000
  H   H536      1.0  0.10355  0.44932  0.29541  1.0000
  C   C314      1.0  0.12134  0.43387  0.31388  1.0000
  H   H537      1.0  0.40827  0.39592  0.99903  1.0000
  H   H538      1.0  0.36897  0.43438  0.02280  1.0000
  H   H539      1.0  0.38647  0.45450  0.13357  1.0000
  H   H540      1.0  0.43088  0.41555  0.01529  1.0000
  H   H541      1.0  0.45067  0.35230  0.99473  1.0000
  H   H542      1.0  0.46473  0.25716  0.02067  1.0000
  H   H543      1.0  0.29558  0.38820  0.00734  1.0000
  S   S82       1.0  0.02107  0.48295  0.30835  1.0000
  H   H544      1.0  0.41760  0.28093  0.99319  1.0000
  H   H545      1.0  0.38420  0.47859  0.14827  1.0000
  H   H546      1.0  0.99890  0.46368  0.26600  1.0000
  H   H547      1.0  0.24423  0.48062  0.05955  1.0000
  C   C315      1.0  0.49534  0.31701  0.16311  1.0000
  H   H548      1.0  0.48600  0.31782  0.02125  1.0000
  C   C316      1.0  0.42635  0.24151  0.02360  1.0000
  H   H549      1.0  0.34786  0.38231  0.99731  1.0000
  H   H550      1.0  0.41515  0.48032  0.09002  1.0000
  C   C317      1.0  0.49154  0.30412  0.01781  1.0000
  H   H551      1.0  0.39778  0.48534  0.12586  1.0000
  H   H552      1.0  0.20779  0.48018  0.03062  1.0000
  H   H553      1.0  0.10727  0.47224  0.30856  1.0000
  H   H554      1.0  0.12974  0.44404  0.30562  1.0000
  C   C318      1.0  0.10236  0.43876  0.30845  1.0000
  H   H555      1.0  0.12934  0.42053  0.31040  1.0000
  H   H556      1.0  0.05434  0.43578  0.31306  1.0000
  H   H557      1.0  0.00058  0.48258  0.27386  1.0000
  S   S83       1.0  0.49428  0.38590  0.10850  1.0000
  H   H558      1.0  0.99932  0.46067  0.28950  1.0000
  Fe  Fe40      1.0  0.29306  0.48645  0.09317  1.0000
  H   H559      1.0  0.46190  0.24052  0.05235  1.0000
  C   C319      1.0  0.41412  0.24025  0.01140  1.0000
  H   H560      1.0  0.43754  0.25637  0.98735  1.0000
  H   H561      1.0  0.46016  0.31910  0.98776  1.0000
  H   H562      1.0  0.48257  0.33130  0.98987  1.0000
  H   H563      1.0  0.47410  0.29645  0.98901  1.0000
  C   C320      1.0  0.23196  0.48721  0.06897  1.0000
  C   C321      1.0  0.27548  0.48686  0.02046  1.0000
  H   H564      1.0  0.03254  0.24418  0.46594  1.0000
  S   S84       1.0  0.07865  0.31695  0.59146  1.0000
  H   H565      1.0  0.04750  0.27933  0.44897  1.0000
  H   H566      1.0  0.09829  0.45164  0.34117  1.0000
  H   H567      1.0  0.01335  0.28483  0.56256  1.0000
  S   S85       1.0  0.00666  0.38226  0.57783  1.0000
  H   H568      1.0  0.10868  0.39784  0.64934  1.0000
  Fe  Fe41      1.0  0.03941  0.34104  0.48809  1.0000
  H   H569      1.0  0.09377  0.36723  0.56323  1.0000
  H   H570      1.0  0.04491  0.42295  0.37497  1.0000
  Fe  Fe42      1.0  0.08089  0.33596  0.47864  1.0000
  S   S86       1.0  0.08024  0.36453  0.46207  1.0000
  S   S87       1.0  0.10760  0.31635  0.48247  1.0000
  Fe  Fe43      1.0  0.05688  0.37225  0.48524  1.0000
  S   S88       1.0  0.05672  0.39475  0.49806  1.0000
  Fe  Fe44      1.0  0.05815  0.35999  0.45114  1.0000
  H   H571      1.0  0.07905  0.35570  0.55861  1.0000
  S   S89       1.0  0.05923  0.34402  0.50272  1.0000
  S   S90       1.0  0.06127  0.33045  0.46538  1.0000
  Fe  Fe45      1.0  0.04754  0.37165  0.62353  1.0000
  S   S91       1.0  0.01708  0.37461  0.62634  1.0000
  H   H572      1.0  0.02848  0.44101  0.41918  1.0000
  Fe  Fe46      1.0  0.05810  0.33844  0.60592  1.0000
  S   S92       1.0  0.02865  0.33904  0.60759  1.0000
  H   H573      1.0  0.08185  0.35669  0.52358  1.0000
  Fe  Fe47      1.0  0.02503  0.36925  0.59800  1.0000
  C   C322      1.0  0.02560  0.27507  0.50768  1.0000
  C   C323      1.0  0.02307  0.42988  0.42995  1.0000
  H   H574      1.0  0.11447  0.36356  0.49249  1.0000
  S   S93       1.0  0.05512  0.36866  0.59405  1.0000
  H   H575      1.0  0.11577  0.41294  0.61929  1.0000
  C   C324      1.0  0.04224  0.39242  0.51996  1.0000
  C   C325      1.0  0.04775  0.39520  0.53456  1.0000
  C   C326      1.0  0.03674  0.39228  0.55237  1.0000
  C   C327      1.0  0.01989  0.38724  0.55546  1.0000
  C   C328      1.0  0.01398  0.38532  0.54069  1.0000
  C   C329      1.0  0.02540  0.38738  0.52302  1.0000
  H   H576      1.0  0.06067  0.39932  0.53213  1.0000
  H   H577      1.0  0.04112  0.39427  0.56363  1.0000
  H   H578      1.0  0.05854  0.28434  0.48917  1.0000
  H   H579      1.0  0.02109  0.38532  0.51172  1.0000
  H   H580      1.0  0.13006  0.25024  0.49164  1.0000
  C   C330      1.0  0.09502  0.47555  0.31959  1.0000
  H   H581      1.0  0.03203  0.28197  0.54324  1.0000
  C   C331      1.0  0.00257  0.32371  0.45827  1.0000
  C   C332      1.0  0.00404  0.42935  0.42748  1.0000
  H   H582      1.0  0.13384  0.34004  0.51487  1.0000
  H   H583      1.0  0.00280  0.25431  0.56810  1.0000
  C   C333      1.0  0.05384  0.29443  0.60696  1.0000
  C   C334      1.0  0.04593  0.27996  0.60768  1.0000
  H   H584      1.0  0.04798  0.30271  0.61720  1.0000
  H   H585      1.0  0.03382  0.27750  0.61827  1.0000
  H   H586      1.0  0.04454  0.33242  0.56875  1.0000
  C   C335      1.0  0.11835  0.26127  0.49480  1.0000
  C   C336      1.0  0.12012  0.27943  0.48800  1.0000
  C   C337      1.0  0.10493  0.29376  0.49148  1.0000
  C   C338      1.0  0.08798  0.28987  0.50220  1.0000
  C   C339      1.0  0.08645  0.27160  0.50973  1.0000
  H   H587      1.0  0.09896  0.48269  0.32807  1.0000
  H   H588      1.0  0.13320  0.28238  0.47969  1.0000
  H   H589      1.0  0.07613  0.30091  0.50483  1.0000
  H   H590      1.0  0.07346  0.26862  0.51816  1.0000
  Fe  Fe48      1.0  0.02337  0.34420  0.63581  1.0000
  H   H591      1.0  0.04597  0.35096  0.54938  1.0000
  H   H592      1.0  0.00086  0.38162  0.54301  1.0000
  S   S94       1.0  0.03454  0.37025  0.47303  1.0000
  C   C340      1.0  0.05785  0.28270  0.47562  1.0000
  H   H593      1.0  0.09124  0.41517  0.62179  1.0000
  S   S95       1.0  0.01584  0.47644  0.39009  1.0000
  H   H594      1.0  0.13982  0.32022  0.54529  1.0000
  H   H595      1.0  0.08520  0.40647  0.35843  1.0000
  H   H596      1.0  0.07537  0.46331  0.34170  1.0000
  H   H597      1.0  0.01060  0.27950  0.51340  1.0000
  H   H598      1.0  0.09658  0.42406  0.35636  1.0000
  H   H599      1.0  0.03985  0.30132  0.55770  1.0000
  C   C341      1.0  0.01173  0.32718  0.46991  1.0000
  C   C342      1.0  0.02026  0.29210  0.54922  1.0000
  Fe  Fe49      1.0  0.99911  0.46739  0.37628  1.0000
  C   C343      1.0  0.09559  0.32410  0.54276  1.0000
  C   C344      1.0  0.00399  0.30043  0.59121  1.0000
  C   C345      1.0  0.13728  0.31472  0.53466  1.0000
  C   C346      1.0  0.02833  0.27358  0.48763  1.0000
  C   C347      1.0  0.06268  0.42469  0.39122  1.0000
  C   C348      1.0  0.07180  0.41536  0.40553  1.0000
  C   C349      1.0  0.06940  0.39775  0.41515  1.0000
  C   C350      1.0  0.05836  0.38926  0.41003  1.0000
  H   H600      1.0  0.09470  0.37944  0.50233  1.0000
  C   C351      1.0  0.05167  0.41613  0.38618  1.0000
  H   H601      1.0  0.08039  0.42188  0.40946  1.0000
  H   H602      1.0  0.07615  0.39076  0.42642  1.0000
  H   H603      1.0  0.12452  0.32338  0.51119  1.0000
  H   H604      1.0  0.08736  0.26817  0.47057  1.0000
  C   C352      1.0  0.09231  0.41685  0.34825  1.0000
  H   H605      1.0  0.02103  0.34571  0.53907  1.0000
  H   H606      1.0  0.01077  0.29707  0.53957  1.0000
  H   H607      1.0  0.10454  0.40910  0.33992  1.0000
  H   H608      1.0  0.07891  0.27977  0.44977  1.0000
  C   C353      1.0  0.02201  0.33951  0.55365  1.0000
  S   S96       1.0  0.05447  0.39395  0.63239  1.0000
  C   C354      1.0  0.09935  0.41165  0.64759  1.0000
  H   H609      1.0  0.00686  0.26106  0.62251  1.0000
  H   H610      1.0  0.01437  0.28736  0.59074  1.0000
  H   H611      1.0  0.00867  0.40953  0.46208  1.0000
  H   H612      1.0  0.01374  0.35000  0.56174  1.0000
  H   H613      1.0  0.10716  0.30213  0.52693  1.0000
  S   S97       1.0  0.02309  0.45334  0.35748  1.0000
  H   H614      1.0  0.07573  0.26297  0.57171  1.0000
  Fe  Fe50      1.0  0.02049  0.48057  0.33802  1.0000
  Fe  Fe51      1.0  0.03984  0.46423  0.36979  1.0000
  H   H615      1.0  0.01609  0.42986  0.62644  1.0000
  C   C355      1.0  0.04878  0.26569  0.45861  1.0000
  H   H616      1.0  0.10153  0.31558  0.55469  1.0000
  H   H617      1.0  0.03728  0.25488  0.44218  1.0000
  C   C356      1.0  0.09117  0.36206  0.55236  1.0000
  H   H618      1.0  0.02005  0.26715  0.45780  1.0000
  H   H619      1.0  0.01957  0.26423  0.48818  1.0000
  H   H620      1.0  0.11418  0.37132  0.51242  1.0000
  H   H621      1.0  0.06079  0.25250  0.50090  1.0000
  H   H622      1.0  0.02204  0.43298  0.44340  1.0000
  H   H623      1.0  0.09581  0.34364  0.50755  1.0000
  H   H624      1.0  0.08476  0.30158  0.54136  1.0000
  S   S98       1.0  0.01682  0.32646  0.50388  1.0000
  N   N24       1.0  0.10662  0.33830  0.53188  1.0000
  H   H625      1.0  0.09950  0.43403  0.62247  1.0000
  H   H626      1.0  0.99840  0.30145  0.60583  1.0000
  H   H627      1.0  0.08135  0.33073  0.54895  1.0000
  H   H628      1.0  0.06244  0.25736  0.45291  1.0000
  N   N25       1.0  0.04810  0.26763  0.47770  1.0000
  C   C357      1.0  0.09368  0.31088  0.53212  1.0000
  H   H629      1.0  0.03348  0.41707  0.42842  1.0000
  H   H630      1.0  0.04992  0.29613  0.46921  1.0000
  S   S99       1.0  0.04265  0.25123  0.59582  1.0000
  H   H631      1.0  0.08345  0.29231  0.46350  1.0000
  C   C358      1.0  0.04231  0.33735  0.55455  1.0000
  H   H632      1.0  0.12558  0.43217  0.63639  1.0000
  C   C359      1.0  0.10160  0.25729  0.50575  1.0000
  H   H633      1.0  0.15098  0.30965  0.52608  1.0000
  H   H634      1.0  0.02177  0.28704  0.47997  1.0000
  C   C360      1.0  0.12553  0.32953  0.52221  1.0000
  C   C361      1.0  0.10567  0.36714  0.50560  1.0000
  C   C362      1.0  0.04979  0.39835  0.39532  1.0000
  H   H635      1.0  0.08767  0.37412  0.54138  1.0000
  C   C363      1.0  0.05358  0.26873  0.59482  1.0000
  C   C364      1.0  0.06953  0.27177  0.58149  1.0000
  H   H636      1.0  0.00549  0.42988  0.41261  1.0000
  C   C365      1.0  0.06948  0.29786  0.59337  1.0000
  H   H637      1.0  0.11275  0.33843  0.55754  1.0000
  S   S100      1.0  0.05336  0.34126  0.63519  1.0000
  H   H638      1.0  0.01282  0.36696  0.43602  1.0000
  C   C366      1.0  0.10867  0.34829  0.54516  1.0000
  H   H639      1.0  0.02686  0.31296  0.58413  1.0000
  H   H640      1.0  0.13093  0.30272  0.54128  1.0000
  H   H641      1.0  0.09017  0.28810  0.57097  1.0000
  S   S101      1.0  0.06533  0.44689  0.37955  1.0000
  H   H642      1.0  0.00298  0.26019  0.59496  1.0000
  C   C367      1.0  0.10172  0.41895  0.62662  1.0000
  S   S102      1.0  0.05442  0.36763  0.42210  1.0000
  H   H643      1.0  0.12011  0.35571  0.53915  1.0000
  C   C368      1.0  0.05820  0.25026  0.48830  1.0000
  C   C369      1.0  0.07760  0.28614  0.58096  1.0000
  H   H644      1.0  0.05208  0.32824  0.54565  1.0000
  N   N26       1.0  0.01448  0.32234  0.56044  1.0000
  C   C370      1.0  0.09663  0.35113  0.51754  1.0000
  H   H645      1.0  0.08678  0.31819  0.52067  1.0000
  H   H646      1.0  0.03399  0.31393  0.53644  1.0000
  H   H647      1.0  0.02338  0.33364  0.46405  1.0000
  H   H648      1.0  0.06866  0.44000  0.64419  1.0000
  C   C371      1.0  0.07797  0.28031  0.46415  1.0000
  H   H649      1.0  0.07531  0.42040  0.32976  1.0000
  C   C372      1.0  0.08842  0.45839  0.33209  1.0000
  H   H650      1.0  0.04140  0.39174  0.39122  1.0000
  C   C373      1.0  0.02792  0.30776  0.55088  1.0000
  N   N27       1.0  0.08543  0.44541  0.32236  1.0000
  H   H651      1.0  0.06575  0.43476  0.34596  1.0000
  H   H652      1.0  0.02136  0.39250  0.43973  1.0000
  C   C374      1.0  0.03374  0.25739  0.45633  1.0000
  C   C375      1.0  0.01292  0.31678  0.58091  1.0000
  H   H653      1.0  0.03228  0.28546  0.50885  1.0000
  S   S103      1.0  0.05022  0.24426  0.54636  1.0000
  H   H654      1.0  0.12077  0.43257  0.32855  1.0000
  H   H655      1.0  0.03042  0.26165  0.51640  1.0000
  C   C376      1.0  0.00575  0.42286  0.63691  1.0000
  H   H656      1.0  0.00708  0.32768  0.44352  1.0000
  C   C377      1.0  0.07878  0.42960  0.33642  1.0000
  H   H657      1.0  0.07242  0.24576  0.48028  1.0000
  H   H658      1.0  0.99798  0.46661  0.63676  1.0000
  C   C378      1.0  0.00550  0.32263  0.48902  1.0000
  H   H659      1.0  0.01410  0.39843  0.41871  1.0000
  H   H660      1.0  0.99949  0.25355  0.64667  1.0000
  H   H661      1.0  0.09630  0.45131  0.64235  1.0000
  C   C379      1.0  0.00885  0.39613  0.43389  1.0000
  H   H662      1.0  0.01298  0.40868  0.64219  1.0000
  H   H663      1.0  0.00562  0.32846  0.58781  1.0000
  H   H664      1.0  0.05767  0.46207  0.32211  1.0000
  C   C380      1.0  0.00116  0.37864  0.43916  1.0000
  C   C381      1.0  0.12316  0.42487  0.65105  1.0000
  H   H665      1.0  0.13256  0.41113  0.65109  1.0000
  H   H666      1.0  0.99757  0.33179  0.54016  1.0000
  Fe  Fe52      1.0  0.41099  0.36967  0.95590  1.0000
  S   S104      1.0  0.43786  0.35979  0.96488  1.0000
  S   S105      1.0  0.39974  0.39948  0.95575  1.0000
  C   C382      1.0  0.10329  0.45633  0.74872  1.0000
  H   H667      1.0  0.05060  0.34884  0.70649  1.0000
  C   C383      1.0  0.49141  0.33917  0.93406  1.0000
  H   H668      1.0  0.32497  0.48110  0.88208  1.0000
  H   H669      1.0  0.02855  0.40849  0.80016  1.0000
  H   H670      1.0  0.49008  0.29601  0.89907  1.0000
  H   H671      1.0  0.11900  0.47813  0.67067  1.0000
  C   C384      1.0  0.05323  0.39993  0.68304  1.0000
  Fe  Fe53      1.0  0.06563  0.41946  0.75709  1.0000
  S   S106      1.0  0.05668  0.44879  0.74380  1.0000
  S   S107      1.0  0.06713  0.41297  0.78681  1.0000
  Fe  Fe54      1.0  0.06605  0.40544  0.72320  1.0000
  S   S108      1.0  0.05691  0.43390  0.70764  1.0000
  Fe  Fe55      1.0  0.07736  0.44088  0.71884  1.0000
  Fe  Fe56      1.0  0.03742  0.43834  0.73430  1.0000
  S   S109      1.0  0.00677  0.44821  0.73939  1.0000
  S   S110      1.0  0.08790  0.41208  0.73290  1.0000
  S   S111      1.0  0.04509  0.40934  0.74907  1.0000
  H   H672      1.0  0.03261  0.37016  0.69031  1.0000
  N   N28       1.0  0.01316  0.35334  0.70727  1.0000
  H   H673      1.0  0.02659  0.44170  0.78965  1.0000
  S   S112      1.0  0.00343  0.33028  0.65865  1.0000
  Fe  Fe57      1.0  0.33389  0.47192  0.91558  1.0000
  S   S113      1.0  0.10335  0.46341  0.81189  1.0000
  C   C385      1.0  0.07303  0.37045  0.67932  1.0000
  H   H674      1.0  0.32556  0.43768  0.95282  1.0000
  C   C386      1.0  0.09098  0.44239  0.65557  1.0000
  N   N29       1.0  0.31060  0.47596  0.86435  1.0000
  C   C387      1.0  0.04794  0.33674  0.70375  1.0000
  C   C388      1.0  0.48924  0.31829  0.98524  1.0000
  C   C389      1.0  0.33132  0.44317  0.86627  1.0000
  C   C390      1.0  0.13002  0.43512  0.66142  1.0000
  H   H675      1.0  0.01894  0.41347  0.83977  1.0000
  H   H676      1.0  0.02618  0.32720  0.69985  1.0000
  C   C391      1.0  0.01927  0.36733  0.69049  1.0000
  C   C392      1.0  0.34968  0.36896  0.97529  1.0000
  H   H677      1.0  0.35308  0.43354  0.96353  1.0000
  H   H678      1.0  0.45786  0.28959  0.94533  1.0000
  C   C393      1.0  0.48751  0.35398  0.94249  1.0000
  H   H679      1.0  0.12684  0.39635  0.68066  1.0000
  H   H680      1.0  0.33939  0.47713  0.86116  1.0000
  C   C394      1.0  0.05766  0.38934  0.65495  1.0000
  H   H681      1.0  0.99794  0.34369  0.69329  1.0000
  C   C395      1.0  0.07692  0.42789  0.79283  1.0000
  C   C396      1.0  0.06643  0.44492  0.79654  1.0000
  C   C397      1.0  0.07416  0.45593  0.80280  1.0000
  C   C398      1.0  0.09248  0.45002  0.80502  1.0000
  C   C399      1.0  0.10293  0.43316  0.80103  1.0000
  C   C400      1.0  0.09511  0.42203  0.79525  1.0000
  H   H682      1.0  0.05228  0.44945  0.79496  1.0000
  C   C401      1.0  0.07047  0.44344  0.65648  1.0000
  H   H683      1.0  0.11709  0.42854  0.80269  1.0000
  H   H684      1.0  0.10320  0.40883  0.79265  1.0000
  H   H685      1.0  0.34390  0.44744  0.86621  1.0000
  C   C402      1.0  0.44801  0.27177  0.90341  1.0000
  H   H686      1.0  0.43389  0.30952  0.89195  1.0000
  H   H687      1.0  0.31098  0.42385  0.95115  1.0000
  H   H688      1.0  0.47846  0.31920  0.89562  1.0000
  S   S114      1.0  0.39097  0.31493  0.95166  1.0000
  H   H689      1.0  0.48022  0.31862  0.86234  1.0000
  H   H690      1.0  0.01916  0.43900  0.70387  1.0000
  H   H691      1.0  0.45296  0.28151  0.98470  1.0000
  C   C403      1.0  0.47971  0.30608  0.89174  1.0000
  C   C404      1.0  0.10538  0.47229  0.75571  1.0000
  C   C405      1.0  0.41765  0.25603  0.94497  1.0000
  H   H692      1.0  0.46725  0.27354  0.93075  1.0000
  H   H693      1.0  0.05594  0.32459  0.71182  1.0000
  C   C406      1.0  0.38988  0.41358  0.93752  1.0000
  C   C407      1.0  0.38506  0.43245  0.93657  1.0000
  C   C408      1.0  0.37453  0.44404  0.92414  1.0000
  H   H694      1.0  0.05398  0.33594  0.68912  1.0000
  C   C409      1.0  0.38513  0.40637  0.92517  1.0000
  H   H695      1.0  0.38893  0.43810  0.94591  1.0000
  H   H696      1.0  0.37074  0.45860  0.92364  1.0000
  H   H697      1.0  0.38889  0.39178  0.92583  1.0000
  C   C410      1.0  0.39197  0.28254  0.94356  1.0000
  H   H698      1.0  0.43453  0.34136  0.87727  1.0000
  C   C411      1.0  0.33848  0.40835  0.95619  1.0000
  Fe  Fe58      1.0  0.30455  0.47359  0.95054  1.0000
  H   H699      1.0  0.45726  0.33892  0.88029  1.0000
  H   H700      1.0  0.05512  0.47508  0.92716  1.0000
  H   H701      1.0  0.00939  0.38075  0.69049  1.0000
  H   H702      1.0  0.11903  0.46745  0.75975  1.0000
  S   S115      1.0  0.35280  0.45109  0.89955  1.0000
  C   C412      1.0  0.41840  0.28331  0.95405  1.0000
  C   C413      1.0  0.42670  0.26542  0.95150  1.0000
  H   H703      1.0  0.42543  0.29033  0.95914  1.0000
  H   H704      1.0  0.44012  0.25896  0.95449  1.0000
  H   H705      1.0  0.37856  0.28913  0.94034  1.0000
  C   C414      1.0  0.40117  0.29207  0.94976  1.0000
  Fe  Fe59      1.0  0.42470  0.33792  0.98501  1.0000
  H   H706      1.0  0.99891  0.39258  0.77878  1.0000
  Fe  Fe60      1.0  0.40840  0.33140  0.95641  1.0000
  S   S116      1.0  0.30394  0.47090  0.92281  1.0000
  H   H707      1.0  0.04070  0.41532  0.66020  1.0000
  H   H708      1.0  0.39302  0.25736  0.93624  1.0000
  H   H709      1.0  0.02115  0.43091  0.77474  1.0000
  H   H710      1.0  0.18649  0.48302  0.90238  1.0000
  C   C415      1.0  0.32539  0.42563  0.94802  1.0000
  S   S117      1.0  0.39715  0.34898  0.97741  1.0000
  S   S118      1.0  0.09978  0.45496  0.70066  1.0000
  H   H711      1.0  0.46826  0.28120  0.87985  1.0000
  C   C416      1.0  0.00168  0.42187  0.70351  1.0000
  C   C417      1.0  0.06528  0.38396  0.68980  1.0000
  H   H712      1.0  0.43429  0.28105  0.90639  1.0000
  C   C418      1.0  0.06907  0.37303  0.66202  1.0000
  H   H713      1.0  0.30451  0.41217  0.98214  1.0000
  C   C419      1.0  0.99801  0.43744  0.79815  1.0000
  N   N30       1.0  0.46139  0.30039  0.89769  1.0000
  H   H714      1.0  0.30312  0.46884  0.84264  1.0000
  C   C420      1.0  0.46452  0.28128  0.89476  1.0000
  C   C421      1.0  0.00805  0.47513  0.83662  1.0000
  C   C422      1.0  0.32517  0.48385  0.86718  1.0000
  C   C423      1.0  0.11204  0.39581  0.68404  1.0000
  H   H715      1.0  0.10007  0.42370  0.68675  1.0000
  H   H716      1.0  0.06309  0.47826  0.70115  1.0000
  H   H717      1.0  0.07681  0.47455  0.91097  1.0000
  H   H718      1.0  0.02207  0.43279  0.82101  1.0000
  H   H719      1.0  0.03519  0.35965  0.73054  1.0000
  H   H720      1.0  0.09072  0.45954  0.74327  1.0000
  H   H721      1.0  0.04033  0.41273  0.82317  1.0000
  C   C424      1.0  0.31326  0.45601  0.87381  1.0000
  H   H722      1.0  0.01658  0.37669  0.73895  1.0000
  H   H723      1.0  0.08229  0.35802  0.68450  1.0000
  H   H724      1.0  0.46599  0.26549  0.97081  1.0000
  H   H725      1.0  0.02470  0.32716  0.72322  1.0000
  C   C425      1.0  0.46524  0.28807  0.93120  1.0000
  C   C426      1.0  0.40015  0.26456  0.94123  1.0000
  H   H726      1.0  0.04671  0.41015  0.69125  1.0000
  C   C427      1.0  0.00802  0.43226  0.71165  1.0000
  C   C428      1.0  0.35230  0.42607  0.97798  1.0000
  H   H727      1.0  0.33015  0.42865  0.93283  1.0000
  S   S119      1.0  0.43477  0.31850  0.96592  1.0000
  H   H728      1.0  0.08534  0.40867  0.65332  1.0000
  H   H729      1.0  0.47389  0.36285  0.94407  1.0000
  H   H730      1.0  0.35381  0.35645  0.98560  1.0000
  H   H731      1.0  0.27449  0.47725  0.86075  1.0000
  H   H732      1.0  0.45047  0.26166  0.91615  1.0000
  H   H733      1.0  0.37014  0.41247  0.90364  1.0000
  C   C429      1.0  0.31515  0.39911  0.98352  1.0000
  H   H734      1.0  0.45196  0.31509  0.91979  1.0000
  H   H735      1.0  0.06427  0.43436  0.66893  1.0000
  H   H736      1.0  0.16376  0.47931  0.90476  1.0000
  H   H737      1.0  0.10239  0.44429  0.76024  1.0000
  C   C430      1.0  0.99718  0.43267  0.65310  1.0000
  C   C431      1.0  0.36874  0.43685  0.91259  1.0000
  C   C432      1.0  0.10444  0.48462  0.67299  1.0000
  H   H738      1.0  0.33627  0.36821  0.97334  1.0000
  H   H739      1.0  0.45188  0.31119  0.87215  1.0000
  C   C433      1.0  0.37452  0.41807  0.91266  1.0000
  H   H740      1.0  0.32290  0.42929  0.98434  1.0000
  H   H741      1.0  0.02686  0.38101  0.71525  1.0000
  H   H742      1.0  0.35282  0.41043  0.95078  1.0000
  H   H743      1.0  0.02921  0.34822  0.67156  1.0000
  C   C434      1.0  0.09939  0.41458  0.67822  1.0000
  C   C435      1.0  0.44774  0.31299  0.88661  1.0000
  H   H744      1.0  0.26627  0.48618  0.91892  1.0000
  C   C436      1.0  0.09174  0.47613  0.68706  1.0000
  H   H745      1.0  0.30204  0.45002  0.87307  1.0000
  H   H746      1.0  0.09489  0.47326  0.76879  1.0000
  S   S120      1.0  0.07107  0.38056  0.71113  1.0000
  C   C437      1.0  0.00846  0.36121  0.72424  1.0000
  H   H747      1.0  0.00853  0.43794  0.65471  1.0000
  H   H748      1.0  0.36530  0.41576  0.97928  1.0000
  C   C438      1.0  0.01551  0.44108  0.78346  1.0000
  Fe  Fe61      1.0  0.44565  0.34141  0.94502  1.0000
  S   S121      1.0  0.41983  0.35322  0.93396  1.0000
  H   H749      1.0  0.00829  0.42027  0.68965  1.0000
  S   S122      1.0  0.33497  0.47241  0.94410  1.0000
  C   C439      1.0  0.02739  0.33550  0.70900  1.0000
  H   H750      1.0  0.02916  0.37172  0.66088  1.0000
  H   H751      1.0  0.11557  0.45203  0.73803  1.0000
  H   H752      1.0  0.43937  0.29869  0.92222  1.0000
  H   H753      1.0  0.15493  0.47743  0.86810  1.0000
  C   C440      1.0  0.07296  0.48472  0.69024  1.0000
  H   H754      1.0  0.31241  0.39132  0.97482  1.0000
  C   C441      1.0  0.02146  0.36246  0.67193  1.0000
  C   C442      1.0  0.02286  0.36999  0.72701  1.0000
  H   H755      1.0  0.31250  0.45449  0.88872  1.0000
  N   N31       1.0  0.33438  0.40281  0.97684  1.0000
  H   H756      1.0  0.33795  0.39722  0.94999  1.0000
  H   H757      1.0  0.44715  0.26366  0.89399  1.0000
  H   H758      1.0  0.23514  0.47906  0.92965  1.0000
  H   H759      1.0  0.11010  0.38509  0.67825  1.0000
  C   C443      1.0  0.01801  0.40899  0.81320  1.0000
  H   H760      1.0  0.14469  0.43568  0.65492  1.0000
  C   C444      1.0  0.04963  0.40272  0.66556  1.0000
  H   H761      1.0  0.10814  0.39135  0.69922  1.0000
  H   H762      1.0  0.01854  0.39437  0.82020  1.0000
  H   H763      1.0  0.01908  0.39545  0.78360  1.0000
  H   H764      1.0  0.06603  0.46896  0.80581  1.0000
  C   C445      1.0  0.45361  0.30116  0.91764  1.0000
  H   H765      1.0  0.08502  0.41249  0.68288  1.0000
  C   C446      1.0  0.02508  0.41765  0.82494  1.0000
  S   S123      1.0  0.29212  0.45478  0.97546  1.0000
  H   H766      1.0  0.01532  0.46414  0.82948  1.0000
  C   C447      1.0  0.33505  0.41773  0.98554  1.0000
  H   H767      1.0  0.47657  0.27226  0.90035  1.0000
  S   S124      1.0  0.47397  0.33386  0.92727  1.0000
  C   C448      1.0  0.44446  0.33359  0.88615  1.0000
  H   H768      1.0  0.43811  0.33677  0.89993  1.0000
  C   C449      1.0  0.32953  0.47652  0.83065  1.0000
  H   H769      1.0  0.06564  0.48282  0.75079  1.0000
  H   H770      1.0  0.07535  0.36267  0.65388  1.0000
  C   C450      1.0  0.06156  0.47784  0.91230  1.0000
  C   C451      1.0  0.48884  0.30800  0.87111  1.0000
  H   H771      1.0  0.02806  0.47986  0.90947  1.0000
  H   H772      1.0  0.32896  0.47002  0.81976  1.0000
  H   H773      1.0  0.10613  0.48039  0.71855  1.0000
  H   H774      1.0  0.36295  0.38908  0.97658  1.0000
  H   H775      1.0  0.00389  0.41463  0.77165  1.0000
  H   H776      1.0  0.34143  0.46805  0.83656  1.0000
  C   C452      1.0  0.00457  0.40223  0.78280  1.0000
  H   H777      1.0  0.49234  0.29478  0.86675  1.0000
  H   H778      1.0  0.27420  0.46573  0.88463  1.0000
  H   H779      1.0  0.47511  0.31223  0.96747  1.0000
  H   H780      1.0  0.29210  0.48526  0.88834  1.0000
  C   C453      1.0  0.01808  0.48609  0.83989  1.0000
  H   H781      1.0  0.33199  0.42936  0.87540  1.0000
  H   H782      1.0  0.33159  0.44153  0.85242  1.0000
  H   H783      1.0  0.01197  0.45452  0.77413  1.0000
  H   H784      1.0  0.12759  0.48042  0.72238  1.0000
  H   H785      1.0  0.00566  0.35058  0.73691  1.0000
  H   H786      1.0  0.06247  0.45766  0.65693  1.0000
  H   H787      1.0  0.18081  0.48428  0.87307  1.0000
  C   C454      1.0  0.34890  0.38611  0.98219  1.0000
  H   H788      1.0  0.99999  0.45618  0.67396  1.0000
  H   H789      1.0  0.35996  0.36840  0.96204  1.0000
  H   H790      1.0  0.01681  0.47954  0.78281  1.0000
  N   N32       1.0  0.99891  0.41828  0.80981  1.0000
  C   C455      1.0  0.99942  0.43457  0.72953  1.0000
  H   H791      1.0  0.00777  0.36462  0.66865  1.0000
  C   C456      1.0  0.31050  0.47852  0.84435  1.0000
  H   H792      1.0  0.12952  0.42814  0.67602  1.0000
  C   C457      1.0  0.47390  0.31088  0.98238  1.0000
  H   H793      1.0  0.12202  0.44943  0.66068  1.0000
  H   H794      1.0  0.09108  0.44949  0.66624  1.0000
  H   H795      1.0  0.47883  0.29151  0.92901  1.0000
  H   H796      1.0  0.05876  0.46842  0.90541  1.0000
  H   H797      1.0  0.03299  0.48352  0.83530  1.0000
  C   C458      1.0  0.27498  0.47877  0.87440  1.0000
  N   N33       1.0  0.10323  0.42339  0.65806  1.0000
  S   S125      1.0  0.07198  0.48497  0.85448  1.0000
  C   C459      1.0  0.29205  0.48578  0.87387  1.0000
  C   C460      1.0  0.46069  0.26715  0.98522  1.0000
  Fe  Fe62      1.0  0.19808  0.57850  0.08845  1.0000
  S   S126      1.0  0.18645  0.56414  0.11679  1.0000
  S   S127      1.0  0.22450  0.58845  0.07713  1.0000
  Fe  Fe63      1.0  0.16879  0.57374  0.07165  1.0000
  S   S128      1.0  0.15444  0.55853  0.09847  1.0000
  Fe  Fe64      1.0  0.15857  0.57951  0.11109  1.0000
  S   S129      1.0  0.13660  0.59445  0.13141  1.0000
  Fe  Fe65      1.0  0.18318  0.54424  0.10238  1.0000
  S   S130      1.0  0.19069  0.51447  0.11514  1.0000
  S   S131      1.0  0.17065  0.59594  0.08399  1.0000
  S   S132      1.0  0.19710  0.55727  0.07437  1.0000
  H   H798      1.0  0.32420  0.70501  0.99579  1.0000
  H   H799      1.0  0.08339  0.61647  0.07386  1.0000
  C   C461      1.0  0.23676  0.63311  0.03505  1.0000
  Fe  Fe66      1.0  0.28661  0.62402  0.10717  1.0000
  S   S133      1.0  0.29986  0.60445  0.08835  1.0000
  S   S134      1.0  0.25597  0.62745  0.11935  1.0000
  Fe  Fe67      1.0  0.32326  0.63326  0.10478  1.0000
  S   S135      1.0  0.33943  0.61431  0.08568  1.0000
  S   S136      1.0  0.33955  0.64773  0.11413  1.0000
  Fe  Fe68      1.0  0.31555  0.62581  0.07179  1.0000
  S   S137      1.0  0.31906  0.63449  0.04126  1.0000
  Fe  Fe69      1.0  0.32218  0.59471  0.10414  1.0000
  S   S138      1.0  0.33167  0.56434  0.11338  1.0000
  S   S139      1.0  0.30063  0.64648  0.08928  1.0000
  S   S140      1.0  0.30784  0.61257  0.12455  1.0000
  H   H800      1.0  0.12324  0.59395  0.22596  1.0000
  H   H801      1.0  0.06717  0.60983  0.21844  1.0000
  H   H802      1.0  0.01781  0.54975  0.29104  1.0000
  S   S141      1.0  0.01739  0.62562  0.22135  1.0000
  H   H803      1.0  0.21904  0.57574  0.02014  1.0000
  H   H804      1.0  0.35732  0.63668  0.01850  1.0000
  C   C462      1.0  0.02762  0.50896  0.27711  1.0000
  H   H805      1.0  0.18361  0.51804  0.05125  1.0000
  S   S142      1.0  0.05515  0.65046  0.27083  1.0000
  C   C463      1.0  0.03859  0.65523  0.24254  1.0000
  H   H806      1.0  0.07081  0.57871  0.11983  1.0000
  S   S143      1.0  0.49345  0.68756  0.99402  1.0000
  H   H807      1.0  0.25672  0.51370  0.09233  1.0000
  C   C464      1.0  0.11684  0.61939  0.08482  1.0000
  H   H808      1.0  0.19659  0.62839  0.00736  1.0000
  H   H809      1.0  0.46597  0.72205  0.00562  1.0000
  S   S144      1.0  0.05496  0.58181  0.21180  1.0000
  H   H810      1.0  0.33315  0.51082  0.09127  1.0000
  Fe  Fe70      1.0  0.04627  0.55860  0.23388  1.0000
  S   S145      1.0  0.06240  0.54362  0.25554  1.0000
  Fe  Fe71      1.0  0.04563  0.57017  0.19339  1.0000
  S   S146      1.0  0.06264  0.56582  0.16547  1.0000
  H   H811      1.0  0.18646  0.48870  0.04585  1.0000
  C   C465      1.0  0.15789  0.57109  0.03107  1.0000
  S   S147      1.0  0.39461  0.71240  0.09839  1.0000
  H   H812      1.0  0.03019  0.60604  0.25500  1.0000
  H   H813      1.0  0.46198  0.66391  0.09082  1.0000
  Fe  Fe72      1.0  0.38715  0.70160  0.98804  1.0000
  C   C466      1.0  0.03656  0.52263  0.26550  1.0000
  C   C467      1.0  0.07820  0.61452  0.22144  1.0000
  C   C468      1.0  0.47755  0.68850  0.06012  1.0000
  H   H814      1.0  0.12435  0.59157  0.09904  1.0000
  H   H815      1.0  0.09893  0.71283  0.30812  1.0000
  H   H816      1.0  0.25825  0.50687  0.00350  1.0000
  H   H817      1.0  0.10877  0.62808  0.07456  1.0000
  H   H818      1.0  0.36298  0.65971  0.98758  1.0000
  C   C469      1.0  0.34509  0.54097  0.00371  1.0000
  H   H819      1.0  0.08383  0.63123  0.19326  1.0000
  C   C470      1.0  0.20748  0.65143  0.00670  1.0000
  H   H820      1.0  0.12098  0.57637  0.18598  1.0000
  C   C471      1.0  0.41772  0.71439  0.14887  1.0000
  C   C472      1.0  0.41925  0.71119  0.16708  1.0000
  C   C473      1.0  0.43657  0.70407  0.17167  1.0000
  C   C474      1.0  0.45245  0.70012  0.15806  1.0000
  C   C475      1.0  0.45087  0.70291  0.13988  1.0000
  C   C476      1.0  0.43349  0.71008  0.13526  1.0000
  S   S148      1.0  0.14671  0.53668  0.99742  1.0000
  H   H821      1.0  0.43769  0.70183  0.18576  1.0000
  H   H822      1.0  0.46294  0.69942  0.12940  1.0000
  H   H823      1.0  0.43233  0.71226  0.12121  1.0000
  H   H824      1.0  0.06141  0.59579  0.10152  1.0000
  H   H825      1.0  0.48071  0.70882  0.07294  1.0000
  H   H826      1.0  0.11786  0.59428  0.05238  1.0000
  H   H827      1.0  0.27510  0.57815  0.09240  1.0000
  H   H828      1.0  0.19528  0.60125  0.02886  1.0000
  H   H829      1.0  0.31441  0.71329  0.09391  1.0000
  H   H830      1.0  0.20715  0.56976  0.98622  1.0000
  C   C477      1.0  0.05160  0.52609  0.26975  1.0000
  C   C478      1.0  0.05754  0.51595  0.28576  1.0000
  Fe  Fe73      1.0  0.29158  0.49027  0.05403  1.0000
  H   H831      1.0  0.06911  0.51866  0.28914  1.0000
  Fe  Fe74      1.0  0.01092  0.56261  0.22196  1.0000
  H   H832      1.0  0.29847  0.58128  0.03846  1.0000
  H   H833      1.0  0.02614  0.65931  0.21964  1.0000
  C   C479      1.0  0.24629  0.50865  0.10357  1.0000
  H   H834      1.0  0.37556  0.50878  0.07139  1.0000
  H   H835      1.0  0.09009  0.59284  0.19837  1.0000
  C   C480      1.0  0.26765  0.49363  0.00504  1.0000
  S   S149      1.0  0.34022  0.52165  0.05183  1.0000
  S   S150      1.0  0.01727  0.57386  0.24271  1.0000
  H   H836      1.0  0.07840  0.57159  0.26356  1.0000
  H   H837      1.0  0.17496  0.64105  0.03164  1.0000
  H   H838      1.0  0.17445  0.52463  0.07254  1.0000
  C   C481      1.0  0.07416  0.67817  0.28815  1.0000
  H   H839      1.0  0.37340  0.60100  0.03389  1.0000
  H   H840      1.0  0.05231  0.49553  0.31036  1.0000
  H   H841      1.0  0.33113  0.72993  0.04131  1.0000
  C   C482      1.0  0.04362  0.64319  0.25827  1.0000
  H   H842      1.0  0.07205  0.61802  0.23507  1.0000
  H   H843      1.0  0.30950  0.68879  0.00192  1.0000
  C   C483      1.0  0.30467  0.54437  0.01819  1.0000
  C   C484      1.0  0.21395  0.50803  0.11690  1.0000
  C   C485      1.0  0.04032  0.62545  0.26298  1.0000
  Fe  Fe75      1.0  0.02526  0.59613  0.21910  1.0000
  H   H844      1.0  0.35732  0.71513  0.15992  1.0000
  H   H845      1.0  0.04441  0.61596  0.27497  1.0000
  C   C486      1.0  0.34112  0.67025  0.10269  1.0000
  C   C487      1.0  0.35845  0.67479  0.09766  1.0000
  C   C488      1.0  0.35993  0.69308  0.09120  1.0000
  C   C489      1.0  0.34412  0.70707  0.09018  1.0000
  C   C490      1.0  0.32676  0.70254  0.09463  1.0000
  C   C491      1.0  0.32527  0.68411  0.10074  1.0000
  H   H846      1.0  0.37077  0.66412  0.09905  1.0000
  H   H847      1.0  0.37335  0.69632  0.08717  1.0000
  C   C492      1.0  0.33629  0.71760  0.13628  1.0000
  H   H848      1.0  0.31180  0.68071  0.10487  1.0000
  C   C493      1.0  0.33783  0.53361  0.06884  1.0000
  C   C494      1.0  0.33936  0.55192  0.06391  1.0000
  C   C495      1.0  0.33728  0.56154  0.07755  1.0000
  C   C496      1.0  0.33435  0.55264  0.09608  1.0000
  C   C497      1.0  0.33315  0.53426  0.10095  1.0000
  C   C498      1.0  0.33448  0.52488  0.08738  1.0000
  H   H849      1.0  0.34177  0.55876  0.04959  1.0000
  H   H850      1.0  0.33815  0.57577  0.07375  1.0000
  H   H851      1.0  0.33081  0.52739  0.11526  1.0000
  H   H852      1.0  0.44656  0.67347  0.06587  1.0000
  H   H853      1.0  0.38340  0.68715  0.05515  1.0000
  C   C499      1.0  0.30745  0.62316  0.03284  1.0000
  C   C500      1.0  0.30681  0.60480  0.04050  1.0000
  H   H854      1.0  0.17348  0.61851  0.04553  1.0000
  H   H855      1.0  0.31303  0.59754  0.05207  1.0000
  H   H856      1.0  0.22850  0.53042  0.02691  1.0000
  H   H857      1.0  0.36923  0.69916  0.17674  1.0000
  C   C501      1.0  0.11698  0.58519  0.14272  1.0000
  C   C502      1.0  0.10214  0.59504  0.15390  1.0000
  C   C503      1.0  0.08566  0.58873  0.16171  1.0000
  C   C504      1.0  0.08388  0.57270  0.15810  1.0000
  C   C505      1.0  0.09885  0.56269  0.14723  1.0000
  C   C506      1.0  0.11547  0.56875  0.13983  1.0000
  H   H858      1.0  0.10321  0.60781  0.15612  1.0000
  H   H859      1.0  0.07405  0.59665  0.16986  1.0000
  H   H860      1.0  0.09757  0.55022  0.14451  1.0000
  H   H861      1.0  0.12695  0.56084  0.13164  1.0000
  C   C507      1.0  0.23127  0.60123  0.08859  1.0000
  C   C508      1.0  0.24694  0.60850  0.07979  1.0000
  C   C509      1.0  0.25370  0.61769  0.08883  1.0000
  C   C510      1.0  0.24526  0.61913  0.10696  1.0000
  C   C511      1.0  0.22905  0.61258  0.11556  1.0000
  C   C512      1.0  0.22204  0.60359  0.10636  1.0000
  H   H862      1.0  0.25411  0.60676  0.06602  1.0000
  H   H863      1.0  0.26556  0.62358  0.08175  1.0000
  H   H864      1.0  0.22237  0.61381  0.12956  1.0000
  H   H865      1.0  0.20987  0.59805  0.11319  1.0000
  H   H866      1.0  0.07918  0.66361  0.28721  1.0000
  H   H867      1.0  0.16975  0.63721  0.05615  1.0000
  H   H868      1.0  0.11645  0.61592  0.21332  1.0000
  H   H869      1.0  0.38745  0.73428  0.01059  1.0000
  C   C513      1.0  0.22758  0.51491  0.10266  1.0000
  H   H870      1.0  0.01160  0.52424  0.31394  1.0000
  S   S151      1.0  0.47403  0.69209  0.16421  1.0000
  H   H871      1.0  0.22379  0.52472  0.09072  1.0000
  C   C514      1.0  0.10700  0.61267  0.24286  1.0000
  C   C515      1.0  0.06870  0.59336  0.11272  1.0000
  C   C516      1.0  0.34653  0.63118  0.99024  1.0000
  H   H872      1.0  0.30807  0.55801  0.01532  1.0000
  S   S152      1.0  0.03953  0.54544  0.21497  1.0000
  C   C517      1.0  0.47650  0.65758  0.09173  1.0000
  C   C518      1.0  0.36879  0.63287  0.00681  1.0000
  C   C519      1.0  0.33413  0.52716  0.00351  1.0000
  H   H873      1.0  0.14984  0.52920  0.03483  1.0000
  N   N34       1.0  0.48614  0.66961  0.05631  1.0000
  C   C520      1.0  0.30006  0.63221  0.01737  1.0000
  C   C521      1.0  0.20903  0.63058  0.01045  1.0000
  S   S153      1.0  0.27070  0.50042  0.03643  1.0000
  C   C522      1.0  0.21903  0.49535  0.13231  1.0000
  H   H874      1.0  0.45634  0.64905  0.07096  1.0000
  H   H875      1.0  0.20406  0.51405  0.07679  1.0000
  Fe  Fe76      1.0  0.41427  0.72581  0.07487  1.0000
  H   H876      1.0  0.10951  0.56651  0.06546  1.0000
  H   H877      1.0  0.25201  0.63040  0.03345  1.0000
  H   H878      1.0  0.35924  0.53339  0.00541  1.0000
  C   C523      1.0  0.30569  0.51918  0.00378  1.0000
  H   H879      1.0  0.09704  0.65020  0.31834  1.0000
  H   H880      1.0  0.25334  0.56589  0.98919  1.0000
  H   H881      1.0  0.09747  0.60192  0.04365  1.0000
  H   H882      1.0  0.08050  0.59456  0.26039  1.0000
  H   H883      1.0  0.36531  0.49015  0.07414  1.0000
  H   H884      1.0  0.33853  0.69260  0.12840  1.0000
  S   S154      1.0  0.27470  0.48888  0.12075  1.0000
  S   S155      1.0  0.03297  0.61815  0.31501  1.0000
  H   H885      1.0  0.39276  0.61019  0.98789  1.0000
  H   H886      1.0  0.37637  0.65862  0.00336  1.0000
  H   H887      1.0  0.22049  0.62562  0.99944  1.0000
  H   H888      1.0  0.24184  0.61481  0.01703  1.0000
  C   C524      1.0  0.35827  0.60464  0.01236  1.0000
  N   N35       1.0  0.00888  0.57098  0.30719  1.0000
  C   C525      1.0  0.29222  0.62289  0.00944  1.0000
  H   H889      1.0  0.45773  0.68096  0.99707  1.0000
  H   H890      1.0  0.30609  0.49767  0.99056  1.0000
  C   C526      1.0  0.07984  0.68262  0.30371  1.0000
  H   H891      1.0  0.20078  0.61780  0.05799  1.0000
  H   H892      1.0  0.40705  0.71444  0.17764  1.0000
  C   C527      1.0  0.48357  0.72994  0.01757  1.0000
  H   H893      1.0  0.08563  0.57428  0.22961  1.0000
  H   H894      1.0  0.20978  0.50780  0.03356  1.0000
  H   H895      1.0  0.21028  0.53288  0.04673  1.0000
  N   N36       1.0  0.35290  0.68485  0.15051  1.0000
  C   C528      1.0  0.35296  0.66518  0.15134  1.0000
  C   C529      1.0  0.37130  0.68833  0.13881  1.0000
  H   H896      1.0  0.13108  0.63479  0.30814  1.0000
  C   C530      1.0  0.34964  0.68752  0.16984  1.0000
  C   C531      1.0  0.33438  0.65927  0.16024  1.0000
  C   C532      1.0  0.38854  0.67596  0.14571  1.0000
  H   H897      1.0  0.47648  0.64378  0.10074  1.0000
  C   C533      1.0  0.35593  0.70390  0.17212  1.0000
  H   H898      1.0  0.35738  0.66216  0.13729  1.0000
  H   H899      1.0  0.36319  0.65555  0.15914  1.0000
  H   H900      1.0  0.37246  0.70257  0.13711  1.0000
  H   H901      1.0  0.37279  0.68667  0.12460  1.0000
  C   C534      1.0  0.33752  0.69682  0.14129  1.0000
  H   H902      1.0  0.34209  0.52060  0.99175  1.0000
  H   H903      1.0  0.33471  0.68885  0.17667  1.0000
  H   H904      1.0  0.35706  0.67514  0.17827  1.0000
  H   H905      1.0  0.32433  0.66535  0.15118  1.0000
  H   H906      1.0  0.33678  0.64420  0.16196  1.0000
  H   H907      1.0  0.32826  0.66259  0.17399  1.0000
  H   H908      1.0  0.39119  0.66190  0.14342  1.0000
  H   H909      1.0  0.40088  0.68159  0.13772  1.0000
  H   H910      1.0  0.38751  0.67545  0.16037  1.0000
  S   S156      1.0  0.07312  0.62557  0.31557  1.0000
  H   H911      1.0  0.48088  0.70124  0.19765  1.0000
  S   S157      1.0  0.39598  0.72413  0.14347  1.0000
  C   C535      1.0  0.37401  0.65070  0.99458  1.0000
  H   H912      1.0  0.01913  0.58073  0.27819  1.0000
  H   H913      1.0  0.49284  0.71610  0.01840  1.0000
  H   H914      1.0  0.10932  0.60118  0.25474  1.0000
  H   H915      1.0  0.09298  0.62130  0.24623  1.0000
  H   H916      1.0  0.11644  0.62184  0.24099  1.0000
  H   H917      1.0  0.12352  0.69026  0.28892  1.0000
  H   H918      1.0  0.12999  0.66595  0.27216  1.0000
  H   H919      1.0  0.48019  0.65134  0.04298  1.0000
  C   C536      1.0  0.07770  0.58503  0.25374  1.0000
  S   S158      1.0  0.29251  0.51027  0.06942  1.0000
  H   H920      1.0  0.34906  0.72146  0.12707  1.0000
  H   H921      1.0  0.10669  0.61822  0.04824  1.0000
  H   H922      1.0  0.33274  0.68326  0.98940  1.0000
  C   C537      1.0  0.15543  0.55329  0.03903  1.0000
  H   H923      1.0  0.05941  0.60108  0.12320  1.0000
  H   H924      1.0  0.28562  0.52718  0.11356  1.0000
  H   H925      1.0  0.17197  0.50301  0.07042  1.0000
  C   C538      1.0  0.11100  0.60553  0.22511  1.0000
  H   H926      1.0  0.20149  0.65753  0.01893  1.0000
  H   H927      1.0  0.03174  0.53047  0.25328  1.0000
  H   H928      1.0  0.19535  0.49424  0.08644  1.0000
  H   H929      1.0  0.22110  0.65496  0.99996  1.0000
  C   C539      1.0  0.09150  0.58245  0.23545  1.0000
  H   H930      1.0  0.10451  0.57318  0.23895  1.0000
  H   H931      1.0  0.23262  0.64646  0.02602  1.0000
  N   N37       1.0  0.09554  0.59954  0.22154  1.0000
  H   H932      1.0  0.48412  0.73115  0.98949  1.0000
  C   C540      1.0  0.37273  0.59349  0.02386  1.0000
  H   H933      1.0  0.13063  0.57943  0.20305  1.0000
  C   C541      1.0  0.08038  0.63271  0.20773  1.0000
  H   H934      1.0  0.34815  0.66173  0.06555  1.0000
  C   C542      1.0  0.10183  0.59502  0.20267  1.0000
  H   H935      1.0  0.38102  0.62548  0.01285  1.0000
  C   C543      1.0  0.11772  0.57800  0.20044  1.0000
  C   C544      1.0  0.08714  0.59978  0.10592  1.0000
  H   H936      1.0  0.06692  0.64274  0.20957  1.0000
  S   S159      1.0  0.34579  0.73018  0.08439  1.0000
  H   H937      1.0  0.13102  0.62208  0.08019  1.0000
  H   H938      1.0  0.99895  0.64717  0.31060  1.0000
  H   H939      1.0  0.06333  0.58968  0.25165  1.0000
  C   C545      1.0  0.10341  0.57291  0.09281  1.0000
  H   H940      1.0  0.25594  0.58137  0.12071  1.0000
  H   H941      1.0  0.10668  0.60657  0.19208  1.0000
  S   S160      1.0  0.16082  0.58507  0.04411  1.0000
  H   H942      1.0  0.28816  0.57945  0.12327  1.0000
  C   C546      1.0  0.34682  0.67175  0.05243  1.0000
  H   H943      1.0  0.35268  0.68327  0.05234  1.0000
  H   H944      1.0  0.35526  0.66474  0.04117  1.0000
  H   H945      1.0  0.22712  0.54539  0.11885  1.0000
  H   H946      1.0  0.29055  0.52346  0.00480  1.0000
  H   H947      1.0  0.36837  0.58068  0.03211  1.0000
  C   C547      1.0  0.29161  0.60453  0.01704  1.0000
  C   C548      1.0  0.23766  0.48982  0.13362  1.0000
  C   C549      1.0  0.04806  0.50283  0.29778  1.0000
  H   H948      1.0  0.11381  0.56520  0.20919  1.0000
  H   H949      1.0  0.28497  0.51803  0.14863  1.0000
  C   C550      1.0  0.20926  0.60053  0.03081  1.0000
  C   C551      1.0  0.03240  0.61978  0.25166  1.0000
  Fe  Fe77      1.0  0.39667  0.73236  0.11331  1.0000
  H   H950      1.0  0.28667  0.55970  0.14200  1.0000
  H   H951      1.0  0.07193  0.67582  0.31691  1.0000
  C   C552      1.0  0.19885  0.62717  0.04465  1.0000
  C   C553      1.0  0.32621  0.67795  0.05154  1.0000
  H   H952      1.0  0.31846  0.68378  0.06383  1.0000
  H   H953      1.0  0.32127  0.66525  0.05367  1.0000
  H   H954      1.0  0.28792  0.67457  0.05432  1.0000
  H   H955      1.0  0.29871  0.67078  0.03152  1.0000
  H   H956      1.0  0.37356  0.49605  0.13171  1.0000
  N   N38       1.0  0.10013  0.59350  0.08911  1.0000
  C   C554      1.0  0.27862  0.57223  0.13451  1.0000
  C   C555      1.0  0.29100  0.68135  0.03956  1.0000
  H   H957      1.0  0.32948  0.66697  0.02203  1.0000
  H   H958      1.0  0.11083  0.62357  0.09823  1.0000
  H   H959      1.0  0.09067  0.63875  0.21022  1.0000
  H   H960      1.0  0.29499  0.70315  0.04855  1.0000
  S   S161      1.0  0.38364  0.68887  0.01791  1.0000
  C   C556      1.0  0.26360  0.56811  0.12755  1.0000
  H   H961      1.0  0.25335  0.56346  0.13994  1.0000
  H   H962      1.0  0.27182  0.58157  0.14421  1.0000
  N   N39       1.0  0.32201  0.69094  0.03410  1.0000
  C   C557      1.0  0.33090  0.68139  0.01824  1.0000
  C   C558      1.0  0.30128  0.69676  0.03639  1.0000
  H   H963      1.0  0.34613  0.68039  0.01449  1.0000
  H   H964      1.0  0.28689  0.62991  0.99729  1.0000
  H   H965      1.0  0.27782  0.68714  0.03478  1.0000
  H   H966      1.0  0.09404  0.59533  0.11772  1.0000
  H   H967      1.0  0.22321  0.53453  0.99037  1.0000
  H   H968      1.0  0.29717  0.70780  0.02474  1.0000
  N   N40       1.0  0.21514  0.49310  0.06056  1.0000
  H   H969      1.0  0.44630  0.65939  0.05140  1.0000
  C   C559      1.0  0.02729  0.63199  0.23598  1.0000
  C   C560      1.0  0.28237  0.56389  0.09755  1.0000
  H   H970      1.0  0.29531  0.56506  0.10041  1.0000
  H   H971      1.0  0.24966  0.56338  0.09834  1.0000
  H   H972      1.0  0.23930  0.53942  0.13680  1.0000
  C   C561      1.0  0.29879  0.59552  0.03266  1.0000
  H   H973      1.0  0.15559  0.54778  0.05337  1.0000
  C   C562      1.0  0.24658  0.55577  0.98747  1.0000
  H   H974      1.0  0.15370  0.57341  0.98764  1.0000
  C   C563      1.0  0.39573  0.69160  0.04660  1.0000
  S   S162      1.0  0.28268  0.59260  0.00659  1.0000
  N   N41       1.0  0.27040  0.55494  0.11475  1.0000
  H   H975      1.0  0.05666  0.55978  0.30530  1.0000
  H   H976      1.0  0.29780  0.56172  0.06988  1.0000
  C   C564      1.0  0.39970  0.69290  0.02766  1.0000
  C   C565      1.0  0.40725  0.69680  0.05445  1.0000
  C   C566      1.0  0.32975  0.70774  0.03015  1.0000
  C   C567      1.0  0.22038  0.50485  0.04174  1.0000
  C   C568      1.0  0.32429  0.71818  0.04582  1.0000
  C   C569      1.0  0.32375  0.69034  0.00045  1.0000
  H   H977      1.0  0.33214  0.72354  0.14867  1.0000
  H   H978      1.0  0.40396  0.69598  0.06901  1.0000
  H   H979      1.0  0.47396  0.69814  0.04746  1.0000
  C   C570      1.0  0.47331  0.73340  0.00212  1.0000
  H   H980      1.0  0.27922  0.53438  0.03178  1.0000
  H   H981      1.0  0.12432  0.68773  0.25753  1.0000
  C   C571      1.0  0.25432  0.55181  0.10932  1.0000
  C   C572      1.0  0.23665  0.54980  0.12437  1.0000
  H   H982      1.0  0.22915  0.56314  0.12812  1.0000
  H   H983      1.0  0.26519  0.53573  0.15140  1.0000
  H   H984      1.0  0.33132  0.60988  0.99335  1.0000
  C   C573      1.0  0.41590  0.69826  0.01673  1.0000
  C   C574      1.0  0.42291  0.70306  0.04350  1.0000
  H   H985      1.0  0.41918  0.69895  0.00213  1.0000
  H   H986      1.0  0.34513  0.70430  0.02635  1.0000
  H   H987      1.0  0.10918  0.56667  0.10536  1.0000
  H   H988      1.0  0.23394  0.52297  0.04896  1.0000
  H   H989      1.0  0.26519  0.51773  0.14078  1.0000
  C   C575      1.0  0.28205  0.53704  0.12273  1.0000
  C   C576      1.0  0.28850  0.55421  0.08122  1.0000
  C   C577      1.0  0.27359  0.52673  0.14188  1.0000
  H   H990      1.0  0.32834  0.50210  0.98676  1.0000
  H   H991      1.0  0.25867  0.53948  0.10323  1.0000
  H   H992      1.0  0.29580  0.53868  0.12319  1.0000
  C   C578      1.0  0.22303  0.58906  0.01730  1.0000
  H   H993      1.0  0.08332  0.61498  0.10354  1.0000
  H   H994      1.0  0.27663  0.55427  0.07570  1.0000
  H   H995      1.0  0.04601  0.56662  0.28602  1.0000
  H   H996      1.0  0.38683  0.49675  0.09890  1.0000
  H   H997      1.0  0.30989  0.53644  0.03076  1.0000
  S   S163      1.0  0.43526  0.71246  0.05316  1.0000
  C   C579      1.0  0.42769  0.70308  0.02471  1.0000
  H   H998      1.0  0.44000  0.70751  0.01621  1.0000
  H   H999      1.0  0.19270  0.55357  0.99515  1.0000
  H   H1000     1.0  0.29648  0.54004  0.08480  1.0000
  H   H1001     1.0  0.19796  0.65841  0.99720  1.0000
  H   H1002     1.0  0.36287  0.49727  0.10433  1.0000
  H   H1003     1.0  0.32545  0.71776  0.01798  1.0000
  H   H1004     1.0  0.08082  0.59480  0.07288  1.0000
  C   C580      1.0  0.15148  0.55002  0.00995  1.0000
  C   C581      1.0  0.45470  0.66150  0.05991  1.0000
  C   C582      1.0  0.22342  0.52376  0.04137  1.0000
  C   C583      1.0  0.10662  0.65696  0.30650  1.0000
  C   C584      1.0  0.11854  0.67800  0.26976  1.0000
  C   C585      1.0  0.19952  0.50343  0.07302  1.0000
  H   H1005     1.0  0.23055  0.63385  0.04965  1.0000
  H   H1006     1.0  0.02897  0.58154  0.31379  1.0000
  C   C586      1.0  0.25136  0.49628  0.11916  1.0000
  C   C587      1.0  0.09125  0.60228  0.07280  1.0000
  C   C588      1.0  0.11815  0.59882  0.08691  1.0000
  H   H1007     1.0  0.11860  0.54843  0.08247  1.0000
  C   C589      1.0  0.15210  0.54284  0.02853  1.0000
  H   H1008     1.0  0.27638  0.55351  0.01264  1.0000
  N   N42       1.0  0.31414  0.53499  0.00223  1.0000
  H   H1009     1.0  0.04111  0.66891  0.23879  1.0000
  Fe  Fe78      1.0  0.37241  0.73485  0.08756  1.0000
  H   H1010     1.0  0.10272  0.70130  0.28152  1.0000
  C   C590      1.0  0.48957  0.69702  0.06691  1.0000
  H   H1011     1.0  0.05881  0.68095  0.29090  1.0000
  H   H1012     1.0  0.23580  0.49911  0.07106  1.0000
  H   H1013     1.0  0.30718  0.50909  0.01680  1.0000
  C   C591      1.0  0.11113  0.68750  0.28632  1.0000
  Fe  Fe79      1.0  0.04962  0.63948  0.30137  1.0000
  N   N43       1.0  0.21228  0.61940  0.02891  1.0000
  H   H1014     1.0  0.07425  0.69756  0.30269  1.0000
  C   C592      1.0  0.11613  0.56350  0.07729  1.0000
  H   H1015     1.0  0.32519  0.72421  0.12846  1.0000
  S   S164      1.0  0.01627  0.58646  0.19874  1.0000
  H   H1016     1.0  0.23743  0.58596  0.01916  1.0000
  H   H1017     1.0  0.30919  0.72380  0.04948  1.0000
  H   H1018     1.0  0.12880  0.59448  0.07510  1.0000
  C   C593      1.0  0.04441  0.55940  0.30061  1.0000
  H   H1019     1.0  0.20975  0.59223  0.04494  1.0000
  C   C594      1.0  0.17817  0.63112  0.04422  1.0000
  H   H1020     1.0  0.27828  0.55679  0.03391  1.0000
  H   H1021     1.0  0.47474  0.72862  0.13508  1.0000
  H   H1022     1.0  0.38667  0.58953  0.01519  1.0000
  H   H1023     1.0  0.34530  0.60907  0.02226  1.0000
  H   H1024     1.0  0.12989  0.56697  0.07262  1.0000
  H   H1025     1.0  0.34570  0.71004  0.18327  1.0000
  C   C595      1.0  0.49026  0.65543  0.07321  1.0000
  H   H1026     1.0  0.20141  0.64014  0.04564  1.0000
  Fe  Fe80      1.0  0.32316  0.50030  0.06232  1.0000
  N   N44       1.0  0.10024  0.67750  0.30367  1.0000
  H   H1027     1.0  0.01328  0.59772  0.29119  1.0000
  C   C596      1.0  0.10435  0.60409  0.05349  1.0000
  H   H1028     1.0  0.33888  0.54796  0.01541  1.0000
  H   H1029     1.0  0.47391  0.72993  0.03110  1.0000
  H   H1030     1.0  0.10610  0.65185  0.29465  1.0000
  C   C597      1.0  0.28342  0.54735  0.02419  1.0000
  H   H1031     1.0  0.15914  0.59207  0.00625  1.0000
  C   C598      1.0  0.15731  0.57827  0.01250  1.0000
  H   H1032     1.0  0.23626  0.60488  0.04060  1.0000
  H   H1033     1.0  0.30060  0.64637  0.01131  1.0000
  C   C599      1.0  0.23205  0.61726  0.03015  1.0000
  C   C600      1.0  0.03013  0.64979  0.23168  1.0000
  C   C601      1.0  0.47358  0.66440  0.04764  1.0000
  C   C602      1.0  0.15424  0.56773  0.00192  1.0000
  H   H1034     1.0  0.09021  0.56843  0.09567  1.0000
  H   H1035     1.0  0.23358  0.55610  0.99812  1.0000
  H   H1036     1.0  0.33512  0.51616  0.01611  1.0000
  H   H1037     1.0  0.10778  0.67367  0.26607  1.0000
  H   H1038     1.0  0.07847  0.68726  0.27477  1.0000
  H   H1039     1.0  0.22250  0.59568  0.00278  1.0000
  C   C603      1.0  0.18146  0.51256  0.06623  1.0000
  H   H1040     1.0  0.32928  0.70962  0.05813  1.0000
  H   H1041     1.0  0.47090  0.67492  0.03506  1.0000
  H   H1042     1.0  0.04474  0.54483  0.30188  1.0000
  C   C604      1.0  0.31349  0.50879  0.98793  1.0000
  H   H1043     1.0  0.33552  0.63698  0.00116  1.0000
  H   H1044     1.0  0.35525  0.59463  0.00631  1.0000
  H   H1045     1.0  0.32374  0.69500  0.15003  1.0000
  H   H1046     1.0  0.48136  0.66504  0.09920  1.0000
  H   H1047     1.0  0.46424  0.68896  0.07031  1.0000
  C   C605      1.0  0.00716  0.55370  0.30319  1.0000
  N   N45       1.0  0.36352  0.62080  0.99768  1.0000
  C   C606      1.0  0.12624  0.64906  0.31028  1.0000
  H   H1048     1.0  0.13640  0.65709  0.30117  1.0000
  C   C607      1.0  0.03320  0.49918  0.29338  1.0000
  C   C608      1.0  0.00879  0.58576  0.28994  1.0000
  H   H1049     1.0  0.25582  0.54209  0.99020  1.0000
  H   H1050     1.0  0.23316  0.49740  0.03359  1.0000
  H   H1051     1.0  0.34666  0.55122  0.99060  1.0000
  H   H1052     1.0  0.49643  0.68720  0.07761  1.0000
  H   H1053     1.0  0.01612  0.50632  0.27360  1.0000
  H   H1054     1.0  0.20853  0.48998  0.14334  1.0000
  H   H1055     1.0  0.49148  0.64145  0.07128  1.0000
  H   H1056     1.0  0.38338  0.73407  0.03468  1.0000
  C   C609      1.0  0.02674  0.56828  0.31298  1.0000
  H   H1057     1.0  0.49361  0.69536  0.21529  1.0000
  C   C610      1.0  0.49504  0.69826  0.20021  1.0000
  C   C611      1.0  0.37660  0.48980  0.09766  1.0000
  C   C612      1.0  0.37706  0.49381  0.07691  1.0000
  H   H1058     1.0  0.05363  0.64613  0.50819  1.0000
  C   C613      1.0  0.02577  0.69894  0.49504  1.0000
  C   C614      1.0  0.05069  0.61526  0.61951  1.0000
  C   C615      1.0  0.02333  0.54238  0.36458  1.0000
  H   H1059     1.0  0.02689  0.55870  0.61457  1.0000
  Fe  Fe81      1.0  0.04955  0.73206  0.39832  1.0000
  H   H1060     1.0  0.00765  0.72197  0.41547  1.0000
  H   H1061     1.0  0.04975  0.66539  0.44529  1.0000
  H   H1062     1.0  0.00643  0.61337  0.63123  1.0000
  N   N46       1.0  0.00562  0.55193  0.63864  1.0000
  H   H1063     1.0  0.09642  0.67462  0.33308  1.0000
  S   S165      1.0  0.06749  0.57536  0.33507  1.0000
  H   H1064     1.0  0.01213  0.69523  0.49855  1.0000
  Fe  Fe82      1.0  0.07766  0.68960  0.54154  1.0000
  C   C616      1.0  0.08508  0.70185  0.49264  1.0000
  C   C617      1.0  0.02745  0.66318  0.48805  1.0000
  Fe  Fe83      1.0  0.05398  0.66783  0.57302  1.0000
  S   S166      1.0  0.03385  0.69288  0.58067  1.0000
  S   S167      1.0  0.04966  0.63945  0.58664  1.0000
  C   C618      1.0  0.00915  0.66788  0.41067  1.0000
  Fe  Fe84      1.0  0.05535  0.60542  0.33074  1.0000
  H   H1065     1.0  0.03844  0.67530  0.51283  1.0000
  H   H1066     1.0  0.01116  0.57797  0.62239  1.0000
  S   S168      1.0  0.05437  0.67709  0.54290  1.0000
  S   S169      1.0  0.07894  0.67823  0.57112  1.0000
  S   S170      1.0  0.05153  0.70634  0.41999  1.0000
  C   C619      1.0  0.06568  0.69565  0.37439  1.0000
  Fe  Fe85      1.0  0.06972  0.71815  0.42964  1.0000
  S   S171      1.0  0.09521  0.69979  0.43866  1.0000
  C   C620      1.0  0.09750  0.69735  0.46126  1.0000
  C   C621      1.0  0.11381  0.68647  0.46637  1.0000
  C   C622      1.0  0.11583  0.68340  0.48445  1.0000
  H   H1067     1.0  0.08958  0.72878  0.51101  1.0000
  H   H1068     1.0  0.03477  0.50831  0.64750  1.0000
  C   C623      1.0  0.05276  0.67739  0.46662  1.0000
  H   H1069     1.0  0.12491  0.68033  0.45633  1.0000
  H   H1070     1.0  0.12849  0.67494  0.48828  1.0000
  H   H1071     1.0  0.04171  0.68847  0.46128  1.0000
  Fe  Fe86      1.0  0.02078  0.63505  0.33651  1.0000
  H   H1072     1.0  0.08508  0.66142  0.47825  1.0000
  C   C624      1.0  0.05934  0.65193  0.49352  1.0000
  H   H1073     1.0  0.06917  0.53686  0.34412  1.0000
  H   H1074     1.0  0.99856  0.67805  0.60538  1.0000
  H   H1075     1.0  0.01882  0.52973  0.62419  1.0000
  C   C625      1.0  0.07104  0.67811  0.37048  1.0000
  H   H1076     1.0  0.09967  0.70627  0.33198  1.0000
  H   H1077     1.0  0.04511  0.51893  0.35950  1.0000
  C   C626      1.0  0.08324  0.70526  0.47439  1.0000
  S   S172      1.0  0.04150  0.62008  0.35370  1.0000
  Fe  Fe87      1.0  0.05714  0.64164  0.33730  1.0000
  H   H1078     1.0  0.08784  0.64218  0.49681  1.0000
  C   C627      1.0  0.04739  0.64703  0.61990  1.0000
  C   C628      1.0  0.04954  0.63355  0.61019  1.0000
  H   H1079     1.0  0.05248  0.60479  0.61201  1.0000
  C   C629      1.0  0.01910  0.64896  0.38682  1.0000
  C   C630      1.0  0.04152  0.53356  0.35804  1.0000
  H   H1080     1.0  0.04652  0.66117  0.61277  1.0000
  H   H1081     1.0  0.14200  0.71569  0.53635  1.0000
  H   H1082     1.0  0.02827  0.70710  0.48084  1.0000
  C   C631      1.0  0.05521  0.54370  0.34955  1.0000
  H   H1083     1.0  0.07393  0.70775  0.50278  1.0000
  H   H1084     1.0  0.08152  0.66789  0.37674  1.0000
  S   S173      1.0  0.07121  0.65191  0.35320  1.0000
  C   C632      1.0  0.99813  0.63960  0.59288  1.0000
  S   S174      1.0  0.03534  0.65781  0.32158  1.0000
  N   N47       1.0  0.04550  0.66836  0.48618  1.0000
  S   S175      1.0  0.00970  0.71877  0.54172  1.0000
  C   C633      1.0  0.04455  0.70486  0.35391  1.0000
  C   C634      1.0  0.10140  0.69087  0.49765  1.0000
  C   C635      1.0  0.07843  0.65542  0.49242  1.0000
  H   H1085     1.0  0.03198  0.65399  0.37963  1.0000
  C   C636      1.0  0.05076  0.56271  0.34768  1.0000
  H   H1086     1.0  0.04350  0.68398  0.34088  1.0000
  C   C637      1.0  0.12902  0.71107  0.54370  1.0000
  H   H1087     1.0  0.00912  0.64758  0.58681  1.0000
  Fe  Fe88      1.0  0.05879  0.70446  0.57577  1.0000
  Fe  Fe89      1.0  0.02831  0.72264  0.43740  1.0000
  H   H1088     1.0  0.07072  0.71378  0.47067  1.0000
  H   H1089     1.0  0.03566  0.62141  0.39277  1.0000
  C   C638      1.0  0.04718  0.62396  0.64829  1.0000
  C   C639      1.0  0.06308  0.67380  0.35844  1.0000
  S   S176      1.0  0.03962  0.49037  0.34841  1.0000
  C   C640      1.0  0.04972  0.68717  0.35021  1.0000
  H   H1090     1.0  0.06350  0.68480  0.46575  1.0000
  H   H1091     1.0  0.01442  0.64404  0.48319  1.0000
  H   H1092     1.0  0.02488  0.70798  0.50429  1.0000
  H   H1093     1.0  0.10005  0.71705  0.54363  1.0000
  H   H1094     1.0  0.04343  0.52862  0.63829  1.0000
  H   H1095     1.0  0.05081  0.59628  0.64562  1.0000
  Fe  Fe90      1.0  0.03612  0.70314  0.55042  1.0000
  C   C641      1.0  0.04972  0.61044  0.63851  1.0000
  H   H1096     1.0  0.07199  0.67063  0.44171  1.0000
  S   S177      1.0  0.00454  0.71030  0.45479  1.0000
  H   H1097     1.0  0.02894  0.57965  0.64059  1.0000
  H   H1098     1.0  0.07761  0.66418  0.50190  1.0000
  H   H1099     1.0  0.01637  0.68521  0.37484  1.0000
  H   H1100     1.0  0.02625  0.55985  0.32702  1.0000
  H   H1101     1.0  0.04669  0.56626  0.62662  1.0000
  C   C642      1.0  0.03275  0.57149  0.35497  1.0000
  H   H1102     1.0  0.01890  0.68098  0.53965  1.0000
  H   H1103     1.0  0.02127  0.72134  0.60874  1.0000
  H   H1104     1.0  0.06207  0.64053  0.48648  1.0000
  H   H1105     1.0  0.03697  0.64399  0.46902  1.0000
  C   C643      1.0  0.04169  0.68205  0.49808  1.0000
  H   H1106     1.0  0.05412  0.68750  0.49619  1.0000
  S   S178      1.0  0.10410  0.68617  0.52031  1.0000
  C   C644      1.0  0.06061  0.66520  0.45227  1.0000
  H   H1107     1.0  0.03038  0.63283  0.41111  1.0000
  H   H1108     1.0  0.06709  0.65092  0.45770  1.0000
  H   H1109     1.0  0.04410  0.65274  0.64650  1.0000
  S   S179      1.0  0.05949  0.71673  0.54597  1.0000
  H   H1110     1.0  0.99935  0.60969  0.60101  1.0000
  C   C645      1.0  0.00414  0.68514  0.54360  1.0000
  H   H1111     1.0  0.03938  0.66537  0.39974  1.0000
  C   C646      1.0  0.02720  0.67474  0.40629  1.0000
  N   N48       1.0  0.00433  0.66373  0.39486  1.0000
  C   C647      1.0  0.01905  0.56131  0.36348  1.0000
  C   C648      1.0  0.01895  0.56387  0.62722  1.0000
  C   C649      1.0  0.01412  0.53199  0.63847  1.0000
  C   C650      1.0  0.04603  0.64226  0.63897  1.0000
  S   S180      1.0  0.06109  0.71961  0.59562  1.0000
  H   H1112     1.0  0.03396  0.63306  0.49318  1.0000
  H   H1113     1.0  0.00961  0.62553  0.64614  1.0000
  S   S181      1.0  0.04646  0.73211  0.44912  1.0000
  H   H1114     1.0  0.07216  0.69888  0.38348  1.0000
  H   H1115     1.0  0.01283  0.62404  0.40660  1.0000
  Fe  Fe91      1.0  0.01389  0.50167  0.36766  1.0000
  H   H1116     1.0  0.00401  0.55919  0.60116  1.0000
  C   C651      1.0  0.05247  0.70910  0.36609  1.0000
  S   S182      1.0  0.04601  0.73128  0.37059  1.0000
  C   C652      1.0  0.00856  0.61945  0.59477  1.0000
  H   H1117     1.0  0.02926  0.58616  0.35366  1.0000
  H   H1118     1.0  0.12580  0.71174  0.55842  1.0000
  H   H1119     1.0  0.01933  0.66202  0.50254  1.0000
  H   H1120     1.0  0.01978  0.61657  0.60219  1.0000
  S   S183      1.0  0.00556  0.53025  0.37284  1.0000
  C   C653      1.0  0.11261  0.72179  0.53461  1.0000
  H   H1121     1.0  0.02995  0.67558  0.41934  1.0000
  H   H1122     1.0  0.01854  0.67411  0.47963  1.0000
  H   H1123     1.0  0.00807  0.67066  0.35482  1.0000
  H   H1124     1.0  0.03434  0.71526  0.34743  1.0000
  H   H1125     1.0  0.03606  0.55522  0.64856  1.0000
  C   C654      1.0  0.03319  0.56616  0.63661  1.0000
  H   H1126     1.0  0.02596  0.68879  0.39769  1.0000
  C   C655      1.0  0.02456  0.63092  0.40038  1.0000
  C   C656      1.0  0.02861  0.64502  0.48294  1.0000
  H   H1127     1.0  0.12607  0.64841  0.32483  1.0000
  H   H1128     1.0  0.99984  0.71734  0.60832  1.0000
  H   H1129     1.0  0.13150  0.69637  0.54335  1.0000
  H   H1130     1.0  0.11539  0.71680  0.52175  1.0000
  H   H1131     1.0  0.99789  0.67699  0.58253  1.0000
  H   H1132     1.0  0.01079  0.64665  0.61699  1.0000
  H   H1133     1.0  0.01722  0.53552  0.32776  1.0000
  H   H1134     1.0  0.01027  0.65580  0.42218  1.0000
  H   H1135     1.0  0.00342  0.59292  0.33460  1.0000
  H   H1136     1.0  0.00504  0.56818  0.36869  1.0000
  H   H1137     1.0  0.01468  0.64520  0.37610  1.0000
  H   H1138     1.0  0.07929  0.70627  0.32558  1.0000
  C   C657      1.0  0.00006  0.62518  0.63787  1.0000
  C   C658      1.0  0.00713  0.72835  0.60658  1.0000
  C   C659      1.0  0.00295  0.68095  0.38006  1.0000
  H   H1139     1.0  0.01558  0.61694  0.58080  1.0000
  H   H1140     1.0  0.01550  0.73148  0.57713  1.0000
  H   H1141     1.0  0.04037  0.73706  0.50330  1.0000
  H   H1142     1.0  0.99781  0.67840  0.41659  1.0000
  H   H1143     1.0  0.00358  0.52360  0.64556  1.0000
  H   H1144     1.0  0.99979  0.65838  0.54580  1.0000
  C   C660      1.0  0.03120  0.52327  0.64697  1.0000
  C   C661      1.0  0.00720  0.53691  0.31938  1.0000
  C   C662      1.0  0.10263  0.68307  0.31998  1.0000
  H   H1145     1.0  0.11755  0.68045  0.32013  1.0000
  H   H1146     1.0  0.10828  0.50840  0.65144  1.0000
  C   C663      1.0  0.09461  0.70333  0.32120  1.0000
  H   H1147     1.0  0.00055  0.73633  0.61746  1.0000
  C   C664      1.0  0.99714  0.67984  0.36292  1.0000
  C   C665      1.0  0.48156  0.65038  0.95892  1.0000
  Fe  Fe92      1.0  0.17787  0.52654  0.93491  1.0000
  S   S184      1.0  0.16989  0.55108  0.91349  1.0000
  C   C666      1.0  0.00440  0.53438  0.71808  1.0000
  Fe  Fe93      1.0  0.15316  0.54410  0.96626  1.0000
  S   S185      1.0  0.14277  0.57028  0.94718  1.0000
  C   C667      1.0  0.11359  0.50622  0.70835  1.0000
  Fe  Fe94      1.0  0.14079  0.55171  0.93002  1.0000
  S   S186      1.0  0.11794  0.55801  0.91415  1.0000
  Fe  Fe95      1.0  0.17266  0.56726  0.93217  1.0000
  S   S187      1.0  0.19041  0.58812  0.91864  1.0000
  S   S188      1.0  0.14874  0.52582  0.95038  1.0000
  S   S189      1.0  0.18302  0.54243  0.95231  1.0000
  C   C668      1.0  0.32124  0.69502  0.87788  1.0000
  H   H1148     1.0  0.11357  0.51556  0.73935  1.0000
  Fe  Fe96      1.0  0.05046  0.58792  0.68312  1.0000
  H   H1149     1.0  0.01342  0.54253  0.76990  1.0000
  H   H1150     1.0  0.39752  0.62458  0.95773  1.0000
  S   S190      1.0  0.27818  0.51980  0.89940  1.0000
  H   H1151     1.0  0.35147  0.65171  0.93973  1.0000
  S   S191      1.0  0.33994  0.52208  0.94200  1.0000
  C   C669      1.0  0.00510  0.49990  0.90155  1.0000
  C   C670      1.0  0.32926  0.65436  0.89568  1.0000
  H   H1152     1.0  0.48236  0.64308  0.94821  1.0000
  C   C671      1.0  0.11329  0.62056  0.71174  1.0000
  Fe  Fe97      1.0  0.24580  0.62853  0.95967  1.0000
  S   S192      1.0  0.26499  0.60096  0.96145  1.0000
  S   S193      1.0  0.21535  0.62915  0.96497  1.0000
  Fe  Fe98      1.0  0.27711  0.64783  0.95607  1.0000
  S   S194      1.0  0.29845  0.62150  0.95757  1.0000
  S   S195      1.0  0.28407  0.67454  0.95537  1.0000
  Fe  Fe99      1.0  0.28444  0.61548  0.93881  1.0000
  S   S196      1.0  0.29995  0.60363  0.91420  1.0000
  C   C672      1.0  0.09380  0.62919  0.70756  1.0000
  S   S197      1.0  0.32867  0.50243  0.90592  1.0000
  S   S198      1.0  0.26441  0.64268  0.93547  1.0000
  H   H1153     1.0  0.03649  0.52347  0.87905  1.0000
  N   N49       1.0  0.23482  0.54810  0.96284  1.0000
  Fe  Fe100     1.0  0.07596  0.55818  0.70428  1.0000
  S   S199      1.0  0.10139  0.55284  0.71521  1.0000
  H   H1154     1.0  0.12291  0.51406  0.70986  1.0000
  C   C673      1.0  0.09737  0.55233  0.73867  1.0000
  C   C674      1.0  0.08030  0.55036  0.75048  1.0000
  C   C675      1.0  0.09177  0.55230  0.77598  1.0000
  C   C676      1.0  0.10874  0.55433  0.76409  1.0000
  C   C677      1.0  0.11163  0.55405  0.74553  1.0000
  H   H1155     1.0  0.06924  0.54901  0.74520  1.0000
  H   H1156     1.0  0.28131  0.69746  0.89636  1.0000
  H   H1157     1.0  0.01735  0.53185  0.89517  1.0000
  Fe  Fe101     1.0  0.06286  0.55011  0.67460  1.0000
  N   N50       1.0  0.03487  0.50602  0.90612  1.0000
  H   H1158     1.0  0.05757  0.53437  0.88964  1.0000
  H   H1159     1.0  0.32112  0.50915  0.84563  1.0000
  C   C678      1.0  0.01769  0.52123  0.70943  1.0000
  C   C679      1.0  0.01264  0.51187  0.69914  1.0000
  C   C680      1.0  0.32189  0.66136  0.94702  1.0000
  H   H1160     1.0  0.11309  0.62033  0.72620  1.0000
  H   H1161     1.0  0.03189  0.51824  0.71070  1.0000
  H   H1162     1.0  0.10761  0.59587  0.67059  1.0000
  C   C681      1.0  0.21863  0.54291  0.97765  1.0000
  Fe  Fe102     1.0  0.32707  0.50290  0.93511  1.0000
  N   N51       1.0  0.31051  0.66460  0.89184  1.0000
  C   C682      1.0  0.32994  0.69202  0.95293  1.0000
  C   C683      1.0  0.24295  0.56115  0.96787  1.0000
  H   H1163     1.0  0.09552  0.63884  0.69395  1.0000
  H   H1164     1.0  0.05724  0.62928  0.72520  1.0000
  H   H1165     1.0  0.46845  0.64896  0.96920  1.0000
  H   H1166     1.0  0.12484  0.55553  0.73641  1.0000
  H   H1167     1.0  0.28721  0.65998  0.88450  1.0000
  H   H1168     1.0  0.32435  0.54271  0.97283  1.0000
  H   H1169     1.0  0.33485  0.66253  0.90179  1.0000
  C   C684      1.0  0.16517  0.50852  0.89649  1.0000
  H   H1170     1.0  0.26218  0.53440  0.95025  1.0000
  H   H1171     1.0  0.29981  0.68676  0.87095  1.0000
  C   C685      1.0  0.10677  0.60026  0.68335  1.0000
  C   C686      1.0  0.32949  0.54478  0.93342  1.0000
  C   C687      1.0  0.33452  0.55925  0.93696  1.0000
  C   C688      1.0  0.32527  0.57737  0.93128  1.0000
  C   C689      1.0  0.31146  0.58105  0.92144  1.0000
  C   C690      1.0  0.30675  0.56664  0.91748  1.0000
  C   C691      1.0  0.31561  0.54851  0.92365  1.0000
  H   H1172     1.0  0.34535  0.55641  0.94438  1.0000
  H   H1173     1.0  0.32895  0.58850  0.93430  1.0000
  H   H1174     1.0  0.29607  0.56948  0.90986  1.0000
  H   H1175     1.0  0.31167  0.53746  0.92078  1.0000
  C   C692      1.0  0.11206  0.54181  0.90566  1.0000
  C   C693      1.0  0.10432  0.54772  0.89002  1.0000
  C   C694      1.0  0.10027  0.53510  0.88242  1.0000
  C   C695      1.0  0.10372  0.51645  0.89056  1.0000
  H   H1176     1.0  0.37786  0.60068  0.98108  1.0000
  C   C696      1.0  0.11493  0.52325  0.91410  1.0000
  H   H1177     1.0  0.10180  0.56210  0.88353  1.0000
  H   H1178     1.0  0.09474  0.53980  0.87014  1.0000
  H   H1179     1.0  0.38725  0.64786  0.98447  1.0000
  H   H1180     1.0  0.12050  0.51858  0.92637  1.0000
  C   C697      1.0  0.19690  0.59958  0.93178  1.0000
  C   C698      1.0  0.21310  0.60638  0.92456  1.0000
  C   C699      1.0  0.21921  0.61486  0.93493  1.0000
  C   C700      1.0  0.20875  0.61723  0.95234  1.0000
  C   C701      1.0  0.19252  0.61047  0.95959  1.0000
  C   C702      1.0  0.18673  0.60143  0.94944  1.0000
  H   H1181     1.0  0.22106  0.60490  0.91094  1.0000
  H   H1182     1.0  0.23172  0.62006  0.92922  1.0000
  H   H1183     1.0  0.02058  0.51088  0.77119  1.0000
  H   H1184     1.0  0.17424  0.59619  0.95512  1.0000
  S   S200      1.0  0.10455  0.50547  0.82751  1.0000
  C   C703      1.0  0.22295  0.52412  0.91002  1.0000
  C   C704      1.0  0.24064  0.52799  0.90335  1.0000
  C   C705      1.0  0.25630  0.51439  0.90674  1.0000
  H   H1185     1.0  0.02979  0.52710  0.79557  1.0000
  C   C706      1.0  0.02771  0.50658  0.92623  1.0000
  H   H1186     1.0  0.21088  0.53483  0.90782  1.0000
  H   H1187     1.0  0.24211  0.54168  0.89607  1.0000
  C   C707      1.0  0.20264  0.55898  0.98282  1.0000
  C   C708      1.0  0.38244  0.62624  0.96380  1.0000
  H   H1188     1.0  0.31868  0.63571  0.92128  1.0000
  C   C709      1.0  0.18838  0.51854  0.86871  1.0000
  H   H1189     1.0  0.23401  0.50944  0.96596  1.0000
  H   H1190     1.0  0.04174  0.64998  0.70220  1.0000
  H   H1191     1.0  0.21224  0.53396  0.97343  1.0000
  H   H1192     1.0  0.05315  0.61683  0.71114  1.0000
  H   H1193     1.0  0.34326  0.63085  0.91340  1.0000
  H   H1194     1.0  0.08438  0.59015  0.75235  1.0000
  H   H1195     1.0  0.18803  0.53047  0.87422  1.0000
  H   H1196     1.0  0.33242  0.49018  0.82338  1.0000
  Fe  Fe103     1.0  0.08169  0.52839  0.81866  1.0000
  S   S201      1.0  0.36167  0.71339  0.97657  1.0000
  C   C710      1.0  0.22822  0.55737  0.94533  1.0000
  S   S202      1.0  0.06294  0.53605  0.70386  1.0000
  C   C711      1.0  0.06702  0.50205  0.67962  1.0000
  H   H1197     1.0  0.07600  0.58992  0.72264  1.0000
  C   C712      1.0  0.24335  0.56154  0.92797  1.0000
  H   H1198     1.0  0.11963  0.60675  0.70890  1.0000
  H   H1199     1.0  0.29605  0.66032  0.92041  1.0000
  H   H1200     1.0  0.33520  0.68943  0.88099  1.0000
  H   H1201     1.0  0.21988  0.54945  0.94225  1.0000
  H   H1202     1.0  0.21859  0.57062  0.94693  1.0000
  H   H1203     1.0  0.28713  0.56782  0.98348  1.0000
  H   H1204     1.0  0.30651  0.67925  0.91334  1.0000
  H   H1205     1.0  0.09555  0.51097  0.77197  1.0000
  H   H1206     1.0  0.00964  0.53587  0.81209  1.0000
  C   C713      1.0  0.46226  0.68841  0.98327  1.0000
  H   H1207     1.0  0.26690  0.48889  0.97915  1.0000
  H   H1208     1.0  0.23656  0.56886  0.91629  1.0000
  H   H1209     1.0  0.25145  0.57063  0.92943  1.0000
  H   H1210     1.0  0.25276  0.54891  0.92402  1.0000
  H   H1211     1.0  0.33962  0.65228  0.88275  1.0000
  C   C714      1.0  0.31309  0.68004  0.87540  1.0000
  H   H1212     1.0  0.09861  0.59104  0.72149  1.0000
  H   H1213     1.0  0.29814  0.55959  0.96270  1.0000
  S   S203      1.0  0.02069  0.51442  0.85350  1.0000
  C   C715      1.0  0.30078  0.65227  0.88779  1.0000
  H   H1214     1.0  0.06410  0.65460  0.69832  1.0000
  H   H1215     1.0  0.01875  0.50378  0.79542  1.0000
  C   C716      1.0  0.27993  0.68459  0.90661  1.0000
  H   H1216     1.0  0.30381  0.63248  0.87149  1.0000
  Fe  Fe104     1.0  0.41299  0.70956  0.95142  1.0000
  H   H1217     1.0  0.15790  0.53078  0.85329  1.0000
  S   S204      1.0  0.03487  0.56862  0.68061  1.0000
  H   H1218     1.0  0.19117  0.52315  0.85346  1.0000
  N   N52       1.0  0.08222  0.61621  0.70805  1.0000
  H   H1219     1.0  0.17666  0.49974  0.85255  1.0000
  H   H1220     1.0  0.06328  0.60510  0.74796  1.0000
  C   C717      1.0  0.00949  0.52061  0.93139  1.0000
  H   H1221     1.0  0.14153  0.52524  0.87402  1.0000
  C   C718      1.0  0.99873  0.55427  0.65828  1.0000
  S   S205      1.0  0.07255  0.53284  0.65350  1.0000
  C   C719      1.0  0.15369  0.54690  0.87332  1.0000
  C   C720      1.0  0.09840  0.50171  0.66210  1.0000
  C   C721      1.0  0.29536  0.55561  0.97792  1.0000
  H   H1222     1.0  0.11339  0.49628  0.91307  1.0000
  H   H1223     1.0  0.25643  0.56275  0.95825  1.0000
  H   H1224     1.0  0.15000  0.51199  0.90164  1.0000
  Fe  Fe105     1.0  0.27666  0.61011  0.97997  1.0000
  C   C722      1.0  0.11509  0.50138  0.74769  1.0000
  C   C723      1.0  0.07972  0.51052  0.66555  1.0000
  H   H1225     1.0  0.11662  0.60936  0.67969  1.0000
  H   H1226     1.0  0.99997  0.52433  0.92196  1.0000
  H   H1227     1.0  0.14094  0.55652  0.86968  1.0000
  H   H1228     1.0  0.15228  0.54546  0.88820  1.0000
  H   H1229     1.0  0.16542  0.55343  0.86538  1.0000
  H   H1230     1.0  0.31120  0.51782  0.97463  1.0000
  C   C724      1.0  0.23667  0.49270  0.92227  1.0000
  C   C725      1.0  0.32337  0.50465  0.85982  1.0000
  Fe  Fe106     1.0  0.29864  0.50149  0.91591  1.0000
  C   C726      1.0  0.07757  0.55011  0.76925  1.0000
  H   H1231     1.0  0.32280  0.70541  0.86482  1.0000
  S   S206      1.0  0.06599  0.51053  0.81369  1.0000
  H   H1232     1.0  0.32924  0.62492  0.90205  1.0000
  H   H1233     1.0  0.47854  0.71468  0.93362  1.0000
  H   H1234     1.0  0.00996  0.55015  0.66588  1.0000
  H   H1235     1.0  0.45031  0.72581  0.98419  1.0000
  C   C727      1.0  0.47396  0.70737  0.94747  1.0000
  H   H1236     1.0  0.33297  0.70394  0.95510  1.0000
  H   H1237     1.0  0.19488  0.56530  0.97173  1.0000
  H   H1238     1.0  0.08425  0.62245  0.67853  1.0000
  C   C728      1.0  0.48513  0.70301  0.96024  1.0000
  H   H1239     1.0  0.08346  0.51598  0.73706  1.0000
  H   H1240     1.0  0.33633  0.50833  0.85978  1.0000
  C   C729      1.0  0.33801  0.62003  0.98237  1.0000
  S   S207      1.0  0.07843  0.57055  0.67431  1.0000
  C   C730      1.0  0.06202  0.62590  0.71137  1.0000
  C   C731      1.0  0.29890  0.67177  0.90863  1.0000
  S   S208      1.0  0.04912  0.57722  0.71330  1.0000
  H   H1241     1.0  0.23395  0.57520  0.96625  1.0000
  Fe  Fe107     1.0  0.37649  0.73588  0.96020  1.0000
  H   H1242     1.0  0.29732  0.64151  0.90014  1.0000
  N   N53       1.0  0.17013  0.51268  0.87571  1.0000
  C   C732      1.0  0.00478  0.54033  0.78415  1.0000
  C   C733      1.0  0.32994  0.63545  0.90886  1.0000
  S   S209      1.0  0.09994  0.49978  0.88108  1.0000
  C   C734      1.0  0.37956  0.61369  0.98318  1.0000
  H   H1243     1.0  0.27268  0.68856  0.91996  1.0000
  H   H1244     1.0  0.37670  0.62192  0.95440  1.0000
  C   C735      1.0  0.01722  0.53817  0.79752  1.0000
  H   H1245     1.0  0.30250  0.49250  0.83936  1.0000
  S   S210      1.0  0.01121  0.54745  0.72919  1.0000
  H   H1246     1.0  0.18436  0.61227  0.97306  1.0000
  C   C736      1.0  0.24955  0.53103  0.96038  1.0000
  C   C737      1.0  0.07854  0.60265  0.74295  1.0000
  H   H1247     1.0  0.00104  0.49054  0.89553  1.0000
  C   C738      1.0  0.08428  0.59933  0.72318  1.0000
  H   H1248     1.0  0.23758  0.52191  0.94239  1.0000
  H   H1249     1.0  0.08364  0.61409  0.74429  1.0000
  S   S211      1.0  0.04482  0.61828  0.67221  1.0000
  S   S212      1.0  0.36784  0.67863  0.94374  1.0000
  C   C739      1.0  0.34443  0.67787  0.94732  1.0000
  H   H1250     1.0  0.31834  0.56084  0.98419  1.0000
  Fe  Fe108     1.0  0.03620  0.55617  0.71001  1.0000
  H   H1251     1.0  0.08642  0.63782  0.71790  1.0000
  C   C740      1.0  0.31144  0.69084  0.95549  1.0000
  H   H1252     1.0  0.11967  0.55609  0.76927  1.0000
  H   H1253     1.0  0.31895  0.64955  0.94470  1.0000
  Fe  Fe109     1.0  0.08735  0.50517  0.85612  1.0000
  H   H1254     1.0  0.43766  0.68926  0.97460  1.0000
  H   H1255     1.0  0.31127  0.65282  0.85818  1.0000
  H   H1256     1.0  0.00100  0.51381  0.89329  1.0000
  C   C741      1.0  0.08441  0.50147  0.74454  1.0000
  H   H1257     1.0  0.30026  0.70188  0.95966  1.0000
  C   C742      1.0  0.47937  0.69342  0.97809  1.0000
  S   S213      1.0  0.44258  0.70870  0.93682  1.0000
  H   H1258     1.0  0.11903  0.51116  0.76983  1.0000
  H   H1259     1.0  0.27075  0.67786  0.90323  1.0000
  H   H1260     1.0  0.05916  0.64280  0.68365  1.0000
  H   H1261     1.0  0.06437  0.54872  0.77843  1.0000
  Fe  Fe110     1.0  0.05172  0.50961  0.84333  1.0000
  H   H1262     1.0  0.09963  0.51503  0.70814  1.0000
  Fe  Fe111     1.0  0.37730  0.69830  0.95409  1.0000
  S   S214      1.0  0.40054  0.72536  0.97381  1.0000
  H   H1263     1.0  0.31207  0.70235  0.88865  1.0000
  H   H1264     1.0  0.49532  0.65172  0.97851  1.0000
  H   H1265     1.0  0.32557  0.63558  0.87239  1.0000
  H   H1266     1.0  0.07749  0.60161  0.69029  1.0000
  H   H1267     1.0  0.34829  0.61305  0.97189  1.0000
  C   C743      1.0  0.08678  0.61048  0.68990  1.0000
  S   S215      1.0  0.08821  0.55385  0.79885  1.0000
  C   C744      1.0  0.45672  0.70264  0.95270  1.0000
  H   H1268     1.0  0.02215  0.55099  0.79468  1.0000
  H   H1269     1.0  0.01249  0.53320  0.93295  1.0000
  H   H1270     1.0  0.49604  0.62896  0.97742  1.0000
  H   H1271     1.0  0.31203  0.51252  0.86893  1.0000
  S   S216      1.0  0.29657  0.50423  0.94451  1.0000
  H   H1272     1.0  0.00170  0.51480  0.94514  1.0000
  S   S217      1.0  0.38990  0.72185  0.93645  1.0000
  H   H1273     1.0  0.02294  0.50169  0.69247  1.0000
  C   C745      1.0  0.34033  0.66264  0.94422  1.0000
  H   H1274     1.0  0.32261  0.67473  0.86337  1.0000
  H   H1275     1.0  0.11915  0.50264  0.69463  1.0000
  C   C746      1.0  0.30736  0.67545  0.95263  1.0000
  C   C747      1.0  0.31120  0.64289  0.87151  1.0000
  C   C748      1.0  0.01059  0.50794  0.78457  1.0000
  S   S218      1.0  0.06570  0.52961  0.84739  1.0000
  S   S219      1.0  0.40184  0.68480  0.96697  1.0000
  H   H1276     1.0  0.37692  0.64099  0.96330  1.0000
  S   S220      1.0  0.19893  0.50151  0.92802  1.0000
  C   C749      1.0  0.25430  0.49674  0.91620  1.0000
  H   H1277     1.0  0.12292  0.62946  0.70316  1.0000
  C   C750      1.0  0.24376  0.51634  0.95458  1.0000
  C   C751      1.0  0.05682  0.64429  0.69797  1.0000
  C   C752      1.0  0.11084  0.51065  0.90656  1.0000
  C   C753      1.0  0.45086  0.69316  0.97061  1.0000
  C   C754      1.0  0.15551  0.52841  0.86854  1.0000
  H   H1278     1.0  0.02885  0.52477  0.66127  1.0000
  H   H1279     1.0  0.48019  0.66526  0.95323  1.0000
  C   C755      1.0  0.10993  0.50326  0.76796  1.0000
  C   C756      1.0  0.22096  0.50646  0.91946  1.0000
  H   H1280     1.0  0.05266  0.50902  0.68239  1.0000
  H   H1281     1.0  0.17055  0.51733  0.90200  1.0000
  C   C757      1.0  0.00429  0.49067  0.78488  1.0000
  H   H1282     1.0  0.04069  0.53860  0.91040  1.0000
  C   C758      1.0  0.04255  0.53805  0.89586  1.0000
  H   H1283     1.0  0.25432  0.52416  0.97331  1.0000
  C   C759      1.0  0.03209  0.52474  0.89366  1.0000
  H   H1284     1.0  0.25615  0.50559  0.95083  1.0000
  H   H1285     1.0  0.03819  0.50998  0.93146  1.0000
  C   C760      1.0  0.00875  0.50028  0.84920  1.0000
  H   H1286     1.0  0.07661  0.48815  0.72661  1.0000
  H   H1287     1.0  0.13018  0.49503  0.74458  1.0000
  H   H1288     1.0  0.28908  0.50058  0.86727  1.0000
  H   H1289     1.0  0.03727  0.55205  0.88832  1.0000
  H   H1290     1.0  0.05876  0.50470  0.73617  1.0000
  H   H1291     1.0  0.11115  0.58763  0.69331  1.0000
  H   H1292     1.0  0.06274  0.50585  0.90753  1.0000
  H   H1293     1.0  0.07822  0.50266  0.75905  1.0000
  N   N54       1.0  0.10419  0.49077  0.74264  1.0000
  H   H1294     1.0  0.11212  0.48985  0.77762  1.0000
  H   H1295     1.0  0.16838  0.48813  0.92151  1.0000
  C   C761      1.0  0.07079  0.49356  0.73930  1.0000
  H   H1296     1.0  0.28702  0.54524  0.98139  1.0000
  C   C762      1.0  0.11306  0.48847  0.72318  1.0000
  H   H1297     1.0  0.32684  0.62944  0.97574  1.0000
  C   C763      1.0  0.15239  0.49135  0.87075  1.0000
  Fe  Fe112     1.0  0.08747  0.48741  0.82502  1.0000
  C   C764      1.0  0.31389  0.54843  0.98412  1.0000
  C   C765      1.0  0.20557  0.50426  0.87365  1.0000
  C   C766      1.0  0.05545  0.49802  0.90284  1.0000
  H   H1298     1.0  0.06149  0.49913  0.88787  1.0000
  H   H1299     1.0  0.21807  0.50985  0.86632  1.0000
  H   H1300     1.0  0.14394  0.50080  0.86105  1.0000
  H   H1301     1.0  0.26225  0.48887  0.87900  1.0000
  S   S221      1.0  0.25618  0.63671  0.97998  1.0000
  H   H1302     1.0  0.34902  0.64333  0.97935  1.0000
  H   H1303     1.0  0.20528  0.50185  0.88848  1.0000
  H   H1304     1.0  0.20752  0.49121  0.86948  1.0000
  H   H1305     1.0  0.02581  0.49282  0.93447  1.0000
  C   C767      1.0  0.17105  0.49674  0.86768  1.0000
  C   C768      1.0  0.02607  0.49382  0.90062  1.0000
  H   H1306     1.0  0.14409  0.49125  0.88495  1.0000
  H   H1307     1.0  0.03296  0.49202  0.88633  1.0000
  C   C769      1.0  0.17147  0.48857  0.90653  1.0000
  H   H1308     1.0  0.99709  0.49868  0.91594  1.0000
  H   H1309     1.0  0.99717  0.49267  0.77361  1.0000
  Fe  Fe113     1.0  0.42901  0.84647  0.11636  1.0000
  S   S222      1.0  0.45464  0.83255  0.09917  1.0000
  S   S223      1.0  0.40411  0.83379  0.12552  1.0000
  Fe  Fe114     1.0  0.44752  0.87590  0.11892  1.0000
  C   C770      1.0  0.46424  0.96065  0.12660  1.0000
  S   S224      1.0  0.44090  0.89939  0.13391  1.0000
  Fe  Fe115     1.0  0.45695  0.86091  0.08364  1.0000
  S   S225      1.0  0.46268  0.86791  0.05241  1.0000
  Fe  Fe116     1.0  0.46954  0.83710  0.11794  1.0000
  H   H1310     1.0  0.41678  0.79000  0.13138  1.0000
  S   S226      1.0  0.43026  0.87485  0.09999  1.0000
  S   S227      1.0  0.44362  0.84854  0.13670  1.0000
  C   C771      1.0  0.44234  0.76098  0.02983  1.0000
  C   C772      1.0  0.45563  0.92548  0.28785  1.0000
  S   S228      1.0  0.45770  0.81402  0.00605  1.0000
  H   H1311     1.0  0.48551  0.98444  0.10195  1.0000
  C   C773      1.0  0.41165  0.87843  0.01848  1.0000
  C   C774      1.0  0.48588  0.90870  0.14532  1.0000
  C   C775      1.0  0.41099  0.76705  0.15329  1.0000
  H   H1312     1.0  0.32390  0.76794  0.01624  1.0000
  S   S229      1.0  0.39869  0.79236  0.06806  1.0000
  H   H1313     1.0  0.39252  0.82797  0.00732  1.0000
  H   H1314     1.0  0.43060  0.86218  0.18929  1.0000
  S   S230      1.0  0.49278  0.92318  0.17073  1.0000
  C   C776      1.0  0.45259  0.93497  0.27047  1.0000
  C   C777      1.0  0.41262  0.85791  0.02068  1.0000
  C   C778      1.0  0.44924  0.77378  0.09751  1.0000
  C   C779      1.0  0.42191  0.94985  0.28441  1.0000
  H   H1315     1.0  0.36772  0.85345  0.02660  1.0000
  C   C780      1.0  0.38304  0.86528  0.00018  1.0000
  H   H1316     1.0  0.44985  0.75896  0.10025  1.0000
  H   H1317     1.0  0.37263  0.87479  0.02538  1.0000
  H   H1318     1.0  0.36059  0.85385  0.05743  1.0000
  H   H1319     1.0  0.45251  0.92705  0.17853  1.0000
  S   S231      1.0  0.48099  0.93018  0.22319  1.0000
  H   H1320     1.0  0.46312  0.77653  0.14387  1.0000
  H   H1321     1.0  0.40222  0.84907  0.05641  1.0000
  C   C781      1.0  0.40215  0.82281  0.10931  1.0000
  C   C782      1.0  0.38978  0.81116  0.11435  1.0000
  C   C783      1.0  0.38905  0.80132  0.10191  1.0000
  C   C784      1.0  0.40034  0.80350  0.08425  1.0000
  C   C785      1.0  0.41257  0.81527  0.07919  1.0000
  C   C786      1.0  0.41341  0.82496  0.09165  1.0000
  H   H1322     1.0  0.38099  0.80950  0.12799  1.0000
  C   C787      1.0  0.43574  0.94708  0.26861  1.0000
  H   H1323     1.0  0.42159  0.81678  0.06571  1.0000
  H   H1324     1.0  0.42262  0.83427  0.08746  1.0000
  C   C788      1.0  0.46073  0.85294  0.03976  1.0000
  C   C789      1.0  0.45722  0.83557  0.04832  1.0000
  C   C790      1.0  0.45628  0.82381  0.03781  1.0000
  C   C791      1.0  0.45867  0.82936  0.01867  1.0000
  C   C792      1.0  0.46185  0.84683  0.01006  1.0000
  C   C793      1.0  0.46297  0.85852  0.02058  1.0000
  H   H1325     1.0  0.45539  0.83107  0.06301  1.0000
  H   H1326     1.0  0.45367  0.81037  0.04458  1.0000
  C   C794      1.0  0.48348  0.86578  0.17987  1.0000
  H   H1327     1.0  0.46570  0.87193  0.01383  1.0000
  H   H1328     1.0  0.46648  0.77944  0.11237  1.0000
  H   H1329     1.0  0.44457  0.80164  0.15784  1.0000
  H   H1330     1.0  0.37948  0.79234  0.10588  1.0000
  C   C795      1.0  0.45879  0.92046  0.16697  1.0000
  C   C796      1.0  0.44766  0.91503  0.15860  1.0000
  C   C797      1.0  0.45557  0.90614  0.14376  1.0000
  H   H1331     1.0  0.44186  0.86755  0.16583  1.0000
  H   H1332     1.0  0.46371  0.85125  0.99530  1.0000
  H   H1333     1.0  0.43281  0.91757  0.16378  1.0000
  C   C798      1.0  0.37326  0.84844  0.06303  1.0000
  H   H1334     1.0  0.40985  0.82403  0.03992  1.0000
  H   H1335     1.0  0.38662  0.76758  0.02530  1.0000
  Fe  Fe117     1.0  0.39496  0.76379  0.08091  1.0000
  H   H1336     1.0  0.41887  0.76978  0.12408  1.0000
  S   S232      1.0  0.39202  0.74699  0.06312  1.0000
  C   C799      1.0  0.43905  0.79797  0.14783  1.0000
  C   C800      1.0  0.44220  0.92864  0.30366  1.0000
  H   H1337     1.0  0.43597  0.78133  0.09347  1.0000
  H   H1338     1.0  0.41454  0.94285  0.31413  1.0000
  H   H1339     1.0  0.39603  0.77175  0.15305  1.0000
  H   H1340     1.0  0.38620  0.82565  0.04043  1.0000
  C   C801      1.0  0.40410  0.82387  0.01451  1.0000
  C   C802      1.0  0.47475  0.90320  0.13701  1.0000
  C   C803      1.0  0.45732  0.96797  0.31399  1.0000
  H   H1341     1.0  0.32353  0.76023  0.04718  1.0000
  C   C804      1.0  0.45954  0.84780  0.18378  1.0000
  H   H1342     1.0  0.45680  0.83652  0.17929  1.0000
  C   C805      1.0  0.48046  0.85468  0.15428  1.0000
  H   H1343     1.0  0.41408  0.75188  0.15615  1.0000
  H   H1344     1.0  0.44618  0.87725  0.18248  1.0000
  H   H1345     1.0  0.46518  0.96918  0.29962  1.0000
  H   H1346     1.0  0.36243  0.79078  0.99660  1.0000
  H   H1347     1.0  0.38285  0.88003  0.99439  1.0000
  C   C806      1.0  0.44388  0.86477  0.18001  1.0000
  H   H1348     1.0  0.43904  0.73940  0.01916  1.0000
  S   S233      1.0  0.47761  0.97302  0.22562  1.0000
  C   C807      1.0  0.47118  0.74373  0.13080  1.0000
  H   H1349     1.0  0.45057  0.96996  0.12996  1.0000
  S   S234      1.0  0.48993  0.81443  0.13150  1.0000
  H   H1350     1.0  0.39951  0.88732  0.01313  1.0000
  C   C808      1.0  0.46913  0.76737  0.99619  1.0000
  H   H1351     1.0  0.32901  0.77249  0.06076  1.0000
  H   H1352     1.0  0.38721  0.87009  0.04921  1.0000
  H   H1353     1.0  0.33527  0.77834  0.99352  1.0000
  H   H1354     1.0  0.42379  0.80043  0.15276  1.0000
  H   H1355     1.0  0.40874  0.95908  0.28305  1.0000
  H   H1356     1.0  0.35488  0.74802  0.04487  1.0000
  H   H1357     1.0  0.47745  0.87905  0.17160  1.0000
  C   C809      1.0  0.45001  0.75034  0.13599  1.0000
  H   H1358     1.0  0.49128  0.74843  0.05981  1.0000
  H   H1359     1.0  0.41675  0.82783  0.00519  1.0000
  H   H1360     1.0  0.44972  0.97264  0.27901  1.0000
  H   H1361     1.0  0.41801  0.85481  0.00683  1.0000
  S   S235      1.0  0.46109  0.96493  0.19446  1.0000
  H   H1362     1.0  0.45430  0.75446  0.03629  1.0000
  H   H1363     1.0  0.43064  0.76203  0.00782  1.0000
  H   H1364     1.0  0.42380  0.85029  0.02817  1.0000
  C   C810      1.0  0.39021  0.85516  0.04968  1.0000
  S   S236      1.0  0.47449  0.86446  0.10105  1.0000
  N   N55       1.0  0.39498  0.85148  0.03053  1.0000
  C   C811      1.0  0.44789  0.77780  0.14672  1.0000
  C   C812      1.0  0.42232  0.77501  0.13448  1.0000
  H   H1365     1.0  0.46848  0.91565  0.28897  1.0000
  C   C813      1.0  0.39861  0.83106  0.03235  1.0000
  H   H1366     1.0  0.37046  0.85337  0.07594  1.0000
  H   H1367     1.0  0.44375  0.74400  0.12865  1.0000
  N   N56       1.0  0.36053  0.76777  0.01944  1.0000
  C   C814      1.0  0.38136  0.76183  0.01657  1.0000
  C   C815      1.0  0.35602  0.78804  0.01151  1.0000
  C   C816      1.0  0.35435  0.75746  0.00910  1.0000
  C   C817      1.0  0.35245  0.76311  0.03979  1.0000
  H   H1368     1.0  0.46331  0.93270  0.25853  1.0000
  C   C818      1.0  0.36227  0.80022  0.02030  1.0000
  H   H1369     1.0  0.44565  0.74390  0.15074  1.0000
  C   C819      1.0  0.33151  0.77033  0.04659  1.0000
  H   H1370     1.0  0.38812  0.76720  0.00212  1.0000
  C   C820      1.0  0.47799  0.91719  0.16044  1.0000
  H   H1371     1.0  0.34103  0.79350  0.01209  1.0000
  H   H1372     1.0  0.37183  0.86238  0.99568  1.0000
  H   H1373     1.0  0.46496  0.88010  0.20126  1.0000
  H   H1374     1.0  0.44431  0.76937  0.16077  1.0000
  H   H1375     1.0  0.45881  0.78055  0.99448  1.0000
  H   H1376     1.0  0.35977  0.76748  0.04783  1.0000
  Fe  Fe118     1.0  0.45882  0.95597  0.22505  1.0000
  H   H1377     1.0  0.37585  0.83332  0.06713  1.0000
  H   H1378     1.0  0.42972  0.75892  0.04064  1.0000
  H   H1379     1.0  0.35647  0.79834  0.03531  1.0000
  H   H1380     1.0  0.37756  0.79792  0.01744  1.0000
  H   H1381     1.0  0.35719  0.81480  0.01404  1.0000
  N   N57       1.0  0.46016  0.75173  0.99844  1.0000
  N   N58       1.0  0.48387  0.98056  0.13108  1.0000
  H   H1382     1.0  0.42938  0.96843  0.31324  1.0000
  Fe  Fe119     1.0  0.48484  0.94046  0.19253  1.0000
  H   H1383     1.0  0.32572  0.78375  0.03862  1.0000
  H   H1384     1.0  0.49058  0.95109  0.13405  1.0000
  H   H1385     1.0  0.45743  0.84334  0.19887  1.0000
  C   C821      1.0  0.37891  0.86127  0.02144  1.0000
  S   S237      1.0  0.43223  0.95910  0.24664  1.0000
  H   H1386     1.0  0.47382  0.76672  0.00869  1.0000
  C   C822      1.0  0.33521  0.76552  0.00422  1.0000
  S   S238      1.0  0.37290  0.75408  0.10439  1.0000
  H   H1387     1.0  0.39607  0.85711  0.99355  1.0000
  C   C823      1.0  0.45155  0.78016  0.11382  1.0000
  C   C824      1.0  0.44269  0.75300  0.01347  1.0000
  H   H1388     1.0  0.40740  0.80867  0.01812  1.0000
  N   N59       1.0  0.44293  0.77080  0.13275  1.0000
  H   H1389     1.0  0.41168  0.88157  0.03163  1.0000
  H   H1390     1.0  0.44257  0.80749  0.13457  1.0000
  H   H1391     1.0  0.44539  0.79510  0.11140  1.0000
  C   C825      1.0  0.42518  0.94070  0.30197  1.0000
  H   H1392     1.0  0.48348  0.76693  0.04240  1.0000
  H   H1393     1.0  0.47209  0.85591  0.21010  1.0000
  H   H1394     1.0  0.42429  0.88202  0.00857  1.0000
  H   H1395     1.0  0.46089  0.77630  0.08563  1.0000
  C   C826      1.0  0.49325  0.82479  0.19964  1.0000
  H   H1396     1.0  0.49264  0.73965  0.01480  1.0000
  C   C827      1.0  0.47649  0.86785  0.20012  1.0000
  H   H1397     1.0  0.41307  0.77177  0.16467  1.0000
  H   H1398     1.0  0.44145  0.77599  0.02565  1.0000
  H   H1399     1.0  0.48098  0.89677  0.12534  1.0000
  H   H1400     1.0  0.33202  0.75569  0.99811  1.0000
  Fe  Fe120     1.0  0.48226  0.97953  0.19505  1.0000
  N   N60       1.0  0.47898  0.85035  0.17479  1.0000
  H   H1401     1.0  0.36430  0.75639  0.99569  1.0000
  H   H1402     1.0  0.49009  0.82174  0.17391  1.0000
  H   H1403     1.0  0.46941  0.96289  0.11151  1.0000
  H   H1404     1.0  0.48791  0.97745  0.15841  1.0000
  H   H1405     1.0  0.42927  0.74241  0.99037  1.0000
  H   H1406     1.0  0.48478  0.92624  0.30377  1.0000
  H   H1407     1.0  0.47840  0.74916  0.13796  1.0000
  H   H1408     1.0  0.49168  0.81288  0.09418  1.0000
  H   H1409     1.0  0.47660  0.74721  0.11576  1.0000
  H   H1410     1.0  0.47069  0.86763  0.14996  1.0000
  C   C828      1.0  0.49264  0.83257  0.17926  1.0000
  H   H1411     1.0  0.47982  0.82209  0.20832  1.0000
  H   H1412     1.0  0.46185  0.94652  0.13122  1.0000
  H   H1413     1.0  0.44779  0.98262  0.15567  1.0000
  H   H1414     1.0  0.47636  0.84397  0.15023  1.0000
  C   C829      1.0  0.47827  0.96240  0.13657  1.0000
  H   H1415     1.0  0.47240  0.95903  0.15161  1.0000
  C   C830      1.0  0.38932  0.74099  0.02065  1.0000
  H   H1416     1.0  0.49261  0.98438  0.27737  1.0000
  C   C831      1.0  0.49463  0.98289  0.11142  1.0000
  H   H1417     1.0  0.48773  0.87063  0.20469  1.0000
  H   H1418     1.0  0.40444  0.73854  0.01956  1.0000
  C   C832      1.0  0.49384  0.76179  0.05109  1.0000
  S   S239      1.0  0.41889  0.74351  0.09096  1.0000
  H   H1419     1.0  0.49410  0.96789  0.25376  1.0000
  C   C833      1.0  0.43659  0.97745  0.31623  1.0000
  H   H1420     1.0  0.35448  0.74308  0.01675  1.0000
  H   H1421     1.0  0.49316  0.78748  0.01877  1.0000
  H   H1422     1.0  0.49527  0.95191  0.31687  1.0000
  H   H1423     1.0  0.49159  0.77079  0.06076  1.0000
  H   H1424     1.0  0.48921  0.79854  0.04325  1.0000
  C   C834      1.0  0.49542  0.98072  0.14386  1.0000
  C   C835      1.0  0.49664  0.79925  0.10156  1.0000
  Fe  Fe121     1.0  0.41613  0.95993  0.36903  1.0000
  S   S240      1.0  0.40998  0.94242  0.39700  1.0000
  C   C836      1.0  0.00874  0.74060  0.58711  1.0000
  S   S241      1.0  0.29779  0.89650  0.60413  1.0000
  H   H1425     1.0  0.22922  0.94166  0.57064  1.0000
  H   H1426     1.0  0.02199  0.90332  0.49941  1.0000
  Fe  Fe122     1.0  0.39881  0.92718  0.38347  1.0000
  S   S242      1.0  0.37192  0.91925  0.39870  1.0000
  S   S243      1.0  0.40281  0.94616  0.35582  1.0000
  Fe  Fe123     1.0  0.06947  0.81233  0.50282  1.0000
  S   S244      1.0  0.08589  0.81539  0.52121  1.0000
  S   S245      1.0  0.08103  0.78980  0.48705  1.0000
  Fe  Fe124     1.0  0.03713  0.84207  0.51448  1.0000
  S   S246      1.0  0.05053  0.84801  0.53397  1.0000
  C   C837      1.0  0.06008  0.74323  0.58854  1.0000
  Fe  Fe125     1.0  0.07632  0.84565  0.51175  1.0000
  S   S247      1.0  0.09736  0.86343  0.50383  1.0000
  Fe  Fe126     1.0  0.05914  0.81742  0.54204  1.0000
  S   S248      1.0  0.05983  0.80421  0.57149  1.0000
  S   S249      1.0  0.06226  0.84244  0.49125  1.0000
  S   S250      1.0  0.04348  0.81160  0.52462  1.0000
  H   H1427     1.0  0.14936  0.97132  0.57173  1.0000
  Fe  Fe127     1.0  0.04534  0.75601  0.42535  1.0000
  H   H1428     1.0  0.21731  0.91426  0.57790  1.0000
  S   S251      1.0  0.03760  0.78445  0.43081  1.0000
  C   C838      1.0  0.09007  0.74344  0.50761  1.0000
  H   H1429     1.0  0.01273  0.77802  0.54084  1.0000
  H   H1430     1.0  0.31848  0.92018  0.41142  1.0000
  C   C839      1.0  0.49344  0.90122  0.40729  1.0000
  Fe  Fe128     1.0  0.13280  0.91628  0.55570  1.0000
  S   S252      1.0  0.13160  0.93675  0.57214  1.0000
  S   S253      1.0  0.10771  0.90424  0.55998  1.0000
  Fe  Fe129     1.0  0.17299  0.91612  0.53687  1.0000
  S   S254      1.0  0.17523  0.93667  0.55101  1.0000
  S   S255      1.0  0.19890  0.90247  0.51952  1.0000
  Fe  Fe130     1.0  0.15980  0.92060  0.57622  1.0000
  S   S256      1.0  0.17059  0.91241  0.60227  1.0000
  Fe  Fe131     1.0  0.14713  0.95136  0.54573  1.0000
  H   H1431     1.0  0.40384  0.95737  0.62445  1.0000
  S   S257      1.0  0.15960  0.89874  0.56246  1.0000
  S   S258      1.0  0.14628  0.93221  0.52885  1.0000
  S   S259      1.0  0.27309  0.94897  0.59722  1.0000
  H   H1432     1.0  0.31607  0.89595  0.43878  1.0000
  C   C840      1.0  0.43575  0.96581  0.64216  1.0000
  H   H1433     1.0  0.11544  0.77474  0.53937  1.0000
  H   H1434     1.0  0.26661  0.95503  0.43181  1.0000
  Fe  Fe132     1.0  0.29649  0.93128  0.50500  1.0000
  S   S260      1.0  0.26756  0.94718  0.51303  1.0000
  S   S261      1.0  0.30643  0.90250  0.51939  1.0000
  Fe  Fe133     1.0  0.26903  0.95637  0.48282  1.0000
  S   S262      1.0  0.24479  0.96083  0.47048  1.0000
  C   C841      1.0  0.30760  0.90991  0.43979  1.0000
  H   H1435     1.0  0.00593  0.77108  0.60077  1.0000
  S   S263      1.0  0.29672  0.93826  0.47492  1.0000
  S   S264      1.0  0.31023  0.95362  0.50376  1.0000
  C   C842      1.0  0.29900  0.89776  0.58087  1.0000
  C   C843      1.0  0.31060  0.88364  0.57240  1.0000
  C   C844      1.0  0.31260  0.88496  0.55355  1.0000
  C   C845      1.0  0.30332  0.90060  0.54306  1.0000
  C   C846      1.0  0.29160  0.91462  0.55154  1.0000
  C   C847      1.0  0.28909  0.91297  0.57049  1.0000
  H   H1436     1.0  0.09981  0.83714  0.54018  1.0000
  H   H1437     1.0  0.32162  0.87403  0.54705  1.0000
  H   H1438     1.0  0.28439  0.92672  0.54355  1.0000
  H   H1439     1.0  0.27962  0.92358  0.57696  1.0000
  H   H1440     1.0  0.00147  0.77061  0.39227  1.0000
  H   H1441     1.0  0.99949  0.80780  0.47100  1.0000
  C   C848      1.0  0.21142  0.91863  0.50528  1.0000
  C   C849      1.0  0.20241  0.93684  0.49993  1.0000
  C   C850      1.0  0.21263  0.94967  0.48855  1.0000
  C   C851      1.0  0.23192  0.94447  0.48329  1.0000
  C   C852      1.0  0.24097  0.92634  0.48895  1.0000
  C   C853      1.0  0.23066  0.91333  0.49953  1.0000
  H   H1442     1.0  0.18754  0.94097  0.50434  1.0000
  H   H1443     1.0  0.20561  0.96371  0.48427  1.0000
  H   H1444     1.0  0.25589  0.92230  0.48496  1.0000
  H   H1445     1.0  0.23759  0.89922  0.50358  1.0000
  C   C854      1.0  0.18449  0.92652  0.60315  1.0000
  C   C855      1.0  0.19739  0.91989  0.61441  1.0000
  C   C856      1.0  0.20900  0.93087  0.61471  1.0000
  H   H1446     1.0  0.00326  0.78748  0.51047  1.0000
  C   C857      1.0  0.28887  0.94655  0.40032  1.0000
  C   C858      1.0  0.18300  0.94429  0.59252  1.0000
  H   H1447     1.0  0.19856  0.90615  0.62273  1.0000
  C   C859      1.0  0.22049  0.96173  0.52626  1.0000
  H   H1448     1.0  0.17292  0.94956  0.58404  1.0000
  H   H1449     1.0  0.41553  0.94749  0.43932  1.0000
  C   C860      1.0  0.09999  0.87498  0.51941  1.0000
  C   C861      1.0  0.08593  0.87852  0.53470  1.0000
  C   C862      1.0  0.08825  0.88811  0.54662  1.0000
  C   C863      1.0  0.10476  0.89392  0.54358  1.0000
  C   C864      1.0  0.11872  0.89063  0.52812  1.0000
  C   C865      1.0  0.11625  0.88133  0.51600  1.0000
  H   H1450     1.0  0.07326  0.87390  0.53738  1.0000
  H   H1451     1.0  0.07731  0.89080  0.55843  1.0000
  H   H1452     1.0  0.13147  0.89511  0.52560  1.0000
  H   H1453     1.0  0.12712  0.87884  0.50408  1.0000
  C   C866      1.0  0.06850  0.78856  0.47171  1.0000
  C   C867      1.0  0.07398  0.77335  0.46351  1.0000
  C   C868      1.0  0.06449  0.77205  0.45101  1.0000
  C   C869      1.0  0.04963  0.78610  0.44641  1.0000
  C   C870      1.0  0.04402  0.80129  0.45469  1.0000
  C   C871      1.0  0.05335  0.80246  0.46745  1.0000
  H   H1454     1.0  0.08574  0.76261  0.46666  1.0000
  H   H1455     1.0  0.06902  0.76035  0.44462  1.0000
  H   H1456     1.0  0.03252  0.81220  0.45118  1.0000
  H   H1457     1.0  0.04904  0.81425  0.47371  1.0000
  C   C872      1.0  0.05941  0.78088  0.57787  1.0000
  H   H1458     1.0  0.25002  0.93029  0.44418  1.0000
  C   C873      1.0  0.05621  0.77189  0.56604  1.0000
  H   H1459     1.0  0.13051  0.85943  0.57145  1.0000
  H   H1460     1.0  0.05364  0.77938  0.55273  1.0000
  H   H1461     1.0  0.09594  0.89504  0.46229  1.0000
  H   H1462     1.0  0.32215  0.95632  0.64783  1.0000
  H   H1463     1.0  0.11071  0.77792  0.51093  1.0000
  C   C874      1.0  0.35998  0.93451  0.41319  1.0000
  C   C875      1.0  0.35965  0.95323  0.40701  1.0000
  H   H1464     1.0  0.46876  0.97372  0.41359  1.0000
  C   C876      1.0  0.34074  0.95883  0.43655  1.0000
  C   C877      1.0  0.34157  0.94007  0.44291  1.0000
  C   C878      1.0  0.35089  0.92796  0.43112  1.0000
  H   H1465     1.0  0.36677  0.95832  0.39317  1.0000
  H   H1466     1.0  0.40043  0.93438  0.43815  1.0000
  H   H1467     1.0  0.33520  0.93481  0.45695  1.0000
  H   H1468     1.0  0.35150  0.91343  0.43603  1.0000
  C   C879      1.0  0.08301  0.89881  0.45709  1.0000
  H   H1469     1.0  0.49094  0.96343  0.38698  1.0000
  H   H1470     1.0  0.06758  0.94109  0.45932  1.0000
  S   S265      1.0  0.29305  0.93259  0.63239  1.0000
  Fe  Fe134     1.0  0.43091  0.92746  0.35067  1.0000
  H   H1471     1.0  0.26990  0.89215  0.51790  1.0000
  H   H1472     1.0  0.38570  0.96287  0.47284  1.0000
  H   H1473     1.0  0.48967  0.87254  0.35048  1.0000
  C   C880      1.0  0.05646  0.75307  0.57142  1.0000
  H   H1474     1.0  0.00901  0.75276  0.45459  1.0000
  H   H1475     1.0  0.04014  0.76074  0.49436  1.0000
  C   C881      1.0  0.11022  0.81899  0.58970  1.0000
  H   H1476     1.0  0.31735  0.93889  0.38402  1.0000
  H   H1477     1.0  0.21895  0.92563  0.62336  1.0000
  C   C882      1.0  0.35015  0.95860  0.58216  1.0000
  C   C883      1.0  0.33354  0.95382  0.57842  1.0000
  H   H1478     1.0  0.27755  0.93740  0.44749  1.0000
  H   H1479     1.0  0.09078  0.77631  0.54247  1.0000
  H   H1480     1.0  0.32525  0.96719  0.57245  1.0000
  H   H1481     1.0  0.32425  0.94922  0.59175  1.0000
  H   H1482     1.0  0.28638  0.97405  0.43537  1.0000
  C   C884      1.0  0.47232  0.98468  0.40140  1.0000
  H   H1483     1.0  0.07269  0.82271  0.60283  1.0000
  S   S266      1.0  0.42582  0.90715  0.37733  1.0000
  S   S267      1.0  0.14095  0.98210  0.53576  1.0000
  C   C885      1.0  0.26255  0.92861  0.43290  1.0000
  H   H1484     1.0  0.06201  0.94005  0.49869  1.0000
  C   C886      1.0  0.29478  0.97181  0.42164  1.0000
  C   C887      1.0  0.23889  0.92890  0.56734  1.0000
  H   H1485     1.0  0.47874  0.89483  0.35467  1.0000
  C   C888      1.0  0.27510  0.94077  0.43336  1.0000
  H   H1486     1.0  0.36893  0.98494  0.49115  1.0000
  H   H1487     1.0  0.30702  0.94621  0.43641  1.0000
  C   C889      1.0  0.12553  0.74816  0.51598  1.0000
  H   H1488     1.0  0.34375  0.98214  0.61917  1.0000
  H   H1489     1.0  0.28113  0.97889  0.64218  1.0000
  H   H1490     1.0  0.03627  0.74708  0.48086  1.0000
  H   H1491     1.0  0.30566  0.97993  0.41717  1.0000
  H   H1492     1.0  0.31818  0.87173  0.58038  1.0000
  C   C890      1.0  0.42713  0.96438  0.62906  1.0000
  H   H1493     1.0  0.34592  0.92281  0.60269  1.0000
  H   H1494     1.0  0.37314  0.95896  0.44270  1.0000
  C   C891      1.0  0.48403  0.92772  0.38434  1.0000
  S   S268      1.0  0.44763  0.91751  0.32509  1.0000
  N   N61       1.0  0.23897  0.89848  0.55979  1.0000
  H   H1495     1.0  0.08151  0.91281  0.44854  1.0000
  H   H1496     1.0  0.47332  0.93773  0.37842  1.0000
  H   H1497     1.0  0.13086  0.83368  0.55965  1.0000
  H   H1498     1.0  0.25878  0.87429  0.56922  1.0000
  H   H1499     1.0  0.36218  0.95053  0.54851  1.0000
  C   C892      1.0  0.41763  0.98320  0.42339  1.0000
  H   H1500     1.0  0.34939  0.97990  0.41369  1.0000
  H   H1501     1.0  0.27752  0.95904  0.39972  1.0000
  H   H1502     1.0  0.04408  0.90979  0.51377  1.0000
  C   C893      1.0  0.10907  0.80134  0.58498  1.0000
  C   C894      1.0  0.12225  0.76800  0.50451  1.0000
  C   C895      1.0  0.22641  0.88713  0.55865  1.0000
  N   N62       1.0  0.29308  0.93978  0.41921  1.0000
  C   C896      1.0  0.20801  0.88731  0.57304  1.0000
  H   H1503     1.0  0.20138  0.87680  0.57189  1.0000
  H   H1504     1.0  0.33978  0.93747  0.52893  1.0000
  H   H1505     1.0  0.05383  0.74624  0.56238  1.0000
  H   H1506     1.0  0.22230  0.89177  0.54514  1.0000
  H   H1507     1.0  0.10709  0.79073  0.59782  1.0000
  C   C897      1.0  0.22775  0.91634  0.56490  1.0000
  H   H1508     1.0  0.20968  0.88430  0.58733  1.0000
  H   H1509     1.0  0.29818  0.91195  0.41547  1.0000
  H   H1510     1.0  0.01846  0.77240  0.46638  1.0000
  H   H1511     1.0  0.48502  0.89568  0.32223  1.0000
  H   H1512     1.0  0.36273  0.94750  0.58155  1.0000
  H   H1513     1.0  0.08752  0.76495  0.52109  1.0000
  N   N63       1.0  0.10933  0.74243  0.53050  1.0000
  H   H1514     1.0  0.06513  0.77797  0.60431  1.0000
  H   H1515     1.0  0.29453  0.90815  0.44990  1.0000
  C   C898      1.0  0.06307  0.75231  0.60038  1.0000
  S   S269      1.0  0.25392  0.96455  0.63498  1.0000
  C   C899      1.0  0.20738  0.94870  0.60411  1.0000
  S   S270      1.0  0.29949  0.98076  0.60412  1.0000
  H   H1516     1.0  0.23736  0.87057  0.59711  1.0000
  H   H1517     1.0  0.06711  0.92003  0.51674  1.0000
  H   H1518     1.0  0.25351  0.87845  0.53036  1.0000
  H   H1519     1.0  0.12057  0.74236  0.55330  1.0000
  H   H1520     1.0  0.24591  0.92248  0.57898  1.0000
  H   H1521     1.0  0.48465  0.98536  0.37202  1.0000
  H   H1522     1.0  0.01724  0.77503  0.56292  1.0000
  C   C900      1.0  0.30409  0.95136  0.42252  1.0000
  H   H1523     1.0  0.32925  0.91333  0.59793  1.0000
  S   S271      1.0  0.25359  0.92242  0.63427  1.0000
  S   S272      1.0  0.07002  0.74276  0.40618  1.0000
  H   H1524     1.0  0.05463  0.89619  0.46701  1.0000
  H   H1525     1.0  0.34643  0.96122  0.59628  1.0000
  H   H1526     1.0  0.00334  0.81106  0.37686  1.0000
  H   H1527     1.0  0.00572  0.74065  0.47762  1.0000
  H   H1528     1.0  0.35039  0.91186  0.56608  1.0000
  S   S273      1.0  0.44466  0.94303  0.36136  1.0000
  H   H1529     1.0  0.23675  0.97413  0.53610  1.0000
  H   H1530     1.0  0.39831  0.94017  0.45931  1.0000
  H   H1531     1.0  0.13491  0.77338  0.50170  1.0000
  H   H1532     1.0  0.08479  0.88930  0.44800  1.0000
  H   H1533     1.0  0.00740  0.74117  0.50532  1.0000
  C   C901      1.0  0.47967  0.97566  0.38462  1.0000
  H   H1534     1.0  0.01935  0.79293  0.38852  1.0000
  C   C902      1.0  0.47943  0.91376  0.39929  1.0000
  C   C903      1.0  0.34860  0.94896  0.54747  1.0000
  H   H1535     1.0  0.31818  0.95011  0.41340  1.0000
  H   H1536     1.0  0.09607  0.86559  0.57914  1.0000
  C   C904      1.0  0.03365  0.89250  0.50384  1.0000
  C   C905      1.0  0.00894  0.79614  0.37999  1.0000
  H   H1537     1.0  0.46834  0.97094  0.38224  1.0000
  H   H1538     1.0  0.07965  0.74599  0.53579  1.0000
  H   H1539     1.0  0.08461  0.92102  0.47581  1.0000
  Fe  Fe135     1.0  0.30789  0.96218  0.47431  1.0000
  H   H1540     1.0  0.43337  0.96788  0.61460  1.0000
  H   H1541     1.0  0.23092  0.89455  0.59797  1.0000
  H   H1542     1.0  0.24903  0.93321  0.55474  1.0000
  H   H1543     1.0  0.35361  0.97111  0.57221  1.0000
  H   H1544     1.0  0.18016  0.98088  0.52212  1.0000
  C   C906      1.0  0.14966  0.98562  0.56654  1.0000
  C   C907      1.0  0.00544  0.78711  0.49579  1.0000
  H   H1545     1.0  0.20616  0.95983  0.52922  1.0000
  H   H1546     1.0  0.25276  0.88187  0.60152  1.0000
  S   S274      1.0  0.45630  0.91192  0.40828  1.0000
  H   H1547     1.0  0.26129  0.91054  0.54096  1.0000
  S   S275      1.0  0.45603  0.97435  0.63487  1.0000
  H   H1548     1.0  0.32324  0.92588  0.55700  1.0000
  C   C908      1.0  0.01328  0.76827  0.55422  1.0000
  H   H1549     1.0  0.31552  0.91637  0.44516  1.0000
  C   C909      1.0  0.07201  0.92708  0.50239  1.0000
  H   H1550     1.0  0.07014  0.88202  0.48091  1.0000
  H   H1551     1.0  0.37713  0.98184  0.62091  1.0000
  H   H1552     1.0  0.44732  0.97847  0.35333  1.0000
  H   H1553     1.0  0.30159  0.96401  0.56410  1.0000
  H   H1554     1.0  0.12023  0.76818  0.49080  1.0000
  C   C910      1.0  0.25148  0.88778  0.57277  1.0000
  H   H1555     1.0  0.12090  0.86599  0.59292  1.0000
  C   C911      1.0  0.11611  0.83900  0.55862  1.0000
  H   H1556     1.0  0.48994  0.89042  0.41892  1.0000
  N   N64       1.0  0.33820  0.94058  0.56597  1.0000
  Fe  Fe136     1.0  0.28197  0.96005  0.61624  1.0000
  H   H1557     1.0  0.02444  0.75614  0.55141  1.0000
  H   H1558     1.0  0.05357  0.93409  0.44829  1.0000
  H   H1559     1.0  0.03797  0.88209  0.49526  1.0000
  H   H1560     1.0  0.31240  0.93181  0.57849  1.0000
  S   S276      1.0  0.00946  0.85811  0.50843  1.0000
  H   H1561     1.0  0.28347  0.93632  0.39685  1.0000
  C   C912      1.0  0.04623  0.92639  0.47844  1.0000
  H   H1562     1.0  0.11499  0.85372  0.55190  1.0000
  H   H1563     1.0  0.31363  0.95957  0.54147  1.0000
  C   C913      1.0  0.06613  0.89628  0.47307  1.0000
  H   H1564     1.0  0.11346  0.81531  0.54940  1.0000
  H   H1565     1.0  0.12501  0.81736  0.58971  1.0000
  Fe  Fe137     1.0  0.28118  0.97022  0.50928  1.0000
  H   H1566     1.0  0.38948  0.96552  0.42309  1.0000
  C   C914      1.0  0.12281  0.85486  0.58565  1.0000
  H   H1567     1.0  0.36067  0.94549  0.51941  1.0000
  C   C915      1.0  0.01253  0.75369  0.50356  1.0000
  H   H1568     1.0  0.01895  0.74875  0.58577  1.0000
  C   C916      1.0  0.06270  0.77108  0.59509  1.0000
  H   H1569     1.0  0.36476  0.92333  0.57073  1.0000
  C   C917      1.0  0.19422  0.95542  0.59317  1.0000
  H   H1570     1.0  0.23379  0.87255  0.55934  1.0000
  H   H1571     1.0  0.36108  0.92424  0.53577  1.0000
  S   S277      1.0  0.22105  0.96320  0.60471  1.0000
  H   H1572     1.0  0.10317  0.81873  0.60438  1.0000
  C   C918      1.0  0.35003  0.92251  0.57339  1.0000
  N   N65       1.0  0.10339  0.83692  0.57747  1.0000
  C   C919      1.0  0.32044  0.93696  0.56461  1.0000
  C   C920      1.0  0.30716  0.95352  0.55561  1.0000
  H   H1573     1.0  0.19171  0.95972  0.63614  1.0000
  H   H1574     1.0  0.13133  0.84245  0.59276  1.0000
  Fe  Fe138     1.0  0.43743  0.92426  0.38842  1.0000
  C   C921      1.0  0.38677  0.96284  0.43821  1.0000
  C   C922      1.0  0.26233  0.88676  0.53194  1.0000
  C   C923      1.0  0.00434  0.77042  0.47360  1.0000
  C   C924      1.0  0.11303  0.83009  0.54450  1.0000
  H   H1575     1.0  0.27301  0.87797  0.53955  1.0000
  H   H1576     1.0  0.01146  0.75504  0.51778  1.0000
  C   C925      1.0  0.34985  0.96542  0.41861  1.0000
  H   H1577     1.0  0.12202  0.79599  0.57554  1.0000
  C   C926      1.0  0.10355  0.85219  0.58602  1.0000
  C   C927      1.0  0.24236  0.88345  0.59339  1.0000
  H   H1578     1.0  0.29500  0.94919  0.55459  1.0000
  H   H1579     1.0  0.02803  0.88551  0.51803  1.0000
  Fe  Fe139     1.0  0.26439  0.93615  0.64999  1.0000
  H   H1580     1.0  0.12414  0.83175  0.53187  1.0000
  H   H1581     1.0  0.26301  0.89446  0.57115  1.0000
  C   C928      1.0  0.25097  0.90311  0.54086  1.0000
  C   C929      1.0  0.40116  0.94547  0.44427  1.0000
  H   H1582     1.0  0.08603  0.90185  0.49372  1.0000
  H   H1583     1.0  0.09608  0.85021  0.60068  1.0000
  H   H1584     1.0  0.09711  0.80284  0.57906  1.0000
  H   H1585     1.0  0.08251  0.82958  0.56833  1.0000
  C   C930      1.0  0.05365  0.93908  0.46041  1.0000
  H   H1586     1.0  0.05567  0.83821  0.59125  1.0000
  H   H1587     1.0  0.35242  0.90054  0.59755  1.0000
  C   C931      1.0  0.30444  0.92041  0.42053  1.0000
  S   S278      1.0  0.02498  0.74778  0.41532  1.0000
  C   C932      1.0  0.30537  0.95073  0.38442  1.0000
  H   H1588     1.0  0.41203  0.97383  0.45289  1.0000
  H   H1589     1.0  0.21933  0.92418  0.55454  1.0000
  H   H1590     1.0  0.19816  0.90065  0.57026  1.0000
  C   C933      1.0  0.08372  0.83917  0.57595  1.0000
  C   C934      1.0  0.06938  0.83664  0.59428  1.0000
  C   C935      1.0  0.10345  0.76872  0.54753  1.0000
  H   H1591     1.0  0.22884  0.94821  0.53149  1.0000
  N   N66       1.0  0.05979  0.90969  0.48571  1.0000
  H   H1592     1.0  0.34119  0.96318  0.54249  1.0000
  H   H1593     1.0  0.07882  0.85295  0.56772  1.0000
  H   H1594     1.0  0.40044  0.98315  0.33036  1.0000
  C   C936      1.0  0.35264  0.93824  0.53220  1.0000
  H   H1595     1.0  0.05986  0.88874  0.51066  1.0000
  H   H1596     1.0  0.07700  0.75116  0.50322  1.0000
  H   H1597     1.0  0.26935  0.91388  0.43524  1.0000
  H   H1598     1.0  0.19268  0.96924  0.58512  1.0000
  H   H1599     1.0  0.45850  0.95317  0.32001  1.0000
  C   C937      1.0  0.34388  0.91455  0.59408  1.0000
  C   C938      1.0  0.10757  0.74806  0.54818  1.0000
  H   H1600     1.0  0.06774  0.84715  0.60216  1.0000
  C   C939      1.0  0.04993  0.90032  0.50410  1.0000
  H   H1601     1.0  0.03901  0.93483  0.48896  1.0000
  H   H1602     1.0  0.01654  0.79203  0.36677  1.0000
  H   H1603     1.0  0.24242  0.91249  0.53115  1.0000
  Fe  Fe140     1.0  0.28144  0.92161  0.61510  1.0000
  Fe  Fe141     1.0  0.24590  0.95064  0.61739  1.0000
  H   H1604     1.0  0.30104  0.95400  0.37115  1.0000
  H   H1605     1.0  0.03473  0.92230  0.47562  1.0000
  C   C940      1.0  0.07625  0.91449  0.48874  1.0000
  H   H1606     1.0  0.13754  0.74612  0.52222  1.0000
  H   H1607     1.0  0.25770  0.93276  0.41987  1.0000
  N   N67       1.0  0.17276  0.98524  0.64035  1.0000
  C   C941      1.0  0.41043  0.95844  0.63463  1.0000
  C   C942      1.0  0.37720  0.97528  0.46563  1.0000
  H   H1608     1.0  0.00474  0.82408  0.53424  1.0000
  H   H1609     1.0  0.04461  0.95302  0.45985  1.0000
  H   H1610     1.0  0.10098  0.77080  0.56172  1.0000
  H   H1611     1.0  0.02038  0.78691  0.49005  1.0000
  H   H1612     1.0  0.41239  0.97912  0.41354  1.0000
  H   H1613     1.0  0.28583  0.97746  0.41157  1.0000
  H   H1614     1.0  0.06578  0.74478  0.61367  1.0000
  C   C943      1.0  0.00093  0.75388  0.46864  1.0000
  S   S279      1.0  0.32884  0.97413  0.45105  1.0000
  C   C944      1.0  0.15748  0.97761  0.63846  1.0000
  H   H1615     1.0  0.00113  0.78425  0.42218  1.0000
  C   C945      1.0  0.49284  0.92472  0.33453  1.0000
  H   H1616     1.0  0.36332  0.97214  0.46802  1.0000
  H   H1617     1.0  0.16298  0.96841  0.62841  1.0000
  H   H1618     1.0  0.08505  0.93073  0.50217  1.0000
  H   H1619     1.0  0.43105  0.97354  0.42486  1.0000
  C   C946      1.0  0.03344  0.74967  0.49480  1.0000
  H   H1620     1.0  0.30983  0.96286  0.38514  1.0000
  N   N68       1.0  0.38575  0.97946  0.44528  1.0000
  H   H1621     1.0  0.34532  0.94681  0.65078  1.0000
  H   H1622     1.0  0.47784  0.92718  0.33486  1.0000
  C   C947      1.0  0.49204  0.88649  0.34833  1.0000
  N   N69       1.0  0.00073  0.77029  0.49372  1.0000
  C   C948      1.0  0.09122  0.74984  0.52437  1.0000
  H   H1623     1.0  0.10167  0.74597  0.49573  1.0000
  H   H1624     1.0  0.49390  0.91846  0.34893  1.0000
  H   H1625     1.0  0.46416  0.97340  0.32159  1.0000
  C   C949      1.0  0.40443  0.98358  0.44256  1.0000
  C   C950      1.0  0.22186  0.97575  0.53630  1.0000
  H   H1626     1.0  0.22611  0.96489  0.51131  1.0000
  H   H1627     1.0  0.48907  0.95128  0.34080  1.0000
  C   C951      1.0  0.18771  0.96900  0.64589  1.0000
  H   H1628     1.0  0.09655  0.74235  0.55915  1.0000
  S   S280      1.0  0.28005  0.98087  0.47981  1.0000
  H   H1629     1.0  0.43146  0.97701  0.33124  1.0000
  H   H1630     1.0  0.47775  0.98678  0.43424  1.0000
  H   H1631     1.0  0.33197  0.92244  0.64912  1.0000
  H   H1632     1.0  0.20075  0.97283  0.64502  1.0000
  H   H1633     1.0  0.99925  0.81679  0.48978  1.0000
  H   H1634     1.0  0.21506  0.97096  0.55083  1.0000
  H   H1635     1.0  0.13032  0.73921  0.50575  1.0000
  H   H1636     1.0  0.13015  0.98423  0.63246  1.0000
  H   H1637     1.0  0.15178  0.96899  0.65168  1.0000
  S   S281      1.0  0.43534  0.83277  0.93170  1.0000
  H   H1638     1.0  0.45457  0.84948  0.86916  1.0000
  Fe  Fe142     1.0  0.42995  0.95607  0.84715  1.0000
  S   S282      1.0  0.46348  0.87151  0.91925  1.0000
  C   C952      1.0  0.44298  0.74025  0.98083  1.0000
  C   C953      1.0  0.46370  0.87527  0.83212  1.0000
  Fe  Fe143     1.0  0.45417  0.80833  0.94486  1.0000
  Fe  Fe144     1.0  0.47092  0.96887  0.65761  1.0000
  C   C954      1.0  0.47835  0.90314  0.84124  1.0000
  H   H1639     1.0  0.43459  0.96149  0.67109  1.0000
  C   C955      1.0  0.32255  0.91965  0.69544  1.0000
  H   H1640     1.0  0.49542  0.97357  0.81410  1.0000
  H   H1641     1.0  0.48111  0.77411  0.96675  1.0000
  S   S283      1.0  0.43563  0.80643  0.97274  1.0000
  H   H1642     1.0  0.41095  0.95503  0.79019  1.0000
  H   H1643     1.0  0.41234  0.98719  0.87554  1.0000
  C   C956      1.0  0.46752  0.88301  0.81118  1.0000
  C   C957      1.0  0.31228  0.89328  0.67923  1.0000
  C   C958      1.0  0.37455  0.97981  0.76039  1.0000
  C   C959      1.0  0.45820  0.90570  0.83966  1.0000
  S   S284      1.0  0.29804  0.96077  0.72380  1.0000
  H   H1644     1.0  0.32962  0.89221  0.71353  1.0000
  S   S285      1.0  0.46245  0.78243  0.93441  1.0000
  S   S286      1.0  0.35262  0.94424  0.71283  1.0000
  H   H1645     1.0  0.43603  0.86056  0.88536  1.0000
  C   C960      1.0  0.39633  0.95262  0.77125  1.0000
  H   H1646     1.0  0.45463  0.88802  0.80589  1.0000
  H   H1647     1.0  0.43259  0.86141  0.86347  1.0000
  N   N70       1.0  0.33390  0.91402  0.67781  1.0000
  H   H1648     1.0  0.43424  0.78574  0.91774  1.0000
  C   C961      1.0  0.44307  0.86169  0.87060  1.0000
  Fe  Fe145     1.0  0.45082  0.84890  0.93973  1.0000
  H   H1649     1.0  0.46460  0.87549  0.86663  1.0000
  S   S287      1.0  0.43142  0.85042  0.96738  1.0000
  S   S288      1.0  0.48580  0.94078  0.66932  1.0000
  S   S289      1.0  0.25995  0.92850  0.68074  1.0000
  Fe  Fe146     1.0  0.47416  0.94933  0.69644  1.0000
  S   S290      1.0  0.45964  0.93247  0.72189  1.0000
  H   H1650     1.0  0.38019  0.90068  0.68284  1.0000
  H   H1651     1.0  0.47149  0.95470  0.88303  1.0000
  C   C962      1.0  0.48868  0.93038  0.75902  1.0000
  Fe  Fe147     1.0  0.48301  0.98689  0.68125  1.0000
  C   C963      1.0  0.32641  0.90691  0.71366  1.0000
  C   C964      1.0  0.47478  0.93228  0.77489  1.0000
  Fe  Fe148     1.0  0.36222  0.96251  0.72468  1.0000
  H   H1652     1.0  0.44833  0.75393  0.92774  1.0000
  C   C965      1.0  0.45641  0.93343  0.77460  1.0000
  C   C966      1.0  0.28688  0.95334  0.71107  1.0000
  C   C967      1.0  0.28921  0.95908  0.69193  1.0000
  C   C968      1.0  0.28062  0.95191  0.68239  1.0000
  C   C969      1.0  0.26977  0.93906  0.69199  1.0000
  C   C970      1.0  0.26710  0.93384  0.71111  1.0000
  C   C971      1.0  0.27549  0.94104  0.72060  1.0000
  S   S291      1.0  0.33532  0.98331  0.72662  1.0000
  H   H1653     1.0  0.43370  0.74896  0.89689  1.0000
  C   C972      1.0  0.39417  0.76026  0.90038  1.0000
  H   H1654     1.0  0.27346  0.93672  0.73539  1.0000
  H   H1655     1.0  0.30568  0.90225  0.66793  1.0000
  H   H1656     1.0  0.32706  0.95293  0.66984  1.0000
  S   S292      1.0  0.38746  0.83166  0.96736  1.0000
  H   H1657     1.0  0.30331  0.89577  0.69263  1.0000
  Fe  Fe149     1.0  0.32667  0.96632  0.71252  1.0000
  H   H1658     1.0  0.45686  0.92875  0.87332  1.0000
  S   S293      1.0  0.45760  0.97660  0.68478  1.0000
  C   C973      1.0  0.40782  0.80380  0.91883  1.0000
  H   H1659     1.0  0.45778  0.86309  0.83448  1.0000
  H   H1660     1.0  0.41057  0.81256  0.90492  1.0000
  H   H1661     1.0  0.38867  0.78484  0.90994  1.0000
  H   H1662     1.0  0.45712  0.91373  0.82561  1.0000
  S   S294      1.0  0.42747  0.94781  0.82241  1.0000
  H   H1663     1.0  0.43758  0.94705  0.92865  1.0000
  H   H1664     1.0  0.41927  0.91539  0.85540  1.0000
  C   C974      1.0  0.46576  0.93175  0.74231  1.0000
  H   H1665     1.0  0.25865  0.92403  0.71863  1.0000
  C   C975      1.0  0.47243  0.96851  0.88370  1.0000
  C   C976      1.0  0.44996  0.75321  0.91323  1.0000
  C   C977      1.0  0.45030  0.89124  0.90752  1.0000
  C   C978      1.0  0.43096  0.89482  0.91146  1.0000
  C   C979      1.0  0.42096  0.91074  0.90174  1.0000
  C   C980      1.0  0.43024  0.92294  0.88781  1.0000
  C   C981      1.0  0.44958  0.91933  0.88384  1.0000
  C   C982      1.0  0.45955  0.90359  0.89376  1.0000
  H   H1666     1.0  0.42372  0.88540  0.92209  1.0000
  H   H1667     1.0  0.40599  0.91353  0.90494  1.0000
  H   H1668     1.0  0.47452  0.90090  0.89075  1.0000
  H   H1669     1.0  0.40348  0.90758  0.84795  1.0000
  S   S295      1.0  0.37542  0.97731  0.69716  1.0000
  H   H1670     1.0  0.39436  0.76775  0.88597  1.0000
  H   H1671     1.0  0.48989  0.97528  0.77670  1.0000
  H   H1672     1.0  0.29754  0.96902  0.68455  1.0000
  H   H1673     1.0  0.41400  0.98340  0.89865  1.0000
  S   S296      1.0  0.37850  0.94910  0.74686  1.0000
  S   S297      1.0  0.36108  0.76543  0.95660  1.0000
  Fe  Fe150     1.0  0.36376  0.96081  0.68543  1.0000
  H   H1674     1.0  0.36921  0.88574  0.67789  1.0000
  C   C983      1.0  0.41633  0.90305  0.85334  1.0000
  H   H1675     1.0  0.43778  0.93364  0.75820  1.0000
  H   H1676     1.0  0.39591  0.76688  0.96444  1.0000
  H   H1677     1.0  0.33818  0.88440  0.68748  1.0000
  H   H1678     1.0  0.44264  0.88905  0.87286  1.0000
  H   H1679     1.0  0.45404  0.94189  0.90847  1.0000
  S   S298      1.0  0.46007  0.95646  0.83700  1.0000
  H   H1680     1.0  0.34043  0.89191  0.66358  1.0000
  H   H1681     1.0  0.28264  0.95601  0.66766  1.0000
  N   N71       1.0  0.41838  0.77381  0.90669  1.0000
  H   H1682     1.0  0.34427  0.80294  0.95562  1.0000
  H   H1683     1.0  0.42695  0.98049  0.75524  1.0000
  C   C984      1.0  0.33220  0.89544  0.67694  1.0000
  C   C985      1.0  0.42783  0.96088  0.66086  1.0000
  H   H1684     1.0  0.45226  0.77795  0.87490  1.0000
  S   S299      1.0  0.47128  0.82410  0.95088  1.0000
  H   H1685     1.0  0.49222  0.78004  0.98063  1.0000
  H   H1686     1.0  0.47522  0.89409  0.80712  1.0000
  C   C986      1.0  0.38333  0.96149  0.76031  1.0000
  H   H1687     1.0  0.44146  0.96572  0.87741  1.0000
  H   H1688     1.0  0.47727  0.86964  0.83621  1.0000
  H   H1689     1.0  0.41123  0.81029  0.92822  1.0000
  H   H1690     1.0  0.31362  0.90895  0.72460  1.0000
  C   C987      1.0  0.45052  0.87941  0.86368  1.0000
  H   H1691     1.0  0.39492  0.76473  0.92644  1.0000
  S   S300      1.0  0.33689  0.98126  0.68403  1.0000
  Fe  Fe151     1.0  0.45685  0.95099  0.81127  1.0000
  H   H1692     1.0  0.42206  0.77541  0.87768  1.0000
  C   C988      1.0  0.38117  0.81271  0.96416  1.0000
  Fe  Fe152     1.0  0.45084  0.82455  0.97788  1.0000
  H   H1693     1.0  0.40642  0.79296  0.96811  1.0000
  H   H1694     1.0  0.45884  0.73957  0.91157  1.0000
  H   H1695     1.0  0.33761  0.91021  0.71778  1.0000
  H   H1696     1.0  0.41330  0.89358  0.86681  1.0000
  H   H1697     1.0  0.45759  0.76355  0.90403  1.0000
  H   H1698     1.0  0.44561  0.93475  0.78680  1.0000
  H   H1699     1.0  0.48847  0.89490  0.83168  1.0000
  N   N72       1.0  0.45115  0.88846  0.84375  1.0000
  S   S301      1.0  0.48045  0.93374  0.79483  1.0000
  H   H1700     1.0  0.47594  0.97739  0.85364  1.0000
  C   C989      1.0  0.40070  0.96198  0.78209  1.0000
  H   H1701     1.0  0.41619  0.97123  0.73297  1.0000
  Fe  Fe153     1.0  0.42004  0.97799  0.81103  1.0000
  H   H1702     1.0  0.48138  0.74511  0.93646  1.0000
  H   H1703     1.0  0.48145  0.96592  0.89356  1.0000
  H   H1704     1.0  0.40352  0.74655  0.90061  1.0000
  H   H1705     1.0  0.30752  0.92203  0.69616  1.0000
  C   C990      1.0  0.38691  0.78036  0.96335  1.0000
  H   H1706     1.0  0.37988  0.75808  0.90649  1.0000
  C   C991      1.0  0.39190  0.98026  0.78225  1.0000
  H   H1707     1.0  0.43022  0.95277  0.90757  1.0000
  C   C992      1.0  0.46546  0.97783  0.74434  1.0000
  H   H1708     1.0  0.39285  0.80390  0.92369  1.0000
  H   H1709     1.0  0.31276  0.87900  0.67881  1.0000
  H   H1710     1.0  0.40315  0.93845  0.77122  1.0000
  H   H1711     1.0  0.49486  0.92937  0.73032  1.0000
  S   S302      1.0  0.41729  0.94274  0.87589  1.0000
  C   C993      1.0  0.35784  0.80064  0.95842  1.0000
  H   H1712     1.0  0.41124  0.79629  0.88416  1.0000
  H   H1713     1.0  0.46717  0.75124  0.96936  1.0000
  H   H1714     1.0  0.35442  0.82866  0.95993  1.0000
  H   H1715     1.0  0.40492  0.95147  0.68088  1.0000
  H   H1716     1.0  0.43217  0.90325  0.82583  1.0000
  C   C994      1.0  0.48605  0.77219  0.93177  1.0000
  C   C995      1.0  0.43216  0.89368  0.83945  1.0000
  H   H1717     1.0  0.17787  0.96512  0.67617  1.0000
  C   C996      1.0  0.43097  0.75494  0.90916  1.0000
  H   H1718     1.0  0.44556  0.79453  0.88934  1.0000
  Fe  Fe154     1.0  0.41785  0.83176  0.96026  1.0000
  C   C997      1.0  0.45199  0.93275  0.75843  1.0000
  H   H1719     1.0  0.44941  0.91491  0.84897  1.0000
  H   H1720     1.0  0.32435  0.93318  0.69594  1.0000
  C   C998      1.0  0.36359  0.81525  0.96085  1.0000
  H   H1721     1.0  0.47632  0.87194  0.80404  1.0000
  H   H1722     1.0  0.48024  0.89719  0.85548  1.0000
  H   H1723     1.0  0.36111  0.89333  0.69945  1.0000
  C   C999      1.0  0.39867  0.77143  0.91165  1.0000
  C   C1000     1.0  0.42238  0.78393  0.88698  1.0000
  S   S303      1.0  0.44930  0.98047  0.79806  1.0000
  H   H1724     1.0  0.46611  0.98142  0.75697  1.0000
  C   C1001     1.0  0.36940  0.78316  0.95964  1.0000
  H   H1725     1.0  0.35497  0.92641  0.67991  1.0000
  H   H1726     1.0  0.42800  0.88164  0.83799  1.0000
  C   C1002     1.0  0.39287  0.79517  0.96542  1.0000
  H   H1727     1.0  0.31116  0.92974  0.66469  1.0000
  C   C1003     1.0  0.35396  0.91450  0.67518  1.0000
  C   C1004     1.0  0.41994  0.78425  0.91979  1.0000
  H   H1728     1.0  0.41677  0.77641  0.93417  1.0000
  H   H1729     1.0  0.45669  0.96935  0.91849  1.0000
  C   C1005     1.0  0.41092  0.95532  0.66641  1.0000
  H   H1730     1.0  0.44018  0.80121  0.86763  1.0000
  C   C1006     1.0  0.36654  0.89746  0.68455  1.0000
  C   C1007     1.0  0.44190  0.95219  0.91362  1.0000
  C   C1008     1.0  0.49155  0.75316  0.93402  1.0000
  C   C1009     1.0  0.44639  0.97117  0.91015  1.0000
  H   H1731     1.0  0.45733  0.96723  0.74813  1.0000
  C   C1010     1.0  0.44124  0.78947  0.87952  1.0000
  C   C1011     1.0  0.48413  0.93053  0.74263  1.0000
  S   S304      1.0  0.37960  0.95013  0.65991  1.0000
  H   H1732     1.0  0.42417  0.74528  0.92084  1.0000
  C   C1012     1.0  0.33059  0.94694  0.65759  1.0000
  C   C1013     1.0  0.42668  0.97982  0.72784  1.0000
  C   C1014     1.0  0.32646  0.92767  0.66208  1.0000
  H   H1733     1.0  0.36087  0.91656  0.66031  1.0000
  H   H1734     1.0  0.49501  0.79731  0.92682  1.0000
  H   H1735     1.0  0.48190  0.91677  0.83733  1.0000
  C   C1015     1.0  0.45472  0.75352  0.98062  1.0000
  H   H1736     1.0  0.44031  0.97024  0.72547  1.0000
  H   H1737     1.0  0.47977  0.97170  0.73771  1.0000
  C   C1016     1.0  0.48309  0.97652  0.86450  1.0000
  H   H1738     1.0  0.44685  0.76762  0.97603  1.0000
  H   H1739     1.0  0.44043  0.74262  0.96685  1.0000
  H   H1740     1.0  0.19537  0.94678  0.66825  1.0000
  H   H1741     1.0  0.17237  0.94928  0.66616  1.0000
  S   S305      1.0  0.49478  0.98195  0.65278  1.0000
  C   C1017     1.0  0.18273  0.95710  0.66527  1.0000
  N   N73       1.0  0.45348  0.97970  0.89036  1.0000
  C   C1018     1.0  0.48575  0.76929  0.97985  1.0000
  C   C1019     1.0  0.44093  0.97986  0.87843  1.0000
  H   H1742     1.0  0.43376  0.98037  0.91649  1.0000
  C   C1020     1.0  0.40198  0.95450  0.65330  1.0000
  Fe  Fe155     1.0  0.45015  0.98599  0.82459  1.0000
  H   H1743     1.0  0.36443  0.98670  0.75208  1.0000
  S   S306      1.0  0.42009  0.98628  0.83666  1.0000
  C   C1021     1.0  0.49672  0.98644  0.77590  1.0000
  H   H1744     1.0  0.44570  0.98705  0.86406  1.0000
  H   H1745     1.0  0.49687  0.96724  0.86140  1.0000
  H   H1746     1.0  0.49651  0.75646  0.97956  1.0000
  H   H1747     1.0  0.50241  0.08685  0.31536  1.0000
  C   C1022     1.0  0.52598  0.06795  0.28889  1.0000
  C   C1023     1.0  0.52454  0.01317  0.19874  1.0000
  H   H1748     1.0  0.51393  0.99916  0.11206  1.0000
  H   H1749     1.0  0.56199  0.19913  0.02223  1.0000
  H   H1750     1.0  0.51118  0.05788  0.17849  1.0000
  S   S307      1.0  0.53322  0.21692  0.06705  1.0000
  H   H1751     1.0  0.49785  0.99464  0.14197  1.0000
  S   S308      1.0  0.53896  0.04070  0.20064  1.0000
  C   C1024     1.0  0.52458  0.02552  0.26822  1.0000
  H   H1752     1.0  0.58456  0.02561  0.22095  1.0000
  H   H1753     1.0  0.52008  0.09745  0.30017  1.0000
  N   N74       1.0  0.55611  0.00918  0.25091  1.0000
  H   H1754     1.0  0.55270  0.07894  0.29915  1.0000
  H   H1755     1.0  0.58927  0.09513  0.20111  1.0000
  H   H1756     1.0  0.55931  0.00836  0.22250  1.0000
  H   H1757     1.0  0.53110  0.02150  0.24047  1.0000
  S   S309      1.0  0.57167  0.12920  0.29395  1.0000
  H   H1758     1.0  0.56080  0.03216  0.25859  1.0000
  C   C1025     1.0  0.51145  0.04339  0.18287  1.0000
  Fe  Fe156     1.0  0.53480  0.10992  0.19477  1.0000
  S   S310      1.0  0.55549  0.08349  0.20066  1.0000
  S   S311      1.0  0.54458  0.13471  0.17572  1.0000
  S   S312      1.0  0.61270  0.09363  0.31325  1.0000
  S   S313      1.0  0.52282  0.06989  0.23445  1.0000
  H   H1759     1.0  0.60476  0.13429  0.25042  1.0000
  Fe  Fe157     1.0  0.54458  0.08536  0.23010  1.0000
  S   S314      1.0  0.56456  0.07567  0.24880  1.0000
  Fe  Fe158     1.0  0.53221  0.06976  0.20452  1.0000
  H   H1760     1.0  0.59299  0.01574  0.24194  1.0000
  S   S315      1.0  0.52571  0.11271  0.22423  1.0000
  S   S316      1.0  0.51214  0.09612  0.19601  1.0000
  H   H1761     1.0  0.57677  0.05150  0.30041  1.0000
  Fe  Fe159     1.0  0.50468  0.09704  0.22603  1.0000
  H   H1762     1.0  0.58069  0.14439  0.17847  1.0000
  C   C1026     1.0  0.56932  0.11444  0.28147  1.0000
  C   C1027     1.0  0.55459  0.11913  0.27254  1.0000
  C   C1028     1.0  0.55288  0.10734  0.26246  1.0000
  C   C1029     1.0  0.56608  0.09096  0.26108  1.0000
  C   C1030     1.0  0.58082  0.08639  0.26989  1.0000
  C   C1031     1.0  0.58233  0.09799  0.28018  1.0000
  H   H1763     1.0  0.54438  0.13176  0.27365  1.0000
  H   H1764     1.0  0.54130  0.11088  0.25591  1.0000
  H   H1765     1.0  0.59106  0.07374  0.26893  1.0000
  H   H1766     1.0  0.59378  0.09426  0.28687  1.0000
  H   H1767     1.0  0.58801  0.99872  0.27176  1.0000
  C   C1032     1.0  0.50235  0.23167  0.02038  1.0000
  S   S317      1.0  0.51923  0.22462  0.10892  1.0000
  C   C1033     1.0  0.49944  0.03590  0.17775  1.0000
  H   H1768     1.0  0.54635  0.23586  0.02921  1.0000
  H   H1769     1.0  0.60826  0.23303  0.98860  1.0000
  H   H1770     1.0  0.58193  0.16701  0.17909  1.0000
  H   H1771     1.0  0.67023  0.05617  0.31438  1.0000
  H   H1772     1.0  0.54358  0.14312  0.21322  1.0000
  H   H1773     1.0  0.55859  0.22902  0.98678  1.0000
  C   C1034     1.0  0.56289  0.05015  0.30003  1.0000
  C   C1035     1.0  0.53591  0.14584  0.15582  1.0000
  C   C1036     1.0  0.52352  0.13917  0.15054  1.0000
  C   C1037     1.0  0.51641  0.14881  0.13490  1.0000
  C   C1038     1.0  0.52153  0.16519  0.12457  1.0000
  C   C1039     1.0  0.53402  0.17177  0.12980  1.0000
  C   C1040     1.0  0.54119  0.16211  0.14538  1.0000
  H   H1774     1.0  0.51944  0.12662  0.15848  1.0000
  H   H1775     1.0  0.53820  0.18426  0.12182  1.0000
  H   H1776     1.0  0.55083  0.16729  0.14936  1.0000
  H   H1777     1.0  0.50681  0.14362  0.13085  1.0000
  H   H1778     1.0  0.60579  0.22738  0.02869  1.0000
  C   C1041     1.0  0.58155  0.98912  0.26863  1.0000
  C   C1042     1.0  0.54837  0.06612  0.30736  1.0000
  C   C1043     1.0  0.49956  0.01715  0.18364  1.0000
  C   C1044     1.0  0.66707  0.04662  0.30792  1.0000
  C   C1045     1.0  0.56091  0.99744  0.26866  1.0000
  C   C1046     1.0  0.52398  0.03201  0.19345  1.0000
  C   C1047     1.0  0.55493  0.20788  0.01118  1.0000
  H   H1779     1.0  0.51147  0.99955  0.08977  1.0000
  H   H1780     1.0  0.60170  0.09739  0.21626  1.0000
  H   H1781     1.0  0.49801  0.21102  0.04512  1.0000
  C   C1048     1.0  0.56262  0.02690  0.24604  1.0000
  C   C1049     1.0  0.58244  0.22452  0.01973  1.0000
  Fe  Fe160     1.0  0.51422  0.20670  0.09339  1.0000
  H   H1782     1.0  0.53546  0.05645  0.28299  1.0000
  H   H1783     1.0  0.60343  0.15220  0.23040  1.0000
  H   H1784     1.0  0.52983  0.08029  0.27886  1.0000
  C   C1050     1.0  0.50375  0.99957  0.10419  1.0000
  H   H1785     1.0  0.58285  0.14871  0.24814  1.0000
  C   C1051     1.0  0.50343  0.23621  0.00138  1.0000
  C   C1052     1.0  0.53528  0.01394  0.25367  1.0000
  H   H1786     1.0  0.53872  0.16551  0.21730  1.0000
  C   C1053     1.0  0.51222  0.00579  0.19406  1.0000
  H   H1787     1.0  0.52895  0.03858  0.26534  1.0000
  C   C1054     1.0  0.50632  0.06756  0.28799  1.0000
  H   H1788     1.0  0.50244  0.17129  0.16439  1.0000
  C   C1055     1.0  0.59171  0.23541  0.02718  1.0000
  H   H1789     1.0  0.55593  0.00548  0.27963  1.0000
  H   H1790     1.0  0.55439  0.16050  0.19673  1.0000
  H   H1791     1.0  0.50963  0.02901  0.26811  1.0000
  H   H1792     1.0  0.51548  0.21618  0.15207  1.0000
  H   H1793     1.0  0.59361  0.21377  0.01380  1.0000
  H   H1794     1.0  0.52582  0.01783  0.28229  1.0000
  H   H1795     1.0  0.57448  0.21656  0.03209  1.0000
  H   H1796     1.0  0.56360  0.05046  0.28551  1.0000
  H   H1797     1.0  0.50281  0.19810  0.13915  1.0000
  H   H1798     1.0  0.60177  0.15133  0.16927  1.0000
  N   N75       1.0  0.52832  0.06768  0.30766  1.0000
  H   H1799     1.0  0.52960  0.00140  0.25802  1.0000
  C   C1056     1.0  0.58278  0.02669  0.23537  1.0000
  H   H1800     1.0  0.55327  0.19863  0.00334  1.0000
  S   S318      1.0  0.51149  0.17746  0.10569  1.0000
  H   H1801     1.0  0.51471  0.19454  0.16723  1.0000
  H   H1802     1.0  0.55407  0.03776  0.23721  1.0000
  H   H1803     1.0  0.53431  0.00427  0.20678  1.0000
  H   H1804     1.0  0.60444  0.11062  0.19271  1.0000
  H   H1805     1.0  0.58606  0.03993  0.23467  1.0000
  H   H1806     1.0  0.56125  0.03667  0.30884  1.0000
  C   C1057     1.0  0.49873  0.21471  0.03046  1.0000
  H   H1807     1.0  0.60974  0.13680  0.19659  1.0000
  N   N76       1.0  0.58293  0.13600  0.21537  1.0000
  C   C1058     1.0  0.59324  0.12806  0.23077  1.0000
  C   C1059     1.0  0.57801  0.12031  0.21121  1.0000
  C   C1060     1.0  0.56553  0.14934  0.22213  1.0000
  C   C1061     1.0  0.59551  0.14551  0.19922  1.0000
  C   C1062     1.0  0.59612  0.14186  0.24022  1.0000
  C   C1063     1.0  0.59452  0.10516  0.20498  1.0000
  C   C1064     1.0  0.54994  0.15478  0.21149  1.0000
  C   C1065     1.0  0.58935  0.15242  0.18072  1.0000
  H   H1808     1.0  0.58601  0.11836  0.24181  1.0000
  H   H1809     1.0  0.60725  0.11981  0.22593  1.0000
  H   H1810     1.0  0.56974  0.12488  0.20055  1.0000
  H   H1811     1.0  0.56879  0.11369  0.22351  1.0000
  H   H1812     1.0  0.55903  0.14362  0.23657  1.0000
  H   H1813     1.0  0.56883  0.16230  0.22244  1.0000
  H   H1814     1.0  0.59773  0.15771  0.20246  1.0000
  C   C1066     1.0  0.51756  0.08599  0.31219  1.0000
  C   C1067     1.0  0.56369  0.99937  0.23515  1.0000
  H   H1815     1.0  0.53382  0.03230  0.30435  1.0000
  H   H1816     1.0  0.68002  0.03726  0.30262  1.0000
  C   C1068     1.0  0.50589  0.20760  0.16150  1.0000
  C   C1069     1.0  0.56623  0.22167  0.99793  1.0000
  C   C1070     1.0  0.50018  0.22423  0.99258  1.0000
  H   H1817     1.0  0.51248  0.99131  0.19861  1.0000
  H   H1818     1.0  0.64914  0.02833  0.31279  1.0000
  N   N77       1.0  0.57019  0.23513  0.00643  1.0000
  H   H1819     1.0  0.66138  0.05514  0.29586  1.0000
  H   H1820     1.0  0.57901  0.99638  0.23133  1.0000
  H   H1821     1.0  0.54076  0.21472  0.01730  1.0000
  Fe  Fe161     1.0  0.58480  0.11268  0.31770  1.0000
  H   H1822     1.0  0.50561  0.06965  0.27345  1.0000
  H   H1823     1.0  0.50273  0.05421  0.29530  1.0000
  H   H1824     1.0  0.50229  0.00980  0.24234  1.0000
  H   H1825     1.0  0.57930  0.21327  0.99126  1.0000
  H   H1826     1.0  0.49784  0.21499  0.17256  1.0000
  H   H1827     1.0  0.49760  0.11895  0.25473  1.0000
  C   C1071     1.0  0.52682  0.03325  0.31864  1.0000
  Fe  Fe162     1.0  0.53576  0.23682  0.08200  1.0000
  C   C1072     1.0  0.76133  0.00850  0.42099  1.0000
  Fe  Fe163     1.0  0.77402  0.11654  0.51490  1.0000
  S   S319      1.0  0.78283  0.12519  0.53590  1.0000
  S   S320      1.0  0.74618  0.12946  0.50748  1.0000
  Fe  Fe164     1.0  0.80730  0.08515  0.51130  1.0000
  S   S321      1.0  0.81956  0.09114  0.53187  1.0000
  S   S322      1.0  0.81782  0.06230  0.49539  1.0000
  Fe  Fe165     1.0  0.79024  0.09537  0.54826  1.0000
  S   S323      1.0  0.78409  0.08756  0.57913  1.0000
  Fe  Fe166     1.0  0.81163  0.12085  0.51830  1.0000
  S   S324      1.0  0.82586  0.14428  0.51478  1.0000
  S   S325      1.0  0.77874  0.08704  0.52904  1.0000
  S   S326      1.0  0.80205  0.11460  0.49596  1.0000
  H   H1828     1.0  0.62144  0.12160  0.44483  1.0000
  H   H1829     1.0  0.50517  0.05617  0.32505  1.0000
  Fe  Fe167     1.0  0.67376  0.11299  0.42035  1.0000
  S   S327      1.0  0.66124  0.08866  0.43446  1.0000
  S   S328      1.0  0.65921  0.13399  0.39953  1.0000
  Fe  Fe168     1.0  0.70439  0.09973  0.44212  1.0000
  S   S329      1.0  0.69368  0.07466  0.45809  1.0000
  S   S330      1.0  0.73289  0.09999  0.44457  1.0000
  Fe  Fe169     1.0  0.69046  0.07269  0.43088  1.0000
  S   S331      1.0  0.70106  0.04589  0.42208  1.0000
  Fe  Fe170     1.0  0.66563  0.09340  0.46000  1.0000
  S   S332      1.0  0.64188  0.09179  0.48451  1.0000
  S   S333      1.0  0.70284  0.09647  0.41464  1.0000
  S   S334      1.0  0.67635  0.11896  0.44631  1.0000
  Fe  Fe171     1.0  0.69240  0.03784  0.57402  1.0000
  S   S335      1.0  0.66220  0.04868  0.57472  1.0000
  S   S336      1.0  0.70960  0.01929  0.55503  1.0000
  Fe  Fe172     1.0  0.69229  0.05947  0.60111  1.0000
  S   S337      1.0  0.66197  0.07182  0.60433  1.0000
  S   S338      1.0  0.70639  0.06768  0.61836  1.0000
  Fe  Fe173     1.0  0.65925  0.04374  0.60509  1.0000
  S   S339      1.0  0.63763  0.02988  0.62547  1.0000
  Fe  Fe174     1.0  0.66780  0.07557  0.57383  1.0000
  S   S340      1.0  0.65532  0.10216  0.55732  1.0000
  S   S341      1.0  0.68921  0.03083  0.60460  1.0000
  S   S342      1.0  0.69836  0.06532  0.57035  1.0000
  Fe  Fe175     1.0  0.89751  0.17260  0.55515  1.0000
  S   S343      1.0  0.90324  0.17649  0.58081  1.0000
  S   S344      1.0  0.88738  0.14805  0.55376  1.0000
  Fe  Fe176     1.0  0.89235  0.20642  0.57064  1.0000
  H   H1830     1.0  0.66247  0.99707  0.46156  1.0000
  Fe  Fe177     1.0  0.93050  0.18218  0.56324  1.0000
  S   S345      1.0  0.95666  0.17299  0.57422  1.0000
  H   H1831     1.0  0.65413  0.09411  0.63321  1.0000
  H   H1832     1.0  0.53711  0.01887  0.63520  1.0000
  H   H1833     1.0  0.74727  0.98892  0.41830  1.0000
  C   C1073     1.0  0.57683  0.03918  0.58532  1.0000
  C   C1074     1.0  0.63743  0.99329  0.48199  1.0000
  H   H1834     1.0  0.66600  0.11693  0.58784  1.0000
  C   C1075     1.0  0.98507  0.18775  0.57436  1.0000
  H   H1835     1.0  0.68526  0.99759  0.35743  1.0000
  C   C1076     1.0  0.97332  0.19770  0.54656  1.0000
  C   C1077     1.0  0.97252  0.18731  0.56445  1.0000
  H   H1836     1.0  0.66772  0.02480  0.36150  1.0000
  H   H1837     1.0  0.74781  0.02381  0.45035  1.0000
  H   H1838     1.0  0.68802  0.03510  0.47099  1.0000
  H   H1839     1.0  0.77558  0.06738  0.46992  1.0000
  C   C1078     1.0  0.64703  0.09503  0.50388  1.0000
  C   C1079     1.0  0.65847  0.08098  0.51392  1.0000
  C   C1080     1.0  0.66130  0.08319  0.53027  1.0000
  C   C1081     1.0  0.65286  0.09951  0.53643  1.0000
  C   C1082     1.0  0.64162  0.11358  0.52626  1.0000
  C   C1083     1.0  0.63855  0.11127  0.51011  1.0000
  H   H1840     1.0  0.66485  0.06832  0.50924  1.0000
  H   H1841     1.0  0.67003  0.07228  0.53804  1.0000
  H   H1842     1.0  0.63499  0.12617  0.53103  1.0000
  H   H1843     1.0  0.62960  0.12208  0.50244  1.0000
  C   C1084     1.0  0.67189  0.00138  0.53050  1.0000
  C   C1085     1.0  0.68994  0.00235  0.52076  1.0000
  C   C1086     1.0  0.70169  0.00735  0.52857  1.0000
  C   C1087     1.0  0.69529  0.01183  0.54587  1.0000
  C   C1088     1.0  0.67746  0.01027  0.55582  1.0000
  C   C1089     1.0  0.66575  0.00514  0.54810  1.0000
  H   H1844     1.0  0.59420  0.00766  0.42131  1.0000
  S   S346      1.0  0.56972  0.09103  0.33508  1.0000
  H   H1845     1.0  0.67282  0.01269  0.56960  1.0000
  H   H1846     1.0  0.65188  0.00438  0.55564  1.0000
  C   C1090     1.0  0.65959  0.02979  0.40134  1.0000
  C   C1091     1.0  0.65840  0.04832  0.40013  1.0000
  C   C1092     1.0  0.67156  0.05359  0.40581  1.0000
  C   C1093     1.0  0.68619  0.04035  0.41207  1.0000
  C   C1094     1.0  0.68816  0.02202  0.41182  1.0000
  C   C1095     1.0  0.67470  0.01670  0.40676  1.0000
  H   H1847     1.0  0.64699  0.05852  0.39550  1.0000
  H   H1848     1.0  0.67028  0.06783  0.40554  1.0000
  H   H1849     1.0  0.69964  0.01180  0.41636  1.0000
  H   H1850     1.0  0.59792  0.00919  0.32902  1.0000
  C   C1096     1.0  0.84290  0.14495  0.52591  1.0000
  C   C1097     1.0  0.84291  0.16158  0.52982  1.0000
  C   C1098     1.0  0.85652  0.16286  0.53814  1.0000
  C   C1099     1.0  0.87047  0.14753  0.54241  1.0000
  C   C1100     1.0  0.87053  0.13092  0.53839  1.0000
  C   C1101     1.0  0.85678  0.12960  0.53028  1.0000
  H   H1851     1.0  0.83226  0.17355  0.52645  1.0000
  H   H1852     1.0  0.85611  0.17563  0.54144  1.0000
  H   H1853     1.0  0.88120  0.11896  0.54170  1.0000
  H   H1854     1.0  0.85709  0.11677  0.52715  1.0000
  C   C1102     1.0  0.76285  0.08119  0.58977  1.0000
  C   C1103     1.0  0.75335  0.07538  0.58019  1.0000
  C   C1104     1.0  0.73616  0.07082  0.58898  1.0000
  C   C1105     1.0  0.72828  0.07240  0.60723  1.0000
  C   C1106     1.0  0.73783  0.07817  0.61678  1.0000
  C   C1107     1.0  0.75514  0.08239  0.60812  1.0000
  H   H1855     1.0  0.75937  0.07409  0.56613  1.0000
  H   H1856     1.0  0.72917  0.06591  0.58169  1.0000
  H   H1857     1.0  0.73188  0.07931  0.63091  1.0000
  H   H1858     1.0  0.76245  0.08679  0.61562  1.0000
  C   C1108     1.0  0.74249  0.12199  0.48949  1.0000
  C   C1109     1.0  0.75724  0.11213  0.47840  1.0000
  C   C1110     1.0  0.75412  0.10618  0.46419  1.0000
  C   C1111     1.0  0.73618  0.10939  0.46140  1.0000
  C   C1112     1.0  0.72135  0.11914  0.47255  1.0000
  C   C1113     1.0  0.72455  0.12568  0.48639  1.0000
  H   H1859     1.0  0.77112  0.10932  0.48057  1.0000
  H   H1860     1.0  0.76568  0.09895  0.45537  1.0000
  H   H1861     1.0  0.70746  0.12174  0.47044  1.0000
  H   H1862     1.0  0.71308  0.13346  0.49475  1.0000
  C   C1114     1.0  0.80722  0.04332  0.50337  1.0000
  C   C1115     1.0  0.80735  0.03294  0.49101  1.0000
  C   C1116     1.0  0.79939  0.01748  0.49719  1.0000
  C   C1117     1.0  0.79169  0.01204  0.51589  1.0000
  C   C1118     1.0  0.79156  0.02243  0.52818  1.0000
  C   C1119     1.0  0.79910  0.03810  0.52194  1.0000
  H   H1863     1.0  0.81351  0.03701  0.47660  1.0000
  H   H1864     1.0  0.79925  0.00981  0.48753  1.0000
  H   H1865     1.0  0.78562  0.01834  0.54266  1.0000
  H   H1866     1.0  0.79905  0.04589  0.53160  1.0000
  C   C1120     1.0  0.59278  0.04078  0.56817  1.0000
  C   C1121     1.0  0.57897  0.00928  0.42346  1.0000
  S   S347      1.0  0.53619  0.00623  0.36618  1.0000
  C   C1122     1.0  0.61989  0.04529  0.63668  1.0000
  C   C1123     1.0  0.61557  0.06371  0.62808  1.0000
  C   C1124     1.0  0.60191  0.07611  0.63749  1.0000
  C   C1125     1.0  0.66427  0.10662  0.38130  1.0000
  N   N78       1.0  0.57198  0.01939  0.40629  1.0000
  H   H1867     1.0  0.62277  0.06845  0.61421  1.0000
  C   C1126     1.0  0.62381  0.01861  0.58870  1.0000
  C   C1127     1.0  0.65491  0.12433  0.38347  1.0000
  C   C1128     1.0  0.64172  0.13426  0.37301  1.0000
  C   C1129     1.0  0.63780  0.12646  0.36051  1.0000
  H   H1868     1.0  0.96388  0.19719  0.53873  1.0000
  H   H1869     1.0  0.63458  0.14804  0.37451  1.0000
  C   C1130     1.0  0.86848  0.18191  0.47095  1.0000
  C   C1131     1.0  0.74517  0.00401  0.41604  1.0000
  H   H1870     1.0  0.86940  0.17188  0.49956  1.0000
  C   C1132     1.0  0.63195  0.04797  0.44323  1.0000
  C   C1133     1.0  0.51212  0.08405  0.38223  1.0000
  C   C1134     1.0  0.52811  0.08390  0.41056  1.0000
  S   S348      1.0  0.91978  0.21226  0.55458  1.0000
  H   H1871     1.0  0.53415  0.08399  0.42157  1.0000
  H   H1872     1.0  0.56944  0.11307  0.42903  1.0000
  N   N79       1.0  0.75964  0.02838  0.42079  1.0000
  H   H1873     1.0  0.59685  0.01840  0.62998  1.0000
  C   C1135     1.0  0.77826  0.03051  0.42158  1.0000
  C   C1136     1.0  0.75430  0.03979  0.40308  1.0000
  C   C1137     1.0  0.74498  0.03314  0.43729  1.0000
  H   H1874     1.0  0.89158  0.21245  0.48977  1.0000
  H   H1875     1.0  0.52764  0.03988  0.64357  1.0000
  C   C1138     1.0  0.75939  0.05872  0.39569  1.0000
  C   C1139     1.0  0.74049  0.05303  0.43955  1.0000
  H   H1876     1.0  0.63038  0.01038  0.33063  1.0000
  H   H1877     1.0  0.90209  0.19279  0.45745  1.0000
  H   H1878     1.0  0.77815  0.04489  0.42120  1.0000
  C   C1140     1.0  0.87952  0.17409  0.48627  1.0000
  H   H1879     1.0  0.76112  0.03241  0.39163  1.0000
  H   H1880     1.0  0.73915  0.04198  0.40425  1.0000
  H   H1881     1.0  0.73165  0.03059  0.43701  1.0000
  S   S349      1.0  0.55466  0.98767  0.32081  1.0000
  H   H1882     1.0  0.69495  0.99904  0.50730  1.0000
  H   H1883     1.0  0.62785  0.13429  0.35224  1.0000
  H   H1884     1.0  0.73156  0.00886  0.42475  1.0000
  C   C1141     1.0  0.98672  0.20829  0.53856  1.0000
  H   H1885     1.0  0.88728  0.16013  0.48433  1.0000
  H   H1886     1.0  0.64830  0.05685  0.64561  1.0000
  H   H1887     1.0  0.75307  0.06596  0.38368  1.0000
  H   H1888     1.0  0.77458  0.05736  0.39072  1.0000
  H   H1889     1.0  0.75414  0.06774  0.40568  1.0000
  H   H1890     1.0  0.73094  0.06201  0.43072  1.0000
  H   H1891     1.0  0.75288  0.05865  0.43696  1.0000
  H   H1892     1.0  0.73359  0.05360  0.45399  1.0000
  C   C1142     1.0  0.52950  0.08856  0.37809  1.0000
  H   H1893     1.0  0.50375  0.07562  0.42884  1.0000
  N   N80       1.0  0.89239  0.18527  0.48693  1.0000
  H   H1894     1.0  0.63910  0.01644  0.58421  1.0000
  H   H1895     1.0  0.62560  0.04555  0.58810  1.0000
  C   C1143     1.0  0.71455  0.11228  0.55064  1.0000
  C   C1144     1.0  0.70271  0.11109  0.53795  1.0000
  H   H1896     1.0  0.72881  0.11233  0.54227  1.0000
  H   H1897     1.0  0.71598  0.09900  0.56075  1.0000
  H   H1898     1.0  0.71178  0.10922  0.52441  1.0000
  H   H1899     1.0  0.69130  0.12293  0.53525  1.0000
  H   H1900     1.0  0.69661  0.09888  0.54362  1.0000
  S   S350      1.0  0.58882  0.12093  0.34197  1.0000
  C   C1145     1.0  0.64113  0.01747  0.35095  1.0000
  H   H1901     1.0  0.62669  0.10444  0.40083  1.0000
  H   H1902     1.0  0.93085  0.18727  0.48053  1.0000
  H   H1903     1.0  0.94795  0.23375  0.54755  1.0000
  C   C1146     1.0  0.58444  0.03405  0.33879  1.0000
  H   H1904     1.0  0.84763  0.08057  0.57546  1.0000
  H   H1905     1.0  0.60833  0.13415  0.39983  1.0000
  S   S351      1.0  0.88417  0.20226  0.54649  1.0000
  H   H1906     1.0  0.63952  0.04650  0.32434  1.0000
  H   H1907     1.0  0.58853  0.14330  0.37822  1.0000
  H   H1908     1.0  0.64713  0.05261  0.48725  1.0000
  S   S352      1.0  0.92080  0.22068  0.50259  1.0000
  H   H1909     1.0  0.85869  0.22229  0.50185  1.0000
  C   C1147     1.0  0.63512  0.03168  0.48329  1.0000
  H   H1910     1.0  0.71565  0.00789  0.52111  1.0000
  H   H1911     1.0  0.64921  0.02157  0.44005  1.0000
  S   S353      1.0  0.73319  0.98950  0.46616  1.0000
  H   H1912     1.0  0.83854  0.00255  0.47810  1.0000
  C   C1148     1.0  0.58208  0.08451  0.43715  1.0000
  N   N81       1.0  0.59881  0.11010  0.41725  1.0000
  C   C1149     1.0  0.60230  0.11313  0.43436  1.0000
  H   H1913     1.0  0.64261  0.05623  0.43913  1.0000
  N   N82       1.0  0.81821  0.12206  0.58465  1.0000
  C   C1150     1.0  0.63357  0.00450  0.34438  1.0000
  C   C1151     1.0  0.90488  0.22166  0.60371  1.0000
  H   H1914     1.0  0.55284  0.06710  0.64906  1.0000
  H   H1915     1.0  0.57725  0.12480  0.38858  1.0000
  Fe  Fe178     1.0  0.64647  0.99231  0.40699  1.0000
  H   H1916     1.0  0.57040  0.99225  0.65054  1.0000
  C   C1152     1.0  0.52159  0.09107  0.32839  1.0000
  C   C1153     1.0  0.90004  0.17690  0.50400  1.0000
  H   H1917     1.0  0.68576  0.01254  0.32453  1.0000
  C   C1154     1.0  0.90768  0.18527  0.46986  1.0000
  H   H1918     1.0  0.96776  0.20873  0.61554  1.0000
  C   C1155     1.0  0.91230  0.15740  0.50486  1.0000
  C   C1156     1.0  0.92350  0.19417  0.46922  1.0000
  H   H1919     1.0  0.62893  0.99437  0.47218  1.0000
  H   H1920     1.0  0.66790  0.06570  0.64225  1.0000
  H   H1921     1.0  0.90803  0.18579  0.50611  1.0000
  H   H1922     1.0  0.88867  0.17597  0.51645  1.0000
  H   H1923     1.0  0.51462  0.02699  0.32206  1.0000
  H   H1924     1.0  0.56638  0.03359  0.58243  1.0000
  C   C1157     1.0  0.56279  0.03845  0.64730  1.0000
  H   H1925     1.0  0.76259  0.99976  0.43477  1.0000
  H   H1926     1.0  0.52374  0.05206  0.33568  1.0000
  H   H1927     1.0  0.60028  0.99460  0.63090  1.0000
  H   H1928     1.0  0.90443  0.14732  0.50518  1.0000
  H   H1929     1.0  0.92481  0.15674  0.49357  1.0000
  H   H1930     1.0  0.66992  0.02748  0.48937  1.0000
  C   C1158     1.0  0.78593  0.01886  0.43853  1.0000
  H   H1931     1.0  0.56388  0.04720  0.41126  1.0000
  H   H1932     1.0  0.62728  0.02137  0.45508  1.0000
  H   H1933     1.0  0.52227  0.07958  0.34046  1.0000
  H   H1934     1.0  0.91396  0.17112  0.46760  1.0000
  C   C1159     1.0  0.52057  0.05283  0.32230  1.0000
  H   H1935     1.0  0.99022  0.21378  0.60689  1.0000
  H   H1936     1.0  0.85383  0.20125  0.50158  1.0000
  H   H1937     1.0  0.56821  0.99077  0.39049  1.0000
  N   N83       1.0  0.73937  0.05607  0.50527  1.0000
  C   C1160     1.0  0.73720  0.05034  0.52581  1.0000
  C   C1161     1.0  0.73361  0.04227  0.49885  1.0000
  C   C1162     1.0  0.72732  0.07469  0.49990  1.0000
  C   C1163     1.0  0.75923  0.05708  0.49659  1.0000
  C   C1164     1.0  0.74256  0.06282  0.53491  1.0000
  C   C1165     1.0  0.74617  0.02287  0.50068  1.0000
  C   C1166     1.0  0.70668  0.07725  0.50954  1.0000
  C   C1167     1.0  0.76498  0.05893  0.47551  1.0000
  H   H1938     1.0  0.72281  0.04906  0.53265  1.0000
  H   H1939     1.0  0.74591  0.03648  0.52973  1.0000
  H   H1940     1.0  0.73242  0.04720  0.48431  1.0000
  H   H1941     1.0  0.71952  0.04048  0.50667  1.0000
  H   H1942     1.0  0.73265  0.08563  0.50212  1.0000
  H   H1943     1.0  0.72762  0.07801  0.48497  1.0000
  H   H1944     1.0  0.76264  0.06881  0.49966  1.0000
  H   H1945     1.0  0.76845  0.04469  0.50279  1.0000
  H   H1946     1.0  0.75771  0.06180  0.53100  1.0000
  H   H1947     1.0  0.73510  0.07727  0.53170  1.0000
  H   H1948     1.0  0.73911  0.05795  0.55005  1.0000
  H   H1949     1.0  0.76074  0.02266  0.49348  1.0000
  H   H1950     1.0  0.74564  0.01583  0.51526  1.0000
  H   H1951     1.0  0.74109  0.01453  0.49436  1.0000
  H   H1952     1.0  0.69931  0.09122  0.50382  1.0000
  H   H1953     1.0  0.70451  0.07622  0.52448  1.0000
  H   H1954     1.0  0.77210  0.04551  0.47185  1.0000
  H   H1955     1.0  0.91852  0.20897  0.46930  1.0000
  H   H1956     1.0  0.87763  0.18324  0.45706  1.0000
  Fe  Fe179     1.0  0.91296  0.20522  0.53151  1.0000
  H   H1957     1.0  0.78871  0.00399  0.43901  1.0000
  H   H1958     1.0  0.84237  0.00722  0.49832  1.0000
  C   C1168     1.0  0.53653  0.03242  0.41659  1.0000
  H   H1959     1.0  0.53544  0.04576  0.40661  1.0000
  C   C1169     1.0  0.56947  0.01685  0.44098  1.0000
  H   H1960     1.0  0.85896  0.19529  0.47240  1.0000
  C   C1170     1.0  0.64530  0.09997  0.64507  1.0000
  C   C1171     1.0  0.88238  0.20479  0.48761  1.0000
  H   H1961     1.0  0.67892  0.03400  0.64693  1.0000
  N   N84       1.0  0.64833  0.02379  0.46751  1.0000
  C   C1172     1.0  0.57324  0.03924  0.40107  1.0000
  H   H1962     1.0  0.58164  0.01898  0.37734  1.0000
  C   C1173     1.0  0.53037  0.02474  0.64752  1.0000
  H   H1963     1.0  0.59840  0.03664  0.41095  1.0000
  H   H1964     1.0  0.55022  0.06482  0.32142  1.0000
  H   H1965     1.0  0.52314  0.02839  0.41921  1.0000
  C   C1174     1.0  0.65361  0.00321  0.47336  1.0000
  H   H1966     1.0  0.54958  0.01875  0.39470  1.0000
  S   S354      1.0  0.64427  0.09936  0.34131  1.0000
  H   H1967     1.0  0.71552  0.99170  0.60763  1.0000
  C   C1175     1.0  0.55233  0.01783  0.40832  1.0000
  H   H1968     1.0  0.56844  0.04608  0.38804  1.0000
  C   C1176     1.0  0.66596  0.03076  0.46113  1.0000
  C   C1177     1.0  0.84891  0.00082  0.48623  1.0000
  H   H1969     1.0  0.85971  0.17234  0.47193  1.0000
  H   H1970     1.0  0.51041  0.10262  0.33275  1.0000
  H   H1971     1.0  0.77668  0.02206  0.45156  1.0000
  C   C1178     1.0  0.67806  0.02599  0.47544  1.0000
  H   H1972     1.0  0.59134  0.05778  0.39595  1.0000
  H   H1973     1.0  0.60245  0.03805  0.38641  1.0000
  C   C1179     1.0  0.56853  0.04309  0.34953  1.0000
  H   H1974     1.0  0.75356  0.06560  0.46827  1.0000
  H   H1975     1.0  0.62047  0.01140  0.60325  1.0000
  H   H1976     1.0  0.68616  0.10153  0.57867  1.0000
  C   C1180     1.0  0.53748  0.08859  0.39227  1.0000
  H   H1977     1.0  0.63093  0.11655  0.42255  1.0000
  H   H1978     1.0  0.70003  0.06749  0.50704  1.0000
  H   H1979     1.0  0.67859  0.13390  0.55912  1.0000
  H   H1980     1.0  0.60402  0.04145  0.59942  1.0000
  H   H1981     1.0  0.60744  0.09448  0.56811  1.0000
  H   H1982     1.0  0.74161  0.13726  0.56322  1.0000
  H   H1983     1.0  0.68577  0.15699  0.53746  1.0000
  H   H1984     1.0  0.62262  0.05643  0.49412  1.0000
  H   H1985     1.0  0.59908  0.00947  0.38994  1.0000
  H   H1986     1.0  0.53470  0.09593  0.32407  1.0000
  H   H1987     1.0  0.61891  0.01172  0.58083  1.0000
  C   C1181     1.0  0.61490  0.03925  0.58687  1.0000
  H   H1988     1.0  0.61637  0.07168  0.53302  1.0000
  C   C1182     1.0  0.66071  0.09900  0.36849  1.0000
  H   H1989     1.0  0.93394  0.19309  0.45617  1.0000
  H   H1990     1.0  0.58962  0.12131  0.44194  1.0000
  H   H1991     1.0  0.63449  0.11133  0.63965  1.0000
  H   H1992     1.0  0.58161  0.02945  0.59733  1.0000
  H   H1993     1.0  0.57215  0.99395  0.34502  1.0000
  S   S355      1.0  0.92610  0.17544  0.53862  1.0000
  H   H1994     1.0  0.55666  0.01173  0.44804  1.0000
  H   H1995     1.0  0.91179  0.21086  0.59624  1.0000
  H   H1996     1.0  0.53802  0.03421  0.42973  1.0000
  H   H1997     1.0  0.67462  0.09897  0.38915  1.0000
  S   S356      1.0  0.60331  0.07671  0.35732  1.0000
  C   C1183     1.0  0.64741  0.10885  0.35813  1.0000
  C   C1184     1.0  0.61462  0.07991  0.56854  1.0000
  H   H1998     1.0  0.62851  0.03140  0.55240  1.0000
  H   H1999     1.0  0.62557  0.07968  0.55584  1.0000
  N   N85       1.0  0.70770  0.12798  0.56047  1.0000
  C   C1185     1.0  0.68137  0.11428  0.58395  1.0000
  H   H2000     1.0  0.71678  0.11010  0.58476  1.0000
  C   C1186     1.0  0.67302  0.00783  0.33290  1.0000
  H   H2001     1.0  0.59288  0.07575  0.55863  1.0000
  H   H2002     1.0  0.61430  0.13767  0.42543  1.0000
  C   C1187     1.0  0.96734  0.23715  0.61396  1.0000
  S   S357      1.0  0.55896  0.09455  0.38784  1.0000
  H   H2003     1.0  0.74454  0.00964  0.40141  1.0000
  H   H2004     1.0  0.53645  0.09247  0.36395  1.0000
  C   C1188     1.0  0.51090  0.07919  0.41468  1.0000
  C   C1189     1.0  0.71793  0.12374  0.57573  1.0000
  C   C1190     1.0  0.68730  0.13067  0.56926  1.0000
  C   C1191     1.0  0.71179  0.14558  0.54775  1.0000
  C   C1192     1.0  0.73886  0.12343  0.56971  1.0000
  C   C1193     1.0  0.70098  0.15423  0.53237  1.0000
  H   H2005     1.0  0.72663  0.14360  0.54052  1.0000
  H   H2006     1.0  0.74632  0.11388  0.56039  1.0000
  H   H2007     1.0  0.63829  0.02347  0.49665  1.0000
  H   H2008     1.0  0.65329  0.10623  0.65063  1.0000
  C   C1194     1.0  0.55350  0.03469  0.35799  1.0000
  H   H2009     1.0  0.66042  0.05957  0.35615  1.0000
  H   H2010     1.0  0.77888  0.12275  0.59506  1.0000
  H   H2011     1.0  0.57915  0.01219  0.45047  1.0000
  N   N86       1.0  0.60803  0.04871  0.56952  1.0000
  H   H2012     1.0  0.58992  0.07040  0.58283  1.0000
  H   H2013     1.0  0.74494  0.11866  0.58206  1.0000
  H   H2014     1.0  0.68629  0.11220  0.59669  1.0000
  H   H2015     1.0  0.70538  0.14600  0.52168  1.0000
  H   H2016     1.0  0.70453  0.16767  0.52525  1.0000
  S   S358      1.0  0.64131  0.02273  0.39805  1.0000
  H   H2017     1.0  0.67582  0.00238  0.40764  1.0000
  H   H2018     1.0  0.77715  0.12164  0.61873  1.0000
  H   H2019     1.0  0.68272  0.14274  0.57583  1.0000
  H   H2020     1.0  0.55012  0.00417  0.41660  1.0000
  H   H2021     1.0  0.62073  0.03084  0.48403  1.0000
  H   H2022     1.0  0.66324  0.04583  0.45620  1.0000
  C   C1195     1.0  0.88664  0.23085  0.60283  1.0000
  C   C1196     1.0  0.58135  0.10288  0.42307  1.0000
  H   H2023     1.0  0.91722  0.15290  0.51790  1.0000
  C   C1197     1.0  0.62390  0.04607  0.55324  1.0000
  C   C1198     1.0  0.61997  0.05664  0.53428  1.0000
  H   H2024     1.0  0.62106  0.07543  0.58061  1.0000
  H   H2025     1.0  0.86762  0.20190  0.51673  1.0000
  Fe  Fe180     1.0  0.61564  0.09985  0.33882  1.0000
  H   H2026     1.0  0.60903  0.05223  0.53091  1.0000
  C   C1199     1.0  0.78672  0.11762  0.60613  1.0000
  H   H2027     1.0  0.57712  0.10107  0.41133  1.0000
  H   H2028     1.0  0.79036  0.10245  0.60904  1.0000
  Fe  Fe181     1.0  0.57624  0.09705  0.35890  1.0000
  C   C1200     1.0  0.65222  0.05158  0.35296  1.0000
  C   C1201     1.0  0.60040  0.06872  0.56989  1.0000
  H   H2029     1.0  0.71169  0.13380  0.58483  1.0000
  H   H2030     1.0  0.56780  0.05640  0.35156  1.0000
  H   H2031     1.0  0.54103  0.04189  0.36589  1.0000
  H   H2032     1.0  0.70934  0.15624  0.55580  1.0000
  C   C1202     1.0  0.59259  0.04279  0.39852  1.0000
  C   C1203     1.0  0.58225  0.99105  0.39134  1.0000
  H   H2033     1.0  0.64387  0.01043  0.36479  1.0000
  H   H2034     1.0  0.62043  0.00205  0.35408  1.0000
  H   H2035     1.0  0.63279  0.05363  0.52364  1.0000
  H   H2036     1.0  0.56969  0.07928  0.43826  1.0000
  H   H2037     1.0  0.80781  0.15801  0.56234  1.0000
  H   H2038     1.0  0.58460  0.13854  0.41129  1.0000
  H   H2039     1.0  0.68651  0.01182  0.47641  1.0000
  C   C1204     1.0  0.63937  0.02777  0.45141  1.0000
  H   H2040     1.0  0.64630  0.06077  0.34140  1.0000
  H   H2041     1.0  0.57736  0.03996  0.64370  1.0000
  H   H2042     1.0  0.87866  0.21227  0.47424  1.0000
  H   H2043     1.0  0.80019  0.11935  0.56888  1.0000
  H   H2044     1.0  0.60579  0.09988  0.44408  1.0000
  H   H2045     1.0  0.55123  0.99877  0.61506  1.0000
  H   H2046     1.0  0.98443  0.17977  0.58825  1.0000
  H   H2047     1.0  0.81562  0.09426  0.58801  1.0000
  C   C1205     1.0  0.57091  0.00775  0.34608  1.0000
  H   H2048     1.0  0.59981  0.09183  0.39077  1.0000
  H   H2049     1.0  0.64071  0.04897  0.36489  1.0000
  H   H2050     1.0  0.56969  0.05263  0.58891  1.0000
  H   H2051     1.0  0.59825  0.02697  0.56481  1.0000
  H   H2052     1.0  0.63627  0.04972  0.55473  1.0000
  C   C1206     1.0  0.50282  0.07931  0.40053  1.0000
  C   C1207     1.0  0.61816  0.12282  0.43139  1.0000
  H   H2053     1.0  0.58161  0.08624  0.45103  1.0000
  C   C1208     1.0  0.61555  0.09706  0.40879  1.0000
  S   S359      1.0  0.60301  0.04450  0.32734  1.0000
  H   H2054     1.0  0.98763  0.21589  0.52455  1.0000
  C   C1209     1.0  0.79895  0.14826  0.56441  1.0000
  C   C1210     1.0  0.80396  0.12578  0.60176  1.0000
  H   H2055     1.0  0.62168  0.08657  0.41973  1.0000
  H   H2056     1.0  0.61951  0.05404  0.45270  1.0000
  H   H2057     1.0  0.56635  0.03194  0.43849  1.0000
  H   H2058     1.0  0.59873  0.09043  0.63088  1.0000
  C   C1211     1.0  0.84271  0.09565  0.57178  1.0000
  N   N87       1.0  0.65795  0.02378  0.33825  1.0000
  H   H2059     1.0  0.78651  0.15101  0.57544  1.0000
  H   H2060     1.0  0.81017  0.12018  0.61405  1.0000
  C   C1212     1.0  0.80966  0.12815  0.56808  1.0000
  H   H2061     1.0  0.79909  0.14075  0.60123  1.0000
  H   H2062     1.0  0.78877  0.02705  0.40915  1.0000
  C   C1213     1.0  0.82629  0.10176  0.58717  1.0000
  C   C1214     1.0  0.58421  0.01046  0.39075  1.0000
  H   H2063     1.0  0.83075  0.09621  0.60046  1.0000
  H   H2064     1.0  0.79411  0.15121  0.55146  1.0000
  H   H2065     1.0  0.83854  0.09867  0.55850  1.0000
  H   H2066     1.0  0.62845  0.99795  0.49450  1.0000
  C   C1215     1.0  0.55475  0.01698  0.35621  1.0000
  H   H2067     1.0  0.58628  0.04921  0.55656  1.0000
  H   H2068     1.0  0.63321  0.06142  0.47040  1.0000
  H   H2069     1.0  0.62742  0.04872  0.43058  1.0000
  H   H2070     1.0  0.79939  0.02202  0.43769  1.0000
  S   S360      1.0  0.58932  0.99072  0.59716  1.0000
  H   H2071     1.0  0.85466  0.10175  0.56994  1.0000
  H   H2072     1.0  0.82042  0.12641  0.55539  1.0000
  S   S361      1.0  0.87471  0.22580  0.58898  1.0000
  H   H2073     1.0  0.66222  0.99901  0.48372  1.0000
  H   H2074     1.0  0.67484  0.02520  0.44904  1.0000
  C   C1216     1.0  0.63465  0.05160  0.48347  1.0000
  Fe  Fe182     1.0  0.59776  0.07259  0.33226  1.0000
  C   C1217     1.0  0.83291  0.13260  0.58157  1.0000
  H   H2075     1.0  0.85557  0.13502  0.59165  1.0000
  H   H2076     1.0  0.84217  0.13235  0.56785  1.0000
  H   H2077     1.0  0.61328  0.07175  0.40291  1.0000
  C   C1218     1.0  0.58563  0.01633  0.33719  1.0000
  H   H2078     1.0  0.59443  0.07396  0.43296  1.0000
  H   H2079     1.0  0.85318  0.11203  0.59638  1.0000
  H   H2080     1.0  0.82667  0.14734  0.58141  1.0000
  C   C1219     1.0  0.84520  0.12633  0.59580  1.0000
  H   H2081     1.0  0.70115  0.00014  0.45038  1.0000
  H   H2082     1.0  0.66838  0.08549  0.36653  1.0000
  H   H2083     1.0  0.60175  0.12083  0.37745  1.0000
  H   H2084     1.0  0.62419  0.08630  0.38376  1.0000
  H   H2085     1.0  0.67899  0.03642  0.34068  1.0000
  C   C1220     1.0  0.66513  0.03364  0.34814  1.0000
  C   C1221     1.0  0.59567  0.12846  0.40424  1.0000
  C   C1222     1.0  0.59047  0.12898  0.38627  1.0000
  C   C1223     1.0  0.61259  0.08635  0.39605  1.0000
  H   H2086     1.0  0.83711  0.12808  0.60970  1.0000
  H   H2087     1.0  0.85941  0.00867  0.47744  1.0000
  H   H2088     1.0  0.56774  0.01062  0.63147  1.0000
  C   C1224     1.0  0.59359  0.00545  0.63897  1.0000
  H   H2089     1.0  0.55861  0.04193  0.63391  1.0000
  C   C1225     1.0  0.65249  0.03617  0.32103  1.0000
  H   H2090     1.0  0.99245  0.23247  0.63429  1.0000
  H   H2091     1.0  0.64317  0.99096  0.34419  1.0000
  C   C1226     1.0  0.91411  0.22616  0.61467  1.0000
  C   C1227     1.0  0.57253  0.00644  0.64456  1.0000
  H   H2092     1.0  0.70667  0.99215  0.58895  1.0000
  S   S362      1.0  0.78262  0.99212  0.52478  1.0000
  H   H2093     1.0  0.62952  0.02944  0.35339  1.0000
  H   H2094     1.0  0.92807  0.21874  0.61560  1.0000
  H   H2095     1.0  0.67899  0.08370  0.65115  1.0000
  H   H2096     1.0  0.77417  0.00330  0.41123  1.0000
  H   H2097     1.0  0.50584  0.08448  0.37127  1.0000
  S   S363      1.0  0.65703  0.99553  0.52064  1.0000
  H   H2098     1.0  0.53627  0.02461  0.32764  1.0000
  H   H2099     1.0  0.95575  0.23061  0.51919  1.0000
  H   H2100     1.0  0.52271  0.99721  0.40606  1.0000
  C   C1228     1.0  0.86466  0.20740  0.50286  1.0000
  C   C1229     1.0  0.97703  0.21669  0.61701  1.0000
  H   H2101     1.0  0.97950  0.21141  0.63113  1.0000
  H   H2102     1.0  0.57741  0.99485  0.42714  1.0000
  C   C1230     1.0  0.67908  0.99260  0.34891  1.0000
  H   H2103     1.0  0.60022  0.00184  0.65082  1.0000
  H   H2104     1.0  0.50629  0.02276  0.39680  1.0000
  H   H2105     1.0  0.66892  0.00133  0.32392  1.0000
  H   H2106     1.0  0.82667  0.98729  0.51808  1.0000
  H   H2107     1.0  0.50102  0.22789  0.97793  1.0000
  S   S364      1.0  0.51094  0.20493  0.93819  1.0000
  H   H2108     1.0  0.67819  0.03853  0.66859  1.0000
  H   H2109     1.0  0.53253  0.08151  0.77033  1.0000
  H   H2110     1.0  0.56992  0.22515  0.89153  1.0000
  H   H2111     1.0  0.57463  0.99302  0.69804  1.0000
  H   H2112     1.0  0.56162  0.18926  0.88547  1.0000
  H   H2113     1.0  0.55765  0.05231  0.66989  1.0000
  H   H2114     1.0  0.54679  0.23156  0.90368  1.0000
  S   S365      1.0  0.54158  0.01628  0.72577  1.0000
  C   C1231     1.0  0.52389  0.01584  0.71588  1.0000
  H   H2115     1.0  0.55761  0.20836  0.84601  1.0000
  H   H2116     1.0  0.52504  0.13744  0.72772  1.0000
  S   S366      1.0  0.52400  0.09465  0.83120  1.0000
  Fe  Fe183     1.0  0.55824  0.06968  0.73664  1.0000
  H   H2117     1.0  0.54595  0.99678  0.79094  1.0000
  H   H2118     1.0  0.58195  0.07536  0.78889  1.0000
  C   C1232     1.0  0.54160  0.01711  0.66266  1.0000
  H   H2119     1.0  0.57666  0.20335  0.87030  1.0000
  C   C1233     1.0  0.53917  0.08193  0.78073  1.0000
  H   H2120     1.0  0.56292  0.08432  0.81784  1.0000
  S   S367      1.0  0.53151  0.06062  0.74432  1.0000
  C   C1234     1.0  0.61035  0.03920  0.65456  1.0000
  C   C1235     1.0  0.50972  0.03129  0.71267  1.0000
  C   C1236     1.0  0.66071  0.07225  0.67770  1.0000
  C   C1237     1.0  0.55624  0.08366  0.80753  1.0000
  C   C1238     1.0  0.55170  0.05347  0.65805  1.0000
  C   C1239     1.0  0.55654  0.22061  0.89686  1.0000
  S   S368      1.0  0.57230  0.05171  0.71621  1.0000
  S   S369      1.0  0.53427  0.06756  0.69976  1.0000
  S   S370      1.0  0.54948  0.09437  0.71561  1.0000
  H   H2121     1.0  0.58198  0.01889  0.67171  1.0000
  N   N88       1.0  0.50759  0.14171  0.75416  1.0000
  H   H2122     1.0  0.62741  0.05214  0.67500  1.0000
  H   H2123     1.0  0.54666  0.23477  0.85412  1.0000
  C   C1240     1.0  0.56700  0.07858  0.79115  1.0000
  H   H2124     1.0  0.54308  0.11656  0.76026  1.0000
  S   S371      1.0  0.57273  0.07165  0.75717  1.0000
  C   C1241     1.0  0.63548  0.05688  0.68197  1.0000
  H   H2125     1.0  0.60963  0.07582  0.69195  1.0000
  C   C1242     1.0  0.56871  0.01460  0.67449  1.0000
  H   H2126     1.0  0.66034  0.02904  0.66582  1.0000
  H   H2127     1.0  0.64377  0.04419  0.68913  1.0000
  C   C1243     1.0  0.55855  0.07770  0.77769  1.0000
  S   S372      1.0  0.50442  0.17620  0.90686  1.0000
  Fe  Fe184     1.0  0.56106  0.07571  0.69569  1.0000
  C   C1244     1.0  0.51017  0.16099  0.75008  1.0000
  H   H2128     1.0  0.49789  0.99564  0.74607  1.0000
  H   H2129     1.0  0.52970  0.20159  0.89658  1.0000
  H   H2130     1.0  0.51244  0.16664  0.73501  1.0000
  H   H2131     1.0  0.62790  0.07264  0.70393  1.0000
  C   C1245     1.0  0.52425  0.99984  0.71078  1.0000
  C   C1246     1.0  0.51102  0.99951  0.70174  1.0000
  H   H2132     1.0  0.49955  0.07241  0.79062  1.0000
  C   C1247     1.0  0.56200  0.20185  0.87444  1.0000
  H   H2133     1.0  0.65338  0.08348  0.68522  1.0000
  H   H2134     1.0  0.52292  0.16141  0.75383  1.0000
  N   N89       1.0  0.54947  0.21840  0.88138  1.0000
  H   H2135     1.0  0.57288  0.19385  0.90806  1.0000
  H   H2136     1.0  0.50996  0.14589  0.88986  1.0000
  C   C1248     1.0  0.52982  0.21588  0.88875  1.0000
  H   H2137     1.0  0.55296  0.11936  0.73643  1.0000
  C   C1249     1.0  0.55764  0.19707  0.85830  1.0000
  H   H2138     1.0  0.49844  0.05612  0.77887  1.0000
  C   C1250     1.0  0.52327  0.13049  0.74247  1.0000
  H   H2139     1.0  0.52232  0.22473  0.89884  1.0000
  C   C1251     1.0  0.63568  0.08612  0.66026  1.0000
  H   H2140     1.0  0.52014  0.11706  0.74341  1.0000
  H   H2141     1.0  0.61536  0.05520  0.70810  1.0000
  C   C1252     1.0  0.55100  0.23532  0.86638  1.0000
  H   H2142     1.0  0.53228  0.23259  0.94024  1.0000
  H   H2143     1.0  0.54446  0.19233  0.86255  1.0000
  H   H2144     1.0  0.54092  0.00244  0.66768  1.0000
  H   H2145     1.0  0.56087  0.20774  0.92451  1.0000
  C   C1253     1.0  0.54249  0.12627  0.74691  1.0000
  H   H2146     1.0  0.56001  0.23507  0.94897  1.0000
  H   H2147     1.0  0.56575  0.23643  0.86121  1.0000
  H   H2148     1.0  0.49863  0.14181  0.71964  1.0000
  H   H2149     1.0  0.50888  0.21001  0.87849  1.0000
  C   C1254     1.0  0.52405  0.99380  0.77988  1.0000
  H   H2150     1.0  0.51347  0.09049  0.79961  1.0000
  H   H2151     1.0  0.62754  0.09384  0.67113  1.0000
  C   C1255     1.0  0.59678  0.05166  0.66406  1.0000
  H   H2152     1.0  0.66475  0.05997  0.68836  1.0000
  C   C1256     1.0  0.55969  0.20353  0.91234  1.0000
  H   H2153     1.0  0.55909  0.02247  0.68475  1.0000
  H   H2154     1.0  0.53369  0.02376  0.67439  1.0000
  H   H2155     1.0  0.51741  0.12797  0.79837  1.0000
  N   N90       1.0  0.64794  0.06857  0.66808  1.0000
  C   C1257     1.0  0.53692  0.08797  0.81060  1.0000
  H   H2156     1.0  0.55945  0.98854  0.68689  1.0000
  H   H2157     1.0  0.59711  0.23129  0.97145  1.0000
  S   S373      1.0  0.57686  0.08631  0.66742  1.0000
  C   C1258     1.0  0.52837  0.08707  0.79722  1.0000
  H   H2158     1.0  0.49921  0.18425  0.76354  1.0000
  Fe  Fe185     1.0  0.54448  0.04499  0.72199  1.0000
  C   C1259     1.0  0.62142  0.06589  0.69726  1.0000
  C   C1260     1.0  0.57175  0.99427  0.68441  1.0000
  H   H2159     1.0  0.51100  0.15157  0.78804  1.0000
  H   H2160     1.0  0.58979  0.04702  0.67804  1.0000
  H   H2161     1.0  0.52483  0.22042  0.86026  1.0000
  H   H2162     1.0  0.54819  0.19629  0.91677  1.0000
  H   H2163     1.0  0.51499  0.99997  0.79161  1.0000
  H   H2164     1.0  0.61387  0.02496  0.66127  1.0000
  H   H2165     1.0  0.56860  0.18535  0.85404  1.0000
  H   H2166     1.0  0.69064  0.06459  0.66611  1.0000
  C   C1261     1.0  0.51747  0.22038  0.87466  1.0000
  C   C1262     1.0  0.67918  0.07697  0.66562  1.0000
  Fe  Fe186     1.0  0.52366  0.08402  0.72160  1.0000
  H   H2167     1.0  0.68310  0.08649  0.67154  1.0000
  H   H2168     1.0  0.52365  0.00559  0.76795  1.0000
  H   H2169     1.0  0.54688  0.13880  0.74651  1.0000
  C   C1263     1.0  0.51745  0.13779  0.78495  1.0000
  C   C1264     1.0  0.65819  0.05826  0.65300  1.0000
  C   C1265     1.0  0.59270  0.07016  0.65557  1.0000
  N   N91       1.0  0.56143  0.01917  0.65724  1.0000
  H   H2170     1.0  0.55392  0.99123  0.76845  1.0000
  H   H2171     1.0  0.53209  0.13738  0.77798  1.0000
  C   C1266     1.0  0.66951  0.03887  0.65921  1.0000
  C   C1267     1.0  0.50611  0.13257  0.77427  1.0000
  C   C1268     1.0  0.54432  0.98851  0.78206  1.0000
  H   H2172     1.0  0.50962  0.11744  0.77591  1.0000
  H   H2173     1.0  0.50905  0.04357  0.71703  1.0000
  H   H2174     1.0  0.53678  0.05335  0.66285  1.0000
  H   H2175     1.0  0.51664  0.02101  0.65294  1.0000
  H   H2176     1.0  0.62530  0.08304  0.65467  1.0000
  H   H2177     1.0  0.49999  0.08947  0.69497  1.0000
  H   H2178     1.0  0.50743  0.23367  0.87541  1.0000
  H   H2179     1.0  0.49918  0.01315  0.75669  1.0000
  H   H2180     1.0  0.51212  0.98745  0.69698  1.0000
  H   H2181     1.0  0.49727  0.08000  0.76732  1.0000
  H   H2182     1.0  0.53506  0.98780  0.71340  1.0000
  Fe  Fe187     1.0  0.59078  0.31687  0.10127  1.0000
  S   S374      1.0  0.59078  0.32711  0.07140  1.0000
  Fe  Fe188     1.0  0.62152  0.33543  0.09862  1.0000
  S   S375      1.0  0.62358  0.34749  0.06866  1.0000
  S   S376      1.0  0.64334  0.33909  0.11063  1.0000
  Fe  Fe189     1.0  0.59270  0.35368  0.07565  1.0000
  S   S377      1.0  0.57577  0.37841  0.06041  1.0000
  Fe  Fe190     1.0  0.62163  0.31999  0.06691  1.0000
  S   S378      1.0  0.63998  0.31000  0.04204  1.0000
  S   S379      1.0  0.59046  0.34424  0.10610  1.0000
  S   S380      1.0  0.62178  0.30709  0.09645  1.0000
  Fe  Fe191     1.0  0.67607  0.42040  0.11311  1.0000
  S   S381      1.0  0.68693  0.43372  0.08406  1.0000
  S   S382      1.0  0.64714  0.41532  0.12065  1.0000
  Fe  Fe192     1.0  0.71060  0.42005  0.12525  1.0000
  S   S383      1.0  0.72418  0.43288  0.09717  1.0000
  S   S384      1.0  0.72491  0.41312  0.14859  1.0000
  Fe  Fe193     1.0  0.69634  0.45137  0.09649  1.0000
  H   H2183     1.0  0.49722  0.35292  0.14107  1.0000
  Fe  Fe194     1.0  0.71364  0.41383  0.08773  1.0000
  S   S385      1.0  0.73114  0.39962  0.06523  1.0000
  S   S386      1.0  0.68326  0.43983  0.12546  1.0000
  S   S387      1.0  0.70226  0.39910  0.11600  1.0000
  S   S388      1.0  0.67153  0.39460  0.02630  1.0000
  N   N92       1.0  0.66484  0.35923  0.16566  1.0000
  H   H2184     1.0  0.62604  0.37412  0.17992  1.0000
  H   H2185     1.0  0.67406  0.33933  0.13539  1.0000
  H   H2186     1.0  0.65044  0.43893  0.99063  1.0000
  H   H2187     1.0  0.96748  0.46332  0.28688  1.0000
  H   H2188     1.0  0.53259  0.32587  0.12702  1.0000
  H   H2189     1.0  0.50833  0.33207  0.01532  1.0000
  C   C1269     1.0  0.55300  0.38156  0.07344  1.0000
  H   H2190     1.0  0.66503  0.48403  0.05039  1.0000
  H   H2191     1.0  0.96789  0.46491  0.31769  1.0000
  H   H2192     1.0  0.59238  0.26122  0.07378  1.0000
  C   C1270     1.0  0.67973  0.32106  0.00785  1.0000
  H   H2193     1.0  0.54735  0.30011  0.07430  1.0000
  C   C1271     1.0  0.64414  0.46294  0.00177  1.0000
  C   C1272     1.0  0.59995  0.28982  0.03581  1.0000
  H   H2194     1.0  0.81027  0.45899  0.04759  1.0000
  C   C1273     1.0  0.71549  0.39673  0.05418  1.0000
  C   C1274     1.0  0.71987  0.39777  0.03521  1.0000
  C   C1275     1.0  0.70636  0.39725  0.02643  1.0000
  C   C1276     1.0  0.68880  0.39501  0.03676  1.0000
  C   C1277     1.0  0.68485  0.39300  0.05583  1.0000
  C   C1278     1.0  0.69803  0.39429  0.06443  1.0000
  H   H2195     1.0  0.73351  0.39938  0.02732  1.0000
  H   H2196     1.0  0.70953  0.39842  0.01176  1.0000
  H   H2197     1.0  0.67160  0.39045  0.06397  1.0000
  H   H2198     1.0  0.69484  0.39323  0.07905  1.0000
  C   C1279     1.0  0.97056  0.47898  0.31312  1.0000
  C   C1280     1.0  0.71096  0.33156  0.03351  1.0000
  C   C1281     1.0  0.52420  0.33598  0.13543  1.0000
  H   H2199     1.0  0.50251  0.34590  0.12018  1.0000
  H   H2200     1.0  0.57481  0.35380  0.02099  1.0000
  H   H2201     1.0  0.53749  0.26732  0.03007  1.0000
  N   N93       1.0  0.69348  0.32773  0.03167  1.0000
  C   C1282     1.0  0.72766  0.46247  0.03116  1.0000
  H   H2202     1.0  0.61843  0.30432  0.99056  1.0000
  H   H2203     1.0  0.80010  0.47610  0.01889  1.0000
  C   C1283     1.0  0.73513  0.43011  0.15020  1.0000
  C   C1284     1.0  0.73678  0.44579  0.13622  1.0000
  C   C1285     1.0  0.74468  0.45924  0.13824  1.0000
  C   C1286     1.0  0.75030  0.45733  0.15452  1.0000
  C   C1287     1.0  0.74862  0.44168  0.16840  1.0000
  C   C1288     1.0  0.74137  0.42801  0.16612  1.0000
  H   H2204     1.0  0.73178  0.44770  0.12397  1.0000
  H   H2205     1.0  0.74572  0.47142  0.12754  1.0000
  H   H2206     1.0  0.75278  0.44020  0.18106  1.0000
  H   H2207     1.0  0.74012  0.41597  0.17697  1.0000
  C   C1289     1.0  0.64367  0.36171  0.10990  1.0000
  C   C1290     1.0  0.62742  0.37408  0.11586  1.0000
  C   C1291     1.0  0.62844  0.39091  0.11854  1.0000
  C   C1292     1.0  0.64567  0.39544  0.11502  1.0000
  C   C1293     1.0  0.66172  0.38345  0.10818  1.0000
  C   C1294     1.0  0.66076  0.36660  0.10569  1.0000
  H   H2208     1.0  0.61420  0.37025  0.11936  1.0000
  H   H2209     1.0  0.61596  0.40010  0.12396  1.0000
  H   H2210     1.0  0.67499  0.38673  0.10572  1.0000
  H   H2211     1.0  0.67336  0.35706  0.10109  1.0000
  H   H2212     1.0  0.81471  0.42734  0.06066  1.0000
  H   H2213     1.0  0.54062  0.38616  0.05038  1.0000
  C   C1295     1.0  0.62665  0.30205  0.03224  1.0000
  C   C1296     1.0  0.62935  0.30515  0.01311  1.0000
  C   C1297     1.0  0.51366  0.33275  0.00039  1.0000
  H   H2214     1.0  0.82864  0.41776  0.07783  1.0000
  H   H2215     1.0  0.71332  0.48329  0.20676  1.0000
  C   C1298     1.0  0.61210  0.29421  0.04355  1.0000
  H   H2216     1.0  0.64065  0.31122  0.00439  1.0000
  H   H2217     1.0  0.52985  0.34849  0.12944  1.0000
  S   S389      1.0  0.76049  0.44716  0.99129  1.0000
  H   H2218     1.0  0.53291  0.29061  0.05316  1.0000
  H   H2219     1.0  0.59451  0.28413  0.08955  1.0000
  H   H2220     1.0  0.52805  0.30451  0.00314  1.0000
  C   C1299     1.0  0.54916  0.30660  0.05954  1.0000
  H   H2221     1.0  0.55629  0.27924  0.05413  1.0000
  C   C1300     1.0  0.56744  0.28471  0.10716  1.0000
  C   C1301     1.0  0.54120  0.33269  0.03538  1.0000
  C   C1302     1.0  0.53353  0.35331  0.02872  1.0000
  H   H2222     1.0  0.55642  0.33001  0.02992  1.0000
  H   H2223     1.0  0.54574  0.31881  0.09123  1.0000
  H   H2224     1.0  0.55536  0.33946  0.05961  1.0000
  H   H2225     1.0  0.82789  0.40439  0.06281  1.0000
  H   H2226     1.0  0.80681  0.41148  0.11529  1.0000
  C   C1303     1.0  0.69042  0.31007  0.04488  1.0000
  H   H2227     1.0  0.56974  0.38431  0.02231  1.0000
  H   H2228     1.0  0.66427  0.32808  0.19773  1.0000
  C   C1304     1.0  0.51021  0.31110  0.07967  1.0000
  H   H2229     1.0  0.67620  0.30821  0.04657  1.0000
  H   H2230     1.0  0.69118  0.31036  0.05893  1.0000
  H   H2231     1.0  0.66135  0.35887  0.05680  1.0000
  S   S390      1.0  0.51189  0.25880  0.07383  1.0000
  H   H2232     1.0  0.73592  0.42305  0.00099  1.0000
  H   H2233     1.0  0.68933  0.45777  0.04614  1.0000
  H   H2234     1.0  0.52642  0.33116  0.14965  1.0000
  C   C1305     1.0  0.51671  0.38466  0.09473  1.0000
  H   H2235     1.0  0.64082  0.34036  0.19586  1.0000
  C   C1306     1.0  0.86649  0.45113  0.24654  1.0000
  H   H2236     1.0  0.54136  0.24851  0.00766  1.0000
  C   C1307     1.0  0.70853  0.45668  0.01371  1.0000
  H   H2237     1.0  0.54272  0.34231  0.09095  1.0000
  H   H2238     1.0  0.76220  0.40764  0.08626  1.0000
  H   H2239     1.0  0.70427  0.36170  0.02411  1.0000
  C   C1308     1.0  0.69085  0.46124  0.00625  1.0000
  H   H2240     1.0  0.63324  0.38870  0.15772  1.0000
  C   C1309     1.0  0.58765  0.34321  0.02173  1.0000
  C   C1310     1.0  0.60194  0.29385  0.01677  1.0000
  H   H2241     1.0  0.82889  0.47508  0.21085  1.0000
  H   H2242     1.0  0.69644  0.34021  0.00274  1.0000
  H   H2243     1.0  0.72058  0.45557  0.00187  1.0000
  H   H2244     1.0  0.68829  0.37226  0.15269  1.0000
  H   H2245     1.0  0.64319  0.34647  0.16549  1.0000
  C   C1311     1.0  0.55149  0.27757  0.11212  1.0000
  H   H2246     1.0  0.73988  0.46378  0.01961  1.0000
  H   H2247     1.0  0.54157  0.36174  0.03145  1.0000
  C   C1312     1.0  0.54720  0.29266  0.04976  1.0000
  H   H2248     1.0  0.89663  0.48428  0.22089  1.0000
  C   C1313     1.0  0.55004  0.26493  0.10290  1.0000
  C   C1314     1.0  0.87885  0.48001  0.29927  1.0000
  S   S391      1.0  0.80738  0.47344  0.12982  1.0000
  H   H2249     1.0  0.53472  0.35645  0.01363  1.0000
  H   H2250     1.0  0.69707  0.32988  0.13853  1.0000
  C   C1315     1.0  0.52000  0.38609  0.07575  1.0000
  H   H2251     1.0  0.50116  0.31682  0.11777  1.0000
  H   H2252     1.0  0.70346  0.29019  0.02676  1.0000
  N   N94       1.0  0.62085  0.42788  0.06614  1.0000
  C   C1316     1.0  0.61565  0.40960  0.07016  1.0000
  C   C1317     1.0  0.61332  0.43538  0.08343  1.0000
  C   C1318     1.0  0.64169  0.42435  0.06183  1.0000
  C   C1319     1.0  0.61314  0.44015  0.04995  1.0000
  C   C1320     1.0  0.62410  0.39834  0.05504  1.0000
  C   C1321     1.0  0.59234  0.43717  0.09128  1.0000
  C   C1322     1.0  0.65038  0.44087  0.05842  1.0000
  C   C1323     1.0  0.60912  0.46104  0.04854  1.0000
  H   H2253     1.0  0.61964  0.40074  0.08301  1.0000
  H   H2254     1.0  0.60038  0.41133  0.07260  1.0000
  H   H2255     1.0  0.61629  0.44897  0.08159  1.0000
  H   H2256     1.0  0.62045  0.42655  0.09450  1.0000
  H   H2257     1.0  0.64718  0.41392  0.07322  1.0000
  H   H2258     1.0  0.64770  0.41863  0.04925  1.0000
  H   H2259     1.0  0.62248  0.43716  0.03678  1.0000
  H   H2260     1.0  0.59966  0.43724  0.05026  1.0000
  H   H2261     1.0  0.63859  0.39110  0.05566  1.0000
  H   H2262     1.0  0.61614  0.38769  0.05744  1.0000
  H   H2263     1.0  0.62362  0.40672  0.04105  1.0000
  H   H2264     1.0  0.58771  0.44585  0.10167  1.0000
  H   H2265     1.0  0.58417  0.44355  0.08054  1.0000
  H   H2266     1.0  0.58913  0.42361  0.09845  1.0000
  H   H2267     1.0  0.66567  0.43595  0.05574  1.0000
  H   H2268     1.0  0.64638  0.44729  0.07049  1.0000
  H   H2269     1.0  0.64744  0.45109  0.04594  1.0000
  H   H2270     1.0  0.50858  0.38831  0.06929  1.0000
  H   H2271     1.0  0.61850  0.46577  0.05383  1.0000
  H   H2272     1.0  0.67309  0.46638  0.16076  1.0000
  H   H2273     1.0  0.50417  0.34343  0.99256  1.0000
  H   H2274     1.0  0.98575  0.47727  0.31085  1.0000
  C   C1324     1.0  0.69725  0.46716  0.17056  1.0000
  H   H2275     1.0  0.93959  0.47693  0.30581  1.0000
  H   H2276     1.0  0.66432  0.47580  0.11434  1.0000
  S   S392      1.0  0.75680  0.47529  0.15911  1.0000
  C   C1325     1.0  0.68830  0.46119  0.15827  1.0000
  C   C1326     1.0  0.70664  0.47776  0.19909  1.0000
  C   C1327     1.0  0.62922  0.36541  0.00001  1.0000
  H   H2277     1.0  0.69794  0.47331  0.05239  1.0000
  C   C1328     1.0  0.63995  0.48207  0.99818  1.0000
  H   H2278     1.0  0.69256  0.45978  0.18477  1.0000
  H   H2279     1.0  0.71231  0.46128  0.16711  1.0000
  H   H2280     1.0  0.72220  0.48587  0.99886  1.0000
  H   H2281     1.0  0.69321  0.47549  0.20803  1.0000
  H   H2282     1.0  0.84161  0.48132  0.26160  1.0000
  H   H2283     1.0  0.66742  0.33254  0.00724  1.0000
  S   S393      1.0  0.56358  0.24316  0.07725  1.0000
  C   C1329     1.0  0.80810  0.48308  0.05736  1.0000
  C   C1330     1.0  0.65392  0.34113  0.19862  1.0000
  H   H2284     1.0  0.69091  0.44600  0.16147  1.0000
  C   C1331     1.0  0.55134  0.26284  0.02140  1.0000
  H   H2285     1.0  0.69463  0.46524  0.14348  1.0000
  H   H2286     1.0  0.71588  0.46444  0.19672  1.0000
  H   H2287     1.0  0.82456  0.47920  0.25150  1.0000
  H   H2288     1.0  0.55315  0.27401  0.00910  1.0000
  H   H2289     1.0  0.72315  0.32072  0.02941  1.0000
  H   H2290     1.0  0.50150  0.29640  0.02677  1.0000
  H   H2291     1.0  0.70034  0.28057  0.05074  1.0000
  H   H2292     1.0  0.69168  0.34079  0.16610  1.0000
  H   H2293     1.0  0.67557  0.30898  0.01783  1.0000
  H   H2294     1.0  0.75851  0.43882  0.07260  1.0000
  H   H2295     1.0  0.63347  0.37625  0.98818  1.0000
  C   C1332     1.0  0.67689  0.34273  0.03634  1.0000
  H   H2296     1.0  0.67366  0.32975  0.16790  1.0000
  H   H2297     1.0  0.51193  0.32104  0.05084  1.0000
  C   C1333     1.0  0.70414  0.29251  0.04003  1.0000
  H   H2298     1.0  0.52285  0.33401  0.09275  1.0000
  N   N95       1.0  0.50138  0.30577  0.99785  1.0000
  H   H2299     1.0  0.71856  0.29249  0.03989  1.0000
  C   C1334     1.0  0.58206  0.27891  0.09320  1.0000
  H   H2300     1.0  0.54029  0.28175  0.12311  1.0000
  H   H2301     1.0  0.73545  0.43286  0.03228  1.0000
  H   H2302     1.0  0.62920  0.38121  0.01994  1.0000
  H   H2303     1.0  0.78024  0.42633  0.06141  1.0000
  C   C1335     1.0  0.85517  0.46333  0.23232  1.0000
  C   C1336     1.0  0.63574  0.36774  0.01620  1.0000
  H   H2304     1.0  0.51984  0.27903  0.00120  1.0000
  H   H2305     1.0  0.51654  0.30528  0.13270  1.0000
  S   S394      1.0  0.56881  0.30125  0.11807  1.0000
  C   C1337     1.0  0.64752  0.35976  0.15986  1.0000
  Fe  Fe195     1.0  0.67943  0.39935  0.99558  1.0000
  C   C1338     1.0  0.67899  0.34237  0.16103  1.0000
  H   H2306     1.0  0.52903  0.38117  0.11757  1.0000
  H   H2307     1.0  0.64528  0.45520  0.01540  1.0000
  H   H2308     1.0  0.56392  0.30776  0.05538  1.0000
  H   H2309     1.0  0.55185  0.29659  0.03468  1.0000
  H   H2310     1.0  0.50673  0.24902  0.99336  1.0000
  N   N96       1.0  0.78924  0.42073  0.09546  1.0000
  C   C1339     1.0  0.79950  0.42453  0.10760  1.0000
  C   C1340     1.0  0.80290  0.40759  0.08431  1.0000
  C   C1341     1.0  0.77360  0.41200  0.10777  1.0000
  C   C1342     1.0  0.78181  0.43876  0.08370  1.0000
  C   C1343     1.0  0.78766  0.43596  0.12192  1.0000
  C   C1344     1.0  0.81938  0.41494  0.07075  1.0000
  C   C1345     1.0  0.55184  0.24494  0.01622  1.0000
  H   H2311     1.0  0.81041  0.43211  0.09929  1.0000
  H   H2312     1.0  0.80865  0.39485  0.09361  1.0000
  H   H2313     1.0  0.77791  0.40266  0.12031  1.0000
  H   H2314     1.0  0.76161  0.42256  0.11291  1.0000
  H   H2315     1.0  0.77068  0.44744  0.09228  1.0000
  H   H2316     1.0  0.79246  0.44712  0.07776  1.0000
  H   H2317     1.0  0.71055  0.33112  0.04810  1.0000
  H   H2318     1.0  0.72767  0.35199  0.02583  1.0000
  C   C1346     1.0  0.53812  0.38491  0.06505  1.0000
  H   H2319     1.0  0.71841  0.43947  0.05220  1.0000
  C   C1347     1.0  0.61677  0.30132  0.00532  1.0000
  H   H2320     1.0  0.56159  0.26120  0.02956  1.0000
  H   H2321     1.0  0.57285  0.38245  0.99884  1.0000
  H   H2322     1.0  0.96894  0.48282  0.26855  1.0000
  H   H2323     1.0  0.53768  0.25953  0.10668  1.0000
  H   H2324     1.0  0.65079  0.34250  0.21314  1.0000
  H   H2325     1.0  0.60178  0.35644  0.03288  1.0000
  N   N97       1.0  0.53659  0.32526  0.05590  1.0000
  C   C1348     1.0  0.54081  0.33784  0.06521  1.0000
  C   C1349     1.0  0.73089  0.44248  0.04178  1.0000
  H   H2326     1.0  0.50806  0.29881  0.07660  1.0000
  H   H2327     1.0  0.72839  0.47073  0.04054  1.0000
  H   H2328     1.0  0.51945  0.30675  0.08941  1.0000
  C   C1350     1.0  0.71577  0.34979  0.02188  1.0000
  H   H2329     1.0  0.79628  0.40281  0.07602  1.0000
  C   C1351     1.0  0.54969  0.38006  0.09240  1.0000
  H   H2330     1.0  0.56110  0.37776  0.09890  1.0000
  C   C1352     1.0  0.53777  0.33260  0.08624  1.0000
  H   H2331     1.0  0.53190  0.35177  0.06246  1.0000
  H   H2332     1.0  0.74226  0.43975  0.04900  1.0000
  H   H2333     1.0  0.85960  0.48475  0.02462  1.0000
  H   H2334     1.0  0.78130  0.44997  0.11535  1.0000
  C   C1353     1.0  0.68520  0.34168  0.14042  1.0000
  H   H2335     1.0  0.77587  0.38722  0.09796  1.0000
  C   C1354     1.0  0.77357  0.43823  0.06789  1.0000
  H   H2336     1.0  0.59969  0.38687  0.01922  1.0000
  C   C1355     1.0  0.63063  0.37498  0.16491  1.0000
  H   H2337     1.0  0.61888  0.37348  0.16016  1.0000
  H   H2338     1.0  0.63358  0.35656  0.02840  1.0000
  H   H2339     1.0  0.70899  0.31763  0.00679  1.0000
  H   H2340     1.0  0.67217  0.40428  0.15383  1.0000
  H   H2341     1.0  0.61052  0.46794  0.03380  1.0000
  C   C1356     1.0  0.97273  0.47620  0.28206  1.0000
  H   H2342     1.0  0.58531  0.33357  0.03516  1.0000
  C   C1357     1.0  0.76595  0.40040  0.09955  1.0000
  H   H2343     1.0  0.67731  0.35545  0.02553  1.0000
  N   N98       1.0  0.60888  0.36586  0.00322  1.0000
  H   H2344     1.0  0.85973  0.45322  0.26067  1.0000
  C   C1358     1.0  0.56482  0.25899  0.08906  1.0000
  H   H2345     1.0  0.59049  0.33496  0.01121  1.0000
  H   H2346     1.0  0.75315  0.39690  0.10922  1.0000
  S   S395      1.0  0.58501  0.29036  0.00789  1.0000
  H   H2347     1.0  0.72010  0.34957  0.00703  1.0000
  H   H2348     1.0  0.65193  0.39730  0.16844  1.0000
  C   C1359     1.0  0.51630  0.32473  0.06168  1.0000
  C   C1360     1.0  0.66146  0.35779  0.18609  1.0000
  C   C1361     1.0  0.67286  0.37579  0.15518  1.0000
  H   H2349     1.0  0.50970  0.30899  0.16361  1.0000
  H   H2350     1.0  0.88488  0.46927  0.30949  1.0000
  H   H2351     1.0  0.65018  0.36152  0.14474  1.0000
  C   C1362     1.0  0.50169  0.31088  0.13244  1.0000
  H   H2352     1.0  0.61024  0.29149  0.05829  1.0000
  C   C1363     1.0  0.53155  0.38197  0.10296  1.0000
  H   H2353     1.0  0.77564  0.45032  0.05660  1.0000
  H   H2354     1.0  0.58882  0.28355  0.04462  1.0000
  H   H2355     1.0  0.53607  0.32542  0.02795  1.0000
  H   H2356     1.0  0.59449  0.46629  0.05502  1.0000
  H   H2357     1.0  0.85665  0.45928  0.99445  1.0000
  S   S396      1.0  0.50444  0.24794  0.03120  1.0000
  H   H2358     1.0  0.67865  0.45911  0.01756  1.0000
  H   H2359     1.0  0.79676  0.43754  0.13001  1.0000
  C   C1364     1.0  0.60422  0.35133  0.02012  1.0000
  H   H2360     1.0  0.68815  0.47521  0.99773  1.0000
  H   H2361     1.0  0.68988  0.35410  0.13160  1.0000
  H   H2362     1.0  0.67357  0.39002  0.17591  1.0000
  H   H2363     1.0  0.88448  0.47614  0.20960  1.0000
  C   C1365     1.0  0.58084  0.26593  0.08433  1.0000
  C   C1366     1.0  0.57699  0.38868  0.00786  1.0000
  S   S397      1.0  0.81428  0.47064  0.07825  1.0000
  H   H2364     1.0  0.87161  0.48400  0.24529  1.0000
  H   H2365     1.0  0.77694  0.42915  0.13190  1.0000
  H   H2366     1.0  0.67454  0.35744  0.18986  1.0000
  H   H2367     1.0  0.66972  0.38061  0.14129  1.0000
  H   H2368     1.0  0.51879  0.35760  0.03527  1.0000
  C   C1367     1.0  0.66707  0.39266  0.16405  1.0000
  H   H2369     1.0  0.86776  0.43652  0.24665  1.0000
  H   H2370     1.0  0.65146  0.37002  0.19038  1.0000
  C   C1368     1.0  0.69561  0.32663  0.01204  1.0000
  H   H2371     1.0  0.66395  0.33885  0.03654  1.0000
  H   H2372     1.0  0.84243  0.45800  0.23518  1.0000
  C   C1369     1.0  0.80139  0.48345  0.02828  1.0000
  H   H2373     1.0  0.84325  0.47835  0.01665  1.0000
  H   H2374     1.0  0.50768  0.33861  0.06290  1.0000
  H   H2375     1.0  0.61611  0.33941  0.02098  1.0000
  H   H2376     1.0  0.57189  0.40365  0.00341  1.0000
  H   H2377     1.0  0.67188  0.33619  0.06672  1.0000
  H   H2378     1.0  0.49844  0.27870  0.99795  1.0000
  H   H2379     1.0  0.49888  0.28540  0.12805  1.0000
  H   H2380     1.0  0.87412  0.47892  0.99378  1.0000
  C   C1370     1.0  0.51780  0.31398  0.99521  1.0000
  H   H2381     1.0  0.68552  0.35347  0.05561  1.0000
  H   H2382     1.0  0.59385  0.24868  0.01827  1.0000
  C   C1371     1.0  0.67402  0.34785  0.05499  1.0000
  C   C1372     1.0  0.99410  0.47062  0.27780  1.0000
  H   H2383     1.0  0.58113  0.25991  0.99555  1.0000
  H   H2384     1.0  0.86288  0.46046  0.21859  1.0000
  H   H2385     1.0  0.70903  0.44261  0.02226  1.0000
  H   H2386     1.0  0.65085  0.36709  0.01193  1.0000
  C   C1373     1.0  0.59808  0.38457  0.00623  1.0000
  H   H2387     1.0  0.90446  0.47911  0.27891  1.0000
  H   H2388     1.0  0.69243  0.45155  0.99741  1.0000
  H   H2389     1.0  0.88078  0.45341  0.24294  1.0000
  N   N99       1.0  0.70986  0.46971  0.02437  1.0000
  H   H2390     1.0  0.68458  0.31677  0.99444  1.0000
  C   C1374     1.0  0.80700  0.47374  0.04468  1.0000
  H   H2391     1.0  0.63771  0.35218  0.99644  1.0000
  C   C1375     1.0  0.50899  0.28702  0.99339  1.0000
  S   S398      1.0  0.69630  0.48107  0.08504  1.0000
  C   C1376     1.0  0.50351  0.34076  0.13484  1.0000
  H   H2392     1.0  0.66692  0.47417  0.19866  1.0000
  C   C1377     1.0  0.69378  0.47102  0.04075  1.0000
  N   N100      1.0  0.85025  0.48355  0.23210  1.0000
  C   C1378     1.0  0.88992  0.48559  0.28200  1.0000
  H   H2393     1.0  0.60381  0.39562  0.99553  1.0000
  H   H2394     1.0  0.52682  0.33747  0.99668  1.0000
  C   C1379     1.0  0.57917  0.24851  0.99086  1.0000
  C   C1380     1.0  0.83559  0.48679  0.24916  1.0000
  C   C1381     1.0  0.60606  0.36153  0.98646  1.0000
  H   H2395     1.0  0.59188  0.35971  0.98825  1.0000
  H   H2396     1.0  0.49763  0.32411  0.18754  1.0000
  Fe  Fe196     1.0  0.80532  0.48683  0.10063  1.0000
  H   H2397     1.0  0.67115  0.48610  0.02612  1.0000
  C   C1382     1.0  0.67631  0.48617  0.03802  1.0000
  H   H2398     1.0  0.58370  0.23774  0.04095  1.0000
  Fe  Fe197     1.0  0.50821  0.23810  0.06046  1.0000
  C   C1383     1.0  0.74178  0.42452  0.98645  1.0000
  C   C1384     1.0  0.64721  0.45370  0.98767  1.0000
  H   H2399     1.0  0.82955  0.48701  0.99223  1.0000
  C   C1385     1.0  0.96484  0.45146  0.37697  1.0000
  C   C1386     1.0  0.86503  0.28031  0.57366  1.0000
  Fe  Fe198     1.0  0.90314  0.45251  0.35107  1.0000
  C   C1387     1.0  0.85221  0.25794  0.55489  1.0000
  Fe  Fe199     1.0  0.94463  0.32374  0.46665  1.0000
  S   S399      1.0  0.94269  0.34755  0.47841  1.0000
  S   S400      1.0  0.97362  0.31418  0.45160  1.0000
  Fe  Fe200     1.0  0.90511  0.32118  0.48540  1.0000
  S   S401      1.0  0.90014  0.34484  0.49878  1.0000
  S   S402      1.0  0.88323  0.30471  0.49467  1.0000
  Fe  Fe201     1.0  0.91496  0.35816  0.47135  1.0000
  S   S403      1.0  0.90811  0.38864  0.46115  1.0000
  Fe  Fe202     1.0  0.92834  0.33202  0.50449  1.0000
  S   S404      1.0  0.93782  0.32950  0.53008  1.0000
  S   S405      1.0  0.91786  0.33552  0.45713  1.0000
  S   S406      1.0  0.93215  0.30733  0.49339  1.0000
  S   S407      1.0  0.91626  0.29360  0.61407  1.0000
  C   C1388     1.0  0.92846  0.41438  0.39811  1.0000
  Fe  Fe203     1.0  0.92851  0.30664  0.62874  1.0000
  S   S408      1.0  0.95424  0.31656  0.61334  1.0000
  H   H2400     1.0  0.99243  0.35017  0.62528  1.0000
  S   S409      1.0  0.87392  0.32762  0.60120  1.0000
  C   C1389     1.0  0.96585  0.32119  0.62742  1.0000
  C   C1390     1.0  0.98072  0.34120  0.56450  1.0000
  H   H2401     1.0  0.82049  0.30511  0.57174  1.0000
  H   H2402     1.0  0.95478  0.27106  0.62008  1.0000
  H   H2403     1.0  0.89873  0.27706  0.53650  1.0000
  H   H2404     1.0  0.95369  0.26884  0.58807  1.0000
  H   H2405     1.0  0.92322  0.46628  0.36522  1.0000
  H   H2406     1.0  0.98868  0.43435  0.36295  1.0000
  C   C1391     1.0  0.98106  0.31122  0.48486  1.0000
  H   H2407     1.0  0.91660  0.37607  0.63247  1.0000
  C   C1392     1.0  0.83515  0.30307  0.57249  1.0000
  C   C1393     1.0  0.98451  0.46376  0.61708  1.0000
  H   H2408     1.0  0.96920  0.30516  0.49076  1.0000
  C   C1394     1.0  0.91977  0.32937  0.54956  1.0000
  C   C1395     1.0  0.90193  0.32934  0.54857  1.0000
  C   C1396     1.0  0.88748  0.32994  0.56421  1.0000
  C   C1397     1.0  0.89104  0.32990  0.58096  1.0000
  C   C1398     1.0  0.90881  0.33039  0.58177  1.0000
  C   C1399     1.0  0.92319  0.33000  0.56613  1.0000
  H   H2409     1.0  0.89926  0.32865  0.53587  1.0000
  H   H2410     1.0  0.87371  0.32993  0.56344  1.0000
  H   H2411     1.0  0.91153  0.33102  0.59451  1.0000
  H   H2412     1.0  0.93693  0.33021  0.56693  1.0000
  H   H2413     1.0  0.81072  0.26170  0.60424  1.0000
  S   S410      1.0  0.93354  0.44388  0.33864  1.0000
  H   H2414     1.0  0.94333  0.39660  0.64547  1.0000
  C   C1400     1.0  0.96773  0.26958  0.60916  1.0000
  S   S411      1.0  0.91703  0.24553  0.63822  1.0000
  C   C1401     1.0  0.90992  0.24394  0.49994  1.0000
  C   C1402     1.0  0.89345  0.24980  0.51209  1.0000
  C   C1403     1.0  0.88495  0.26846  0.50989  1.0000
  C   C1404     1.0  0.89332  0.28136  0.49615  1.0000
  C   C1405     1.0  0.90987  0.27552  0.48408  1.0000
  C   C1406     1.0  0.91791  0.25678  0.48570  1.0000
  H   H2415     1.0  0.98522  0.31126  0.51119  1.0000
  H   H2416     1.0  0.87209  0.27302  0.51901  1.0000
  H   H2417     1.0  0.91630  0.28545  0.47332  1.0000
  H   H2418     1.0  0.93058  0.25228  0.47618  1.0000
  H   H2419     1.0  0.86732  0.25413  0.55430  1.0000
  C   C1407     1.0  0.99594  0.32684  0.55530  1.0000
  C   C1408     1.0  0.87707  0.38947  0.42639  1.0000
  C   C1409     1.0  0.88711  0.38348  0.44032  1.0000
  C   C1410     1.0  0.89342  0.39604  0.44564  1.0000
  C   C1411     1.0  0.88883  0.41469  0.43774  1.0000
  H   H2420     1.0  0.87265  0.37968  0.42190  1.0000
  H   H2421     1.0  0.89030  0.36911  0.44660  1.0000
  C   C1412     1.0  0.94053  0.38276  0.50589  1.0000
  H   H2422     1.0  0.91342  0.41469  0.40260  1.0000
  H   H2423     1.0  0.94270  0.23887  0.58022  1.0000
  H   H2424     1.0  0.80603  0.28441  0.59104  1.0000
  H   H2425     1.0  0.97668  0.40622  0.48606  1.0000
  C   C1413     1.0  0.87331  0.40802  0.41781  1.0000
  H   H2426     1.0  0.85162  0.28642  0.54352  1.0000
  S   S412      1.0  0.97610  0.45367  0.39268  1.0000
  H   H2427     1.0  0.92555  0.38741  0.54199  1.0000
  H   H2428     1.0  0.88715  0.23995  0.52303  1.0000
  H   H2429     1.0  0.84524  0.24845  0.56641  1.0000
  H   H2430     1.0  0.97139  0.39203  0.36127  1.0000
  H   H2431     1.0  0.90767  0.38609  0.38800  1.0000
  H   H2432     1.0  0.93856  0.28409  0.54965  1.0000
  H   H2433     1.0  0.90929  0.27300  0.55544  1.0000
  C   C1414     1.0  0.93371  0.41973  0.41349  1.0000
  C   C1415     1.0  0.93722  0.45881  0.36508  1.0000
  H   H2434     1.0  0.91164  0.39553  0.36394  1.0000
  H   H2435     1.0  0.95959  0.43118  0.45622  1.0000
  C   C1416     1.0  0.94637  0.46042  0.37761  1.0000
  H   H2436     1.0  0.95867  0.37360  0.61980  1.0000
  C   C1417     1.0  0.87873  0.42068  0.42388  1.0000
  H   H2437     1.0  0.99491  0.37492  0.45392  1.0000
  H   H2438     1.0  0.92308  0.36550  0.54187  1.0000
  C   C1418     1.0  0.87886  0.38937  0.51227  1.0000
  S   S413      1.0  0.88108  0.29307  0.64932  1.0000
  N   N101      1.0  0.94670  0.26222  0.53436  1.0000
  C   C1419     1.0  0.96153  0.25757  0.51782  1.0000
  C   C1420     1.0  0.94890  0.27967  0.53764  1.0000
  C   C1421     1.0  0.92802  0.26499  0.53000  1.0000
  C   C1422     1.0  0.94944  0.24642  0.55041  1.0000
  C   C1423     1.0  0.94398  0.37881  0.61891  1.0000
  H   H2439     1.0  0.86350  0.25119  0.61298  1.0000
  C   C1424     1.0  0.91144  0.27742  0.54035  1.0000
  H   H2440     1.0  0.93918  0.46887  0.38759  1.0000
  C   C1425     1.0  0.96226  0.27692  0.59041  1.0000
  C   C1426     1.0  0.97730  0.41579  0.43501  1.0000
  C   C1427     1.0  0.87776  0.24451  0.61297  1.0000
  C   C1428     1.0  0.98584  0.33868  0.63060  1.0000
  H   H2441     1.0  0.92841  0.27137  0.51523  1.0000
  H   H2442     1.0  0.92428  0.25160  0.53213  1.0000
  C   C1429     1.0  0.95903  0.24300  0.50907  1.0000
  H   H2443     1.0  0.96820  0.43738  0.63525  1.0000
  H   H2444     1.0  0.99367  0.45141  0.61251  1.0000
  H   H2445     1.0  0.98962  0.47573  0.60760  1.0000
  H   H2446     1.0  0.97130  0.40354  0.44122  1.0000
  H   H2447     1.0  0.97543  0.25252  0.52132  1.0000
  H   H2448     1.0  0.91272  0.29192  0.53612  1.0000
  S   S414      1.0  0.89396  0.45074  0.38148  1.0000
  H   H2449     1.0  0.97718  0.33633  0.57957  1.0000
  H   H2450     1.0  0.93305  0.35533  0.63574  1.0000
  H   H2451     1.0  0.88023  0.26011  0.63105  1.0000
  H   H2452     1.0  0.93140  0.40987  0.42677  1.0000
  Fe  Fe204     1.0  0.87046  0.44037  0.37949  1.0000
  H   H2453     1.0  0.97087  0.37073  0.37788  1.0000
  C   C1430     1.0  0.97515  0.33548  0.62043  1.0000
  H   H2454     1.0  0.94813  0.42160  0.40970  1.0000
  C   C1431     1.0  0.93607  0.24820  0.56906  1.0000
  H   H2455     1.0  0.81478  0.26496  0.57995  1.0000
  H   H2456     1.0  0.96124  0.36554  0.64794  1.0000
  H   H2457     1.0  0.95239  0.45289  0.64786  1.0000
  H   H2458     1.0  0.94621  0.29113  0.52583  1.0000
  H   H2459     1.0  0.95373  0.29106  0.59000  1.0000
  H   H2460     1.0  0.92463  0.43315  0.41573  1.0000
  H   H2461     1.0  0.88381  0.28491  0.58759  1.0000
  C   C1432     1.0  0.90391  0.40841  0.52061  1.0000
  H   H2462     1.0  0.89340  0.42450  0.44204  1.0000
  S   S415      1.0  0.90261  0.32741  0.63577  1.0000
  S   S416      1.0  0.88095  0.43982  0.34948  1.0000
  H   H2463     1.0  0.86619  0.38381  0.51596  1.0000
  H   H2464     1.0  0.97880  0.27842  0.52759  1.0000
  H   H2465     1.0  0.88328  0.43283  0.52643  1.0000
  H   H2466     1.0  0.87682  0.41284  0.54065  1.0000
  H   H2467     1.0  0.97408  0.34422  0.60713  1.0000
  H   H2468     1.0  0.88711  0.38528  0.49929  1.0000
  H   H2469     1.0  0.84385  0.25734  0.59232  1.0000
  H   H2470     1.0  0.84103  0.33024  0.56038  1.0000
  H   H2471     1.0  0.96860  0.47966  0.34128  1.0000
  H   H2472     1.0  0.97204  0.23862  0.49918  1.0000
  C   C1433     1.0  0.93047  0.37020  0.63567  1.0000
  H   H2473     1.0  0.83622  0.31985  0.54446  1.0000
  H   H2474     1.0  0.93846  0.40662  0.36442  1.0000
  H   H2475     1.0  0.94729  0.37465  0.51737  1.0000
  Fe  Fe205     1.0  0.86396  0.46856  0.34523  1.0000
  H   H2476     1.0  0.89225  0.36630  0.53040  1.0000
  H   H2477     1.0  0.87902  0.38474  0.54059  1.0000
  H   H2478     1.0  0.91584  0.38731  0.49624  1.0000
  H   H2479     1.0  0.94143  0.39725  0.50304  1.0000
  H   H2480     1.0  0.92121  0.36573  0.51109  1.0000
  C   C1434     1.0  0.94612  0.44759  0.35247  1.0000
  H   H2481     1.0  0.94882  0.37732  0.49354  1.0000
  H   H2482     1.0  0.90104  0.41420  0.50659  1.0000
  C   C1435     1.0  0.91334  0.39699  0.37722  1.0000
  H   H2483     1.0  0.90478  0.41059  0.37932  1.0000
  C   C1436     1.0  0.88896  0.41903  0.53411  1.0000
  H   H2484     1.0  0.89492  0.42073  0.54490  1.0000
  C   C1437     1.0  0.91520  0.37982  0.54209  1.0000
  C   C1438     1.0  0.90184  0.37871  0.56112  1.0000
  H   H2485     1.0  0.91690  0.41259  0.51955  1.0000
  H   H2486     1.0  0.91839  0.38282  0.41267  1.0000
  C   C1439     1.0  0.88926  0.38150  0.52807  1.0000
  C   C1440     1.0  0.92043  0.38059  0.50933  1.0000
  N   N102      1.0  0.90685  0.38785  0.52534  1.0000
  H   H2487     1.0  0.91010  0.37389  0.57191  1.0000
  C   C1441     1.0  0.96216  0.43201  0.44126  1.0000
  S   S417      1.0  0.84608  0.48156  0.32469  1.0000
  C   C1442     1.0  0.83571  0.27169  0.59020  1.0000
  C   C1443     1.0  0.90535  0.24021  0.62438  1.0000
  H   H2488     1.0  0.86486  0.30383  0.58431  1.0000
  H   H2489     1.0  0.97219  0.26815  0.55172  1.0000
  H   H2490     1.0  0.87335  0.28556  0.56004  1.0000
  N   N103      1.0  0.84498  0.28333  0.57306  1.0000
  H   H2491     1.0  0.96745  0.29248  0.54394  1.0000
  H   H2492     1.0  0.91763  0.42018  0.64263  1.0000
  H   H2493     1.0  0.87144  0.26545  0.57677  1.0000
  S   S418      1.0  0.85174  0.46828  0.37511  1.0000
  C   C1444     1.0  0.84406  0.27821  0.55598  1.0000
  N   N104      1.0  0.93912  0.39631  0.39316  1.0000
  C   C1445     1.0  0.93406  0.39544  0.37597  1.0000
  C   C1446     1.0  0.95958  0.39580  0.38962  1.0000
  C   C1447     1.0  0.93364  0.38130  0.40912  1.0000
  C   C1448     1.0  0.97286  0.38479  0.37545  1.0000
  C   C1449     1.0  0.94236  0.36159  0.40659  1.0000
  H   H2494     1.0  0.94149  0.38254  0.37131  1.0000
  H   H2495     1.0  0.96224  0.40983  0.38419  1.0000
  H   H2496     1.0  0.96457  0.39072  0.40268  1.0000
  H   H2497     1.0  0.93721  0.38225  0.42173  1.0000
  C   C1450     1.0  0.84316  0.31719  0.55602  1.0000
  H   H2498     1.0  0.96254  0.27003  0.50663  1.0000
  H   H2499     1.0  0.99197  0.30031  0.58619  1.0000
  H   H2500     1.0  0.93906  0.35879  0.39472  1.0000
  H   H2501     1.0  0.93655  0.35203  0.41896  1.0000
  H   H2502     1.0  0.95751  0.35824  0.40551  1.0000
  H   H2503     1.0  0.89267  0.39201  0.56321  1.0000
  H   H2504     1.0  0.89341  0.36844  0.56363  1.0000
  H   H2505     1.0  0.87431  0.40449  0.50990  1.0000
  C   C1451     1.0  0.98702  0.31599  0.46576  1.0000
  H   H2506     1.0  0.93002  0.42570  0.38584  1.0000
  H   H2507     1.0  0.83396  0.30728  0.58550  1.0000
  S   S419      1.0  0.86281  0.41497  0.39891  1.0000
  H   H2508     1.0  0.85824  0.31303  0.55072  1.0000
  C   C1452     1.0  0.98787  0.32725  0.64757  1.0000
  H   H2509     1.0  0.93291  0.26193  0.57214  1.0000
  C   C1453     1.0  0.86876  0.28874  0.58777  1.0000
  Fe  Fe206     1.0  0.87652  0.47870  0.37399  1.0000
  H   H2510     1.0  0.94271  0.37529  0.60641  1.0000
  C   C1454     1.0  0.97426  0.44108  0.36361  1.0000
  H   H2511     1.0  0.97182  0.43034  0.34162  1.0000
  H   H2512     1.0  0.86143  0.28386  0.60199  1.0000
  H   H2513     1.0  0.94893  0.43171  0.43836  1.0000
  H   H2514     1.0  0.85026  0.25568  0.54206  1.0000
  H   H2515     1.0  0.87527  0.43508  0.41777  1.0000
  H   H2516     1.0  0.97028  0.46521  0.61539  1.0000
  C   C1455     1.0  0.81569  0.27087  0.59108  1.0000
  C   C1456     1.0  0.96804  0.27937  0.54040  1.0000
  Fe  Fe207     1.0  0.88975  0.31278  0.62321  1.0000
  H   H2517     1.0  0.97456  0.27814  0.57903  1.0000
  C   C1457     1.0  0.96479  0.43888  0.35152  1.0000
  H   H2518     1.0  0.98737  0.38372  0.37606  1.0000
  H   H2519     1.0  0.83522  0.27656  0.60260  1.0000
  H   H2520     1.0  0.82956  0.28177  0.55415  1.0000
  C   C1458     1.0  0.88720  0.24949  0.62335  1.0000
  H   H2521     1.0  0.97885  0.41751  0.41993  1.0000
  H   H2522     1.0  0.96793  0.34333  0.55950  1.0000
  H   H2523     1.0  0.99119  0.37962  0.43080  1.0000
  N   N105      1.0  0.97911  0.25028  0.61257  1.0000
  H   H2524     1.0  0.94058  0.39396  0.61666  1.0000
  H   H2525     1.0  0.96529  0.44544  0.43359  1.0000
  C   C1459     1.0  0.98371  0.39987  0.47398  1.0000
  C   C1460     1.0  0.98378  0.24650  0.63115  1.0000
  C   C1461     1.0  0.99596  0.24468  0.57965  1.0000
  S   S420      1.0  0.88724  0.48122  0.34361  1.0000
  H   H2526     1.0  0.95508  0.23865  0.62554  1.0000
  Fe  Fe208     1.0  0.90904  0.27498  0.64107  1.0000
  H   H2527     1.0  0.97096  0.24693  0.64229  1.0000
  H   H2528     1.0  0.97527  0.27947  0.60995  1.0000
  C   C1462     1.0  0.91365  0.40675  0.64843  1.0000
  C   C1463     1.0  0.99022  0.31458  0.49645  1.0000
  H   H2529     1.0  0.94808  0.24871  0.50108  1.0000
  H   H2530     1.0  0.97259  0.39680  0.46969  1.0000
  H   H2531     1.0  0.90894  0.40398  0.63742  1.0000
  H   H2532     1.0  0.98879  0.42711  0.46207  1.0000
  C   C1464     1.0  0.98436  0.46415  0.63692  1.0000
  H   H2533     1.0  0.99481  0.44259  0.43005  1.0000
  C   C1465     1.0  0.96467  0.44138  0.64867  1.0000
  H   H2534     1.0  0.97385  0.47679  0.63980  1.0000
  C   C1466     1.0  0.96677  0.31040  0.64498  1.0000
  H   H2535     1.0  0.96389  0.24262  0.55241  1.0000
  H   H2536     1.0  0.96119  0.24026  0.60187  1.0000
  H   H2537     1.0  0.98442  0.35469  0.56106  1.0000
  C   C1467     1.0  0.99458  0.41312  0.45915  1.0000
  N   N106      1.0  0.99590  0.41329  0.43932  1.0000
  H   H2538     1.0  0.98194  0.24622  0.57767  1.0000
  H   H2539     1.0  0.98997  0.31463  0.55854  1.0000
  H   H2540     1.0  0.98546  0.27304  0.63519  1.0000
  H   H2541     1.0  0.99320  0.38681  0.47867  1.0000
  H   H2542     1.0  0.92297  0.24428  0.57004  1.0000
  C   C1468     1.0  0.99449  0.25943  0.63370  1.0000
  C   C1469     1.0  0.99691  0.24800  0.59819  1.0000
  H   H2543     1.0  0.99557  0.42108  0.63030  1.0000
  H   H2544     1.0  0.95948  0.29939  0.65051  1.0000
  N   N107      1.0  0.98009  0.44777  0.65179  1.0000
  H   H2545     1.0  0.52516  0.31618  0.98060  1.0000
  H   H2546     1.0  0.55747  0.39849  0.93791  1.0000
  H   H2547     1.0  0.56990  0.25538  0.98105  1.0000
  H   H2548     1.0  0.93566  0.45324  0.78924  1.0000
  Fe  Fe209     1.0  0.60259  0.32086  0.93977  1.0000
  S   S421      1.0  0.58417  0.33135  0.96437  1.0000
  S   S422      1.0  0.62279  0.33824  0.92252  1.0000
  Fe  Fe210     1.0  0.58215  0.29063  0.94523  1.0000
  S   S423      1.0  0.56216  0.29931  0.96985  1.0000
  C   C1470     1.0  0.89679  0.44729  0.70048  1.0000
  Fe  Fe211     1.0  0.56146  0.32788  0.95383  1.0000
  S   S424      1.0  0.53579  0.35014  0.95545  1.0000
  H   H2549     1.0  0.71139  0.46528  0.96713  1.0000
  H   H2550     1.0  0.95751  0.42986  0.84165  1.0000
  S   S425      1.0  0.57944  0.31931  0.92811  1.0000
  S   S426      1.0  0.60727  0.29122  0.95444  1.0000
  C   C1471     1.0  0.88489  0.33915  0.77301  1.0000
  C   C1472     1.0  0.50137  0.35758  0.94863  1.0000
  Fe  Fe212     1.0  0.67691  0.38232  0.96583  1.0000
  H   H2551     1.0  0.80630  0.48550  0.85827  1.0000
  S   S427      1.0  0.67063  0.35503  0.96807  1.0000
  Fe  Fe213     1.0  0.70716  0.40306  0.95896  1.0000
  C   C1473     1.0  0.94564  0.44576  0.77898  1.0000
  S   S428      1.0  0.73584  0.40689  0.94449  1.0000
  C   C1474     1.0  0.94478  0.32521  0.77660  1.0000
  Fe  Fe214     1.0  0.66780  0.42383  0.96117  1.0000
  S   S429      1.0  0.65097  0.45182  0.95205  1.0000
  C   C1475     1.0  0.83548  0.48245  0.88297  1.0000
  S   S430      1.0  0.68630  0.40493  0.94285  1.0000
  H   H2552     1.0  0.72636  0.40705  0.98277  1.0000
  Fe  Fe215     1.0  0.92759  0.36838  0.73079  1.0000
  S   S431      1.0  0.92931  0.39269  0.70743  1.0000
  S   S432      1.0  0.93304  0.33956  0.72676  1.0000
  Fe  Fe216     1.0  0.92786  0.38930  0.75889  1.0000
  S   S433      1.0  0.92971  0.41532  0.73795  1.0000
  S   S434      1.0  0.93113  0.38523  0.78784  1.0000
  Fe  Fe217     1.0  0.90870  0.40837  0.72755  1.0000
  S   S435      1.0  0.88640  0.43190  0.71888  1.0000
  Fe  Fe218     1.0  0.95007  0.39751  0.71975  1.0000
  S   S436      1.0  0.90486  0.38360  0.75015  1.0000
  S   S437      1.0  0.95022  0.37208  0.74146  1.0000
  C   C1476     1.0  0.90596  0.44194  0.68384  1.0000
  H   H2553     1.0  0.51236  0.31668  0.92494  1.0000
  C   C1477     1.0  0.98653  0.33606  0.72175  1.0000
  H   H2554     1.0  0.88652  0.45364  0.86442  1.0000
  H   H2555     1.0  0.91330  0.35684  0.81599  1.0000
  S   S438      1.0  0.89524  0.45590  0.82157  1.0000
  H   H2556     1.0  0.89718  0.36009  0.65518  1.0000
  S   S439      1.0  0.93965  0.47798  0.80981  1.0000
  H   H2557     1.0  0.94691  0.44714  0.72359  1.0000
  S   S440      1.0  0.92065  0.46863  0.85396  1.0000
  H   H2558     1.0  0.90617  0.42852  0.68222  1.0000
  Fe  Fe219     1.0  0.89639  0.30625  0.66141  1.0000
  C   C1478     1.0  0.55795  0.26358  0.93592  1.0000
  S   S441      1.0  0.88321  0.31753  0.68713  1.0000
  H   H2559     1.0  0.94693  0.31146  0.78571  1.0000
  S   S442      1.0  0.78595  0.47700  0.94586  1.0000
  H   H2560     1.0  0.49780  0.32247  0.97140  1.0000
  C   C1479     1.0  0.91926  0.33424  0.71508  1.0000
  C   C1480     1.0  0.90049  0.34262  0.71679  1.0000
  C   C1481     1.0  0.88951  0.33719  0.70835  1.0000
  C   C1482     1.0  0.89740  0.32395  0.69752  1.0000
  C   C1483     1.0  0.91631  0.31595  0.69540  1.0000
  C   C1484     1.0  0.92714  0.32087  0.70442  1.0000
  H   H2561     1.0  0.89430  0.35290  0.72501  1.0000
  H   H2562     1.0  0.87487  0.34336  0.71007  1.0000
  H   H2563     1.0  0.92248  0.30568  0.68717  1.0000
  H   H2564     1.0  0.94168  0.31434  0.70306  1.0000
  C   C1485     1.0  0.84158  0.48571  0.98038  1.0000
  H   H2565     1.0  0.91631  0.46595  0.73912  1.0000
  H   H2566     1.0  0.83812  0.46817  0.89106  1.0000
  C   C1486     1.0  0.98515  0.42569  0.73963  1.0000
  H   H2567     1.0  0.98641  0.44151  0.79092  1.0000
  C   C1487     1.0  0.59823  0.24035  0.97976  1.0000
  H   H2568     1.0  0.91859  0.30654  0.79888  1.0000
  H   H2569     1.0  0.96969  0.41281  0.66430  1.0000
  H   H2570     1.0  0.93390  0.33962  0.79851  1.0000
  C   C1488     1.0  0.97864  0.41548  0.73142  1.0000
  C   C1489     1.0  0.92117  0.40480  0.79731  1.0000
  C   C1490     1.0  0.92759  0.40708  0.81165  1.0000
  C   C1491     1.0  0.92003  0.42296  0.81894  1.0000
  C   C1492     1.0  0.90562  0.43625  0.81231  1.0000
  C   C1493     1.0  0.89877  0.43357  0.79848  1.0000
  C   C1494     1.0  0.90680  0.41811  0.79070  1.0000
  H   H2571     1.0  0.93858  0.39670  0.81693  1.0000
  H   H2572     1.0  0.92497  0.42476  0.82995  1.0000
  H   H2573     1.0  0.88737  0.44363  0.79357  1.0000
  H   H2574     1.0  0.90164  0.41636  0.77978  1.0000
  H   H2575     1.0  0.50208  0.31231  0.86859  1.0000
  C   C1495     1.0  0.94932  0.36115  0.65842  1.0000
  H   H2576     1.0  0.86210  0.46281  0.96956  1.0000
  H   H2577     1.0  0.56238  0.37438  0.94824  1.0000
  H   H2578     1.0  0.87445  0.45683  0.91578  1.0000
  C   C1496     1.0  0.91466  0.47136  0.67139  1.0000
  H   H2579     1.0  0.94220  0.32426  0.76354  1.0000
  C   C1497     1.0  0.74379  0.41727  0.95736  1.0000
  H   H2580     1.0  0.80617  0.48205  0.88703  1.0000
  H   H2581     1.0  0.61883  0.36487  0.88067  1.0000
  H   H2582     1.0  0.91641  0.31761  0.81645  1.0000
  C   C1498     1.0  0.76255  0.43694  0.95916  1.0000
  C   C1499     1.0  0.75712  0.42780  0.94886  1.0000
  C   C1500     1.0  0.89956  0.35429  0.81703  1.0000
  C   C1501     1.0  0.59006  0.36939  0.89542  1.0000
  H   H2583     1.0  0.77289  0.44494  0.95257  1.0000
  H   H2584     1.0  0.76310  0.42903  0.93431  1.0000
  C   C1502     1.0  0.63590  0.34323  0.93515  1.0000
  C   C1503     1.0  0.63880  0.33171  0.95186  1.0000
  C   C1504     1.0  0.64975  0.33544  0.96156  1.0000
  C   C1505     1.0  0.65728  0.35106  0.95503  1.0000
  C   C1506     1.0  0.65408  0.36285  0.93850  1.0000
  C   C1507     1.0  0.64359  0.35879  0.92844  1.0000
  H   H2585     1.0  0.63310  0.31959  0.95702  1.0000
  H   H2586     1.0  0.95608  0.37438  0.67679  1.0000
  H   H2587     1.0  0.66002  0.37482  0.93329  1.0000
  H   H2588     1.0  0.64152  0.36768  0.91544  1.0000
  C   C1508     1.0  0.51911  0.34626  0.94647  1.0000
  H   H2589     1.0  0.98490  0.36264  0.70334  1.0000
  C   C1509     1.0  0.92910  0.47150  0.73422  1.0000
  H   H2590     1.0  0.94148  0.35816  0.68866  1.0000
  C   C1510     1.0  0.50932  0.32815  0.93145  1.0000
  C   C1511     1.0  0.52315  0.33160  0.93777  1.0000
  H   H2591     1.0  0.99480  0.44774  0.80679  1.0000
  H   H2592     1.0  0.91333  0.37121  0.68152  1.0000
  H   H2593     1.0  0.52406  0.27225  0.97153  1.0000
  H   H2594     1.0  0.53683  0.32278  0.93611  1.0000
  C   C1512     1.0  0.58272  0.38198  0.92293  1.0000
  C   C1513     1.0  0.52693  0.26053  0.92531  1.0000
  H   H2595     1.0  0.95912  0.41642  0.82568  1.0000
  H   H2596     1.0  0.72810  0.46229  0.94662  1.0000
  H   H2597     1.0  0.96351  0.47168  0.75498  1.0000
  C   C1514     1.0  0.91579  0.36563  0.66904  1.0000
  H   H2598     1.0  0.94732  0.42147  0.65907  1.0000
  C   C1515     1.0  0.54776  0.27888  0.92587  1.0000
  C   C1516     1.0  0.95728  0.47282  0.74329  1.0000
  H   H2599     1.0  0.95957  0.44835  0.77677  1.0000
  H   H2600     1.0  0.91174  0.32093  0.77059  1.0000
  H   H2601     1.0  0.68165  0.47676  0.93434  1.0000
  H   H2602     1.0  0.55217  0.29172  0.92165  1.0000
  N   N108      1.0  0.57512  0.38118  0.90719  1.0000
  C   C1517     1.0  0.55891  0.37199  0.91444  1.0000
  C   C1518     1.0  0.57034  0.39995  0.89536  1.0000
  C   C1519     1.0  0.54976  0.36996  0.89997  1.0000
  C   C1520     1.0  0.55379  0.41383  0.90381  1.0000
  H   H2603     1.0  0.58556  0.36889  0.88316  1.0000
  H   H2604     1.0  0.54764  0.37910  0.92419  1.0000
  C   C1521     1.0  0.53650  0.24551  0.93622  1.0000
  H   H2605     1.0  0.58230  0.40667  0.89123  1.0000
  H   H2606     1.0  0.56819  0.39922  0.88196  1.0000
  H   H2607     1.0  0.86993  0.47878  0.84451  1.0000
  H   H2608     1.0  0.55893  0.36003  0.89162  1.0000
  H   H2609     1.0  0.53723  0.36437  0.90721  1.0000
  H   H2610     1.0  0.55823  0.42129  0.91160  1.0000
  H   H2611     1.0  0.54212  0.40775  0.91265  1.0000
  H   H2612     1.0  0.54785  0.42395  0.89258  1.0000
  H   H2613     1.0  0.54510  0.38328  0.89098  1.0000
  C   C1522     1.0  0.96518  0.42673  0.82803  1.0000
  H   H2614     1.0  0.95049  0.34660  0.65820  1.0000
  H   H2615     1.0  0.99480  0.42198  0.66580  1.0000
  S   S443      1.0  0.50903  0.25844  0.91644  1.0000
  H   H2616     1.0  0.68640  0.46376  0.95539  1.0000
  C   C1523     1.0  0.89081  0.31311  0.81377  1.0000
  C   C1524     1.0  0.87117  0.45665  0.86829  1.0000
  H   H2617     1.0  0.56328  0.35807  0.92268  1.0000
  S   S444      1.0  0.57881  0.26432  0.94067  1.0000
  H   H2618     1.0  0.60409  0.25167  0.96983  1.0000
  H   H2619     1.0  0.94683  0.43094  0.78496  1.0000
  H   H2620     1.0  0.81287  0.46662  0.84714  1.0000
  H   H2621     1.0  0.89379  0.47428  0.88950  1.0000
  H   H2622     1.0  0.88770  0.30530  0.80535  1.0000
  S   S445      1.0  0.83997  0.46766  0.93991  1.0000
  C   C1525     1.0  0.64125  0.48267  0.96634  1.0000
  H   H2623     1.0  0.71388  0.45912  0.91837  1.0000
  C   C1526     1.0  0.95828  0.42513  0.66321  1.0000
  H   H2624     1.0  0.99542  0.48576  0.79829  1.0000
  S   S446      1.0  0.92375  0.28642  0.65538  1.0000
  C   C1527     1.0  0.93878  0.45019  0.76106  1.0000
  S   S447      1.0  0.65628  0.40160  0.98245  1.0000
  H   H2625     1.0  0.99595  0.32240  0.72403  1.0000
  H   H2626     1.0  0.99543  0.37198  0.72448  1.0000
  S   S448      1.0  0.68922  0.42335  0.97583  1.0000
  H   H2627     1.0  0.88387  0.33569  0.76037  1.0000
  C   C1528     1.0  0.71793  0.47291  0.95360  1.0000
  H   H2628     1.0  0.86734  0.45396  0.88349  1.0000
  C   C1529     1.0  0.98868  0.47845  0.84242  1.0000
  S   S449      1.0  0.80124  0.47088  0.98319  1.0000
  C   C1530     1.0  0.90538  0.47676  0.68798  1.0000
  H   H2629     1.0  0.95310  0.46848  0.71106  1.0000
  H   H2630     1.0  0.88924  0.36651  0.82103  1.0000
  Fe  Fe220     1.0  0.77530  0.46982  0.97624  1.0000
  C   C1531     1.0  0.55218  0.24695  0.94121  1.0000
  C   C1532     1.0  0.97328  0.45390  0.66991  1.0000
  H   H2631     1.0  0.92411  0.48614  0.72805  1.0000
  C   C1533     1.0  0.89676  0.36911  0.66429  1.0000
  H   H2632     1.0  0.60763  0.38852  0.87777  1.0000
  C   C1534     1.0  0.90978  0.31823  0.80515  1.0000
  C   C1535     1.0  0.73624  0.41557  0.97615  1.0000
  H   H2633     1.0  0.96672  0.46207  0.73607  1.0000
  H   H2634     1.0  0.71377  0.44408  0.94072  1.0000
  S   S450      1.0  0.97638  0.46469  0.83799  1.0000
  H   H2635     1.0  0.96276  0.43960  0.81765  1.0000
  H   H2636     1.0  0.87876  0.35402  0.77186  1.0000
  C   C1536     1.0  0.53248  0.27725  0.92032  1.0000
  H   H2637     1.0  0.59190  0.36860  0.92759  1.0000
  H   H2638     1.0  0.59300  0.35494  0.90318  1.0000
  H   H2639     1.0  0.87883  0.48435  0.96232  1.0000
  H   H2640     1.0  0.96544  0.35037  0.67953  1.0000
  N   N109      1.0  0.93793  0.46948  0.74999  1.0000
  H   H2641     1.0  0.98162  0.34124  0.73462  1.0000
  H   H2642     1.0  0.49824  0.36896  0.95530  1.0000
  H   H2643     1.0  0.86680  0.44685  0.86321  1.0000
  N   N110      1.0  0.91001  0.33597  0.79118  1.0000
  H   H2644     1.0  0.96751  0.40876  0.73923  1.0000
  C   C1537     1.0  0.56860  0.38629  0.94054  1.0000
  Fe  Fe221     1.0  0.58672  0.30181  0.97798  1.0000
  H   H2645     1.0  0.59164  0.39216  0.91843  1.0000
  C   C1538     1.0  0.87026  0.47159  0.91213  1.0000
  H   H2646     1.0  0.92505  0.44654  0.76465  1.0000
  H   H2647     1.0  0.89696  0.34238  0.82829  1.0000
  H   H2648     1.0  0.93311  0.46290  0.70860  1.0000
  C   C1539     1.0  0.89720  0.35217  0.79862  1.0000
  H   H2649     1.0  0.84071  0.45743  0.98262  1.0000
  H   H2650     1.0  0.97994  0.46687  0.68822  1.0000
  H   H2651     1.0  0.91177  0.34437  0.76180  1.0000
  C   C1540     1.0  0.89629  0.46480  0.70245  1.0000
  C   C1541     1.0  0.91450  0.45411  0.66920  1.0000
  H   H2652     1.0  0.61492  0.37609  0.89896  1.0000
  C   C1542     1.0  0.60877  0.37534  0.88792  1.0000
  H   H2653     1.0  0.60716  0.37092  0.95721  1.0000
  H   H2654     1.0  0.97926  0.30463  0.66833  1.0000
  H   H2655     1.0  0.87922  0.32496  0.81596  1.0000
  C   C1543     1.0  0.92939  0.33928  0.78619  1.0000
  H   H2656     1.0  0.89891  0.36514  0.78847  1.0000
  H   H2657     1.0  0.52516  0.28890  0.91184  1.0000
  C   C1544     1.0  0.64588  0.46352  0.96990  1.0000
  C   C1545     1.0  0.51718  0.28655  0.97285  1.0000
  H   H2658     1.0  0.57588  0.38892  0.94976  1.0000
  H   H2659     1.0  0.97849  0.41314  0.79842  1.0000
  H   H2660     1.0  0.91984  0.35050  0.67360  1.0000
  H   H2661     1.0  0.88242  0.35201  0.80076  1.0000
  H   H2662     1.0  0.88642  0.36546  0.67708  1.0000
  C   C1546     1.0  0.99552  0.34964  0.70551  1.0000
  H   H2663     1.0  0.97912  0.42678  0.75374  1.0000
  H   H2664     1.0  0.95804  0.32974  0.77298  1.0000
  C   C1547     1.0  0.98564  0.46417  0.67417  1.0000
  Fe  Fe222     1.0  0.91258  0.47207  0.82724  1.0000
  H   H2665     1.0  0.92983  0.35293  0.77691  1.0000
  H   H2666     1.0  0.99127  0.39320  0.81085  1.0000
  S   S451      1.0  0.97679  0.40362  0.70200  1.0000
  C   C1548     1.0  0.94141  0.46186  0.71862  1.0000
  H   H2667     1.0  0.59944  0.38920  0.96932  1.0000
  H   H2668     1.0  0.95195  0.42868  0.67686  1.0000
  H   H2669     1.0  0.94794  0.44024  0.75277  1.0000
  C   C1549     1.0  0.83567  0.47020  0.85633  1.0000
  H   H2670     1.0  0.89825  0.48354  0.76002  1.0000
  H   H2671     1.0  0.89107  0.30442  0.82773  1.0000
  H   H2672     1.0  0.87650  0.33123  0.78477  1.0000
  C   C1550     1.0  0.95300  0.36122  0.67697  1.0000
  H   H2673     1.0  0.84606  0.46470  0.84475  1.0000
  C   C1551     1.0  0.60933  0.37590  0.96843  1.0000
  H   H2674     1.0  0.88911  0.46902  0.71527  1.0000
  H   H2675     1.0  0.69569  0.44705  0.92938  1.0000
  H   H2676     1.0  0.83350  0.45797  0.86748  1.0000
  C   C1552     1.0  0.90548  0.33475  0.77381  1.0000
  C   C1553     1.0  0.97794  0.31335  0.65505  1.0000
  H   H2677     1.0  0.61519  0.34810  0.98409  1.0000
  C   C1554     1.0  0.70504  0.45434  0.93181  1.0000
  S   S452      1.0  0.69957  0.37885  0.98034  1.0000
  H   H2678     1.0  0.52773  0.29482  0.96632  1.0000
  C   C1555     1.0  0.69326  0.47011  0.94134  1.0000
  H   H2679     1.0  0.97416  0.33409  0.71844  1.0000
  N   N111      1.0  0.70359  0.48354  0.94243  1.0000
  H   H2680     1.0  0.74073  0.47454  0.96406  1.0000
  H   H2681     1.0  0.98951  0.42815  0.83521  1.0000
  H   H2682     1.0  0.97171  0.44208  0.68166  1.0000
  C   C1556     1.0  0.81772  0.47806  0.84898  1.0000
  H   H2683     1.0  0.92107  0.45011  0.65621  1.0000
  H   H2684     1.0  0.62366  0.37799  0.96418  1.0000
  C   C1557     1.0  0.90650  0.48128  0.77043  1.0000
  C   C1558     1.0  0.86371  0.47681  0.85950  1.0000
  H   H2685     1.0  0.52515  0.25339  0.87812  1.0000
  H   H2686     1.0  0.90193  0.40815  0.66051  1.0000
  C   C1559     1.0  0.92655  0.48324  0.76143  1.0000
  H   H2687     1.0  0.65245  0.32614  0.97417  1.0000
  S   S453      1.0  0.92711  0.48562  0.65347  1.0000
  Fe  Fe223     1.0  0.81089  0.48065  0.95283  1.0000
  C   C1560     1.0  0.98650  0.41411  0.71315  1.0000
  H   H2688     1.0  0.98580  0.47771  0.66472  1.0000
  H   H2689     1.0  0.90591  0.46791  0.77992  1.0000
  C   C1561     1.0  0.85373  0.48068  0.92205  1.0000
  H   H2690     1.0  0.54036  0.26478  0.85945  1.0000
  N   N112      1.0  0.93112  0.37271  0.65414  1.0000
  H   H2691     1.0  0.50627  0.29114  0.96477  1.0000
  H   H2692     1.0  0.98726  0.40552  0.83769  1.0000
  H   H2693     1.0  0.86981  0.48515  0.86480  1.0000
  C   C1562     1.0  0.88120  0.48143  0.89722  1.0000
  C   C1563     1.0  0.72975  0.48410  0.95728  1.0000
  H   H2694     1.0  0.93030  0.39362  0.66802  1.0000
  C   C1564     1.0  0.98591  0.41926  0.82828  1.0000
  N   N113      1.0  0.84291  0.48310  0.86269  1.0000
  C   C1565     1.0  0.53990  0.25358  0.87189  1.0000
  C   C1566     1.0  0.85106  0.46523  0.98188  1.0000
  C   C1567     1.0  0.75477  0.43539  0.97797  1.0000
  H   H2695     1.0  0.54597  0.25722  0.88149  1.0000
  H   H2696     1.0  0.93339  0.48312  0.77236  1.0000
  Fe  Fe224     1.0  0.94661  0.47754  0.83621  1.0000
  H   H2697     1.0  0.95923  0.46310  0.67070  1.0000
  C   C1568     1.0  0.99252  0.40656  0.80119  1.0000
  C   C1569     1.0  0.93045  0.39225  0.65407  1.0000
  H   H2698     1.0  0.89148  0.38352  0.65809  1.0000
  H   H2699     1.0  0.72685  0.48345  0.91914  1.0000
  H   H2700     1.0  0.81627  0.50744  0.26333  1.0000
  S   S454      1.0  0.94726  0.63350  0.29563  1.0000
  S   S455      1.0  0.79039  0.51528  0.00376  1.0000
  H   H2701     1.0  0.75362  0.59394  0.15362  1.0000
  H   H2702     1.0  0.50871  0.68660  0.17644  1.0000
  C   C1570     1.0  0.65732  0.49883  0.12718  1.0000
  H   H2703     1.0  0.50039  0.71088  0.19360  1.0000
  H   H2704     1.0  0.99227  0.60579  0.31595  1.0000
  N   N114      1.0  0.94597  0.60683  0.24525  1.0000
  Fe  Fe225     1.0  0.86258  0.55536  0.20178  1.0000
  S   S456      1.0  0.89221  0.54035  0.20094  1.0000
  S   S457      1.0  0.84389  0.55746  0.18272  1.0000
  Fe  Fe226     1.0  0.86107  0.57195  0.23409  1.0000
  S   S458      1.0  0.89025  0.55844  0.23610  1.0000
  S   S459      1.0  0.84082  0.58942  0.25294  1.0000
  Fe  Fe227     1.0  0.89663  0.56602  0.20533  1.0000
  S   S460      1.0  0.92168  0.57722  0.18916  1.0000
  Fe  Fe228     1.0  0.88369  0.53386  0.23172  1.0000
  S   S461      1.0  0.89612  0.50650  0.24734  1.0000
  S   S462      1.0  0.86776  0.58187  0.20352  1.0000
  S   S463      1.0  0.85362  0.54663  0.23234  1.0000
  Fe  Fe229     1.0  0.66483  0.54310  0.01452  1.0000
  H   H2705     1.0  0.82572  0.62919  0.29616  1.0000
  S   S464      1.0  0.68381  0.54164  0.03233  1.0000
  Fe  Fe230     1.0  0.65276  0.59145  0.10874  1.0000
  S   S465      1.0  0.63019  0.57786  0.12686  1.0000
  S   S466      1.0  0.65117  0.60303  0.07911  1.0000
  Fe  Fe231     1.0  0.67268  0.58423  0.13938  1.0000
  S   S467      1.0  0.65210  0.56950  0.16027  1.0000
  S   S468      1.0  0.69838  0.58761  0.14504  1.0000
  Fe  Fe232     1.0  0.65286  0.55638  0.13764  1.0000
  Fe  Fe233     1.0  0.63106  0.59215  0.14790  1.0000
  S   S469      1.0  0.60382  0.60230  0.16568  1.0000
  S   S470      1.0  0.67574  0.56879  0.11791  1.0000
  S   S471      1.0  0.65146  0.60822  0.12872  1.0000
  S   S472      1.0  0.81552  0.51113  0.10083  1.0000
  H   H2706     1.0  0.63295  0.55398  0.09635  1.0000
  S   S473      1.0  0.77376  0.55215  0.09770  1.0000
  N   N115      1.0  0.75569  0.56662  0.17080  1.0000
  S   S474      1.0  0.56559  0.68549  0.14565  1.0000
  H   H2707     1.0  0.79194  0.56577  0.14592  1.0000
  S   S475      1.0  0.51587  0.71401  0.14008  1.0000
  H   H2708     1.0  0.81895  0.61436  0.27514  1.0000
  H   H2709     1.0  0.68801  0.52535  0.14807  1.0000
  S   S476      1.0  0.55969  0.71209  0.01334  1.0000
  H   H2710     1.0  0.71121  0.51880  0.15236  1.0000
  H   H2711     1.0  0.97924  0.60011  0.29383  1.0000
  H   H2712     1.0  0.74232  0.53061  0.01686  1.0000
  S   S477      1.0  0.54375  0.69910  0.10421  1.0000
  C   C1571     1.0  0.55227  0.69770  0.03408  1.0000
  C   C1572     1.0  0.54170  0.70544  0.04896  1.0000
  H   H2713     1.0  0.50395  0.65552  0.07530  1.0000
  H   H2714     1.0  0.77520  0.54642  0.20083  1.0000
  C   C1573     1.0  0.54983  0.66743  0.05255  1.0000
  C   C1574     1.0  0.55622  0.67869  0.03574  1.0000
  S   S478      1.0  0.63670  0.53776  0.02786  1.0000
  Fe  Fe234     1.0  0.51789  0.72058  0.10964  1.0000
  H   H2715     1.0  0.55314  0.65273  0.05402  1.0000
  H   H2716     1.0  0.56454  0.67269  0.02421  1.0000
  H   H2717     1.0  0.53597  0.63317  0.18052  1.0000
  C   C1575     1.0  0.93457  0.49850  0.28233  1.0000
  H   H2718     1.0  0.64846  0.52725  0.08883  1.0000
  C   C1576     1.0  0.72918  0.59507  0.17525  1.0000
  H   H2719     1.0  0.79670  0.52665  0.03321  1.0000
  C   C1577     1.0  0.59459  0.62544  0.15809  1.0000
  C   C1578     1.0  0.57788  0.63049  0.15237  1.0000
  C   C1579     1.0  0.56951  0.64898  0.14754  1.0000
  C   C1580     1.0  0.57727  0.66246  0.14934  1.0000
  C   C1581     1.0  0.59418  0.65743  0.15478  1.0000
  C   C1582     1.0  0.60299  0.63889  0.15892  1.0000
  H   H2720     1.0  0.57137  0.62006  0.15178  1.0000
  H   H2721     1.0  0.55686  0.65265  0.14286  1.0000
  H   H2722     1.0  0.60034  0.66783  0.15605  1.0000
  H   H2723     1.0  0.61589  0.63496  0.16346  1.0000
  C   C1583     1.0  0.71796  0.57770  0.13015  1.0000
  C   C1584     1.0  0.72965  0.58869  0.11795  1.0000
  C   C1585     1.0  0.74648  0.58070  0.10758  1.0000
  C   C1586     1.0  0.75192  0.56168  0.10974  1.0000
  C   C1587     1.0  0.74012  0.55062  0.12171  1.0000
  C   C1588     1.0  0.72302  0.55869  0.13178  1.0000
  H   H2724     1.0  0.72581  0.60337  0.11674  1.0000
  H   H2725     1.0  0.75556  0.58926  0.09829  1.0000
  H   H2726     1.0  0.74428  0.53590  0.12336  1.0000
  H   H2727     1.0  0.71403  0.55025  0.14136  1.0000
  C   C1589     1.0  0.67499  0.55901  0.04488  1.0000
  C   C1590     1.0  0.66760  0.57696  0.03662  1.0000
  C   C1591     1.0  0.66047  0.59057  0.04709  1.0000
  C   C1592     1.0  0.66029  0.58611  0.06590  1.0000
  C   C1593     1.0  0.66703  0.56802  0.07417  1.0000
  C   C1594     1.0  0.67479  0.55463  0.06362  1.0000
  H   H2728     1.0  0.66768  0.58043  0.02212  1.0000
  H   H2729     1.0  0.65503  0.60450  0.04064  1.0000
  H   H2730     1.0  0.66602  0.56421  0.08875  1.0000
  H   H2731     1.0  0.68001  0.54069  0.07009  1.0000
  Fe  Fe235     1.0  0.78535  0.52316  0.11038  1.0000
  C   C1595     1.0  0.74355  0.55534  0.18554  1.0000
  C   C1596     1.0  0.95611  0.58769  0.25225  1.0000
  C   C1597     1.0  0.84276  0.54031  0.17229  1.0000
  C   C1598     1.0  0.85535  0.52342  0.17331  1.0000
  C   C1599     1.0  0.85375  0.51017  0.16486  1.0000
  C   C1600     1.0  0.83955  0.51368  0.15539  1.0000
  C   C1601     1.0  0.82719  0.53071  0.15410  1.0000
  C   C1602     1.0  0.82892  0.54400  0.16238  1.0000
  H   H2732     1.0  0.86631  0.52059  0.18055  1.0000
  H   H2733     1.0  0.72237  0.54370  0.02946  1.0000
  H   H2734     1.0  0.81641  0.53363  0.14661  1.0000
  H   H2735     1.0  0.81949  0.55724  0.16111  1.0000
  C   C1603     1.0  0.96951  0.55609  0.21893  1.0000
  C   C1604     1.0  0.95418  0.54798  0.22497  1.0000
  C   C1605     1.0  0.93975  0.55407  0.21553  1.0000
  C   C1606     1.0  0.94041  0.56851  0.20017  1.0000
  C   C1607     1.0  0.95592  0.57641  0.19390  1.0000
  C   C1608     1.0  0.97049  0.57017  0.20324  1.0000
  H   H2736     1.0  0.95340  0.53702  0.23703  1.0000
  H   H2737     1.0  0.92817  0.54748  0.22014  1.0000
  H   H2738     1.0  0.95656  0.58751  0.18195  1.0000
  H   H2739     1.0  0.98230  0.57644  0.19846  1.0000
  C   C1609     1.0  0.80425  0.50220  0.05321  1.0000
  C   C1610     1.0  0.53887  0.65056  0.22373  1.0000
  H   H2740     1.0  0.94545  0.62449  0.21814  1.0000
  C   C1611     1.0  0.86335  0.50774  0.27281  1.0000
  H   H2741     1.0  0.77294  0.54173  0.16239  1.0000
  C   C1612     1.0  0.94751  0.61930  0.25633  1.0000
  H   H2742     1.0  0.85738  0.51862  0.26282  1.0000
  H   H2743     1.0  0.73104  0.49860  0.01900  1.0000
  C   C1613     1.0  0.95464  0.61253  0.22517  1.0000
  Fe  Fe236     1.0  0.54011  0.69084  0.13462  1.0000
  C   C1614     1.0  0.97582  0.64212  0.30371  1.0000
  C   C1615     1.0  0.88221  0.49964  0.26886  1.0000
  H   H2744     1.0  0.98543  0.58239  0.28069  1.0000
  H   H2745     1.0  0.61965  0.56127  0.05279  1.0000
  H   H2746     1.0  0.94637  0.64823  0.25346  1.0000
  H   H2747     1.0  0.98173  0.64444  0.28909  1.0000
  H   H2748     1.0  0.50850  0.65097  0.02503  1.0000
  C   C1616     1.0  0.71126  0.48787  0.01146  1.0000
  C   C1617     1.0  0.85476  0.61656  0.29156  1.0000
  C   C1618     1.0  0.86905  0.60465  0.28196  1.0000
  C   C1619     1.0  0.86525  0.59644  0.26960  1.0000
  C   C1620     1.0  0.84710  0.59990  0.26717  1.0000
  C   C1621     1.0  0.83298  0.61163  0.27691  1.0000
  C   C1622     1.0  0.83680  0.62001  0.28886  1.0000
  H   H2749     1.0  0.88297  0.60195  0.28388  1.0000
  H   H2750     1.0  0.87624  0.58739  0.26212  1.0000
  H   H2751     1.0  0.73460  0.59811  0.18566  1.0000
  N   N116      1.0  0.59925  0.65204  0.08811  1.0000
  C   C1623     1.0  0.60686  0.64770  0.10518  1.0000
  C   C1624     1.0  0.57935  0.65021  0.09434  1.0000
  C   C1625     1.0  0.60032  0.67154  0.07843  1.0000
  C   C1626     1.0  0.61099  0.63879  0.07617  1.0000
  C   C1627     1.0  0.62668  0.65038  0.10223  1.0000
  C   C1628     1.0  0.57626  0.63073  0.10344  1.0000
  C   C1629     1.0  0.58713  0.68175  0.06530  1.0000
  C   C1630     1.0  0.60459  0.63930  0.05884  1.0000
  H   H2752     1.0  0.59778  0.65631  0.11500  1.0000
  H   H2753     1.0  0.60717  0.63326  0.11261  1.0000
  H   H2754     1.0  0.57212  0.65491  0.08285  1.0000
  H   H2755     1.0  0.57143  0.65931  0.10414  1.0000
  H   H2756     1.0  0.59726  0.68030  0.08865  1.0000
  H   H2757     1.0  0.61462  0.67221  0.07033  1.0000
  H   H2758     1.0  0.62533  0.64110  0.07113  1.0000
  H   H2759     1.0  0.61305  0.62443  0.08423  1.0000
  H   H2760     1.0  0.63007  0.64769  0.11589  1.0000
  H   H2761     1.0  0.63714  0.64050  0.09456  1.0000
  H   H2762     1.0  0.62810  0.66455  0.09539  1.0000
  H   H2763     1.0  0.58262  0.62120  0.09391  1.0000
  H   H2764     1.0  0.58131  0.62509  0.11632  1.0000
  H   H2765     1.0  0.56114  0.63127  0.10717  1.0000
  H   H2766     1.0  0.57262  0.68513  0.07303  1.0000
  H   H2767     1.0  0.58784  0.67421  0.05485  1.0000
  H   H2768     1.0  0.59088  0.69501  0.05778  1.0000
  H   H2769     1.0  0.61034  0.64939  0.04697  1.0000
  H   H2770     1.0  0.58940  0.64213  0.06065  1.0000
  H   H2771     1.0  0.60969  0.62558  0.05534  1.0000
  N   N117      1.0  0.89272  0.57281  0.14212  1.0000
  C   C1631     1.0  0.87305  0.58378  0.14297  1.0000
  C   C1632     1.0  0.90087  0.57951  0.15401  1.0000
  C   C1633     1.0  0.89179  0.55304  0.15021  1.0000
  C   C1634     1.0  0.90315  0.57529  0.12231  1.0000
  C   C1635     1.0  0.86142  0.57826  0.13286  1.0000
  C   C1636     1.0  0.90075  0.60015  0.14877  1.0000
  C   C1637     1.0  0.91022  0.53923  0.15190  1.0000
  C   C1638     1.0  0.92451  0.57202  0.11870  1.0000
  H   H2772     1.0  0.86529  0.58318  0.15753  1.0000
  H   H2773     1.0  0.87277  0.59852  0.13690  1.0000
  H   H2774     1.0  0.91534  0.57220  0.15436  1.0000
  H   H2775     1.0  0.89332  0.57652  0.16860  1.0000
  H   H2776     1.0  0.88259  0.55174  0.16418  1.0000
  H   H2777     1.0  0.88552  0.54776  0.14195  1.0000
  H   H2778     1.0  0.89989  0.56629  0.11520  1.0000
  H   H2779     1.0  0.89846  0.58957  0.11488  1.0000
  H   H2780     1.0  0.85784  0.56487  0.13993  1.0000
  H   H2781     1.0  0.84804  0.58843  0.13301  1.0000
  H   H2782     1.0  0.86831  0.57809  0.11830  1.0000
  H   H2783     1.0  0.91014  0.60285  0.15586  1.0000
  H   H2784     1.0  0.90562  0.60503  0.13383  1.0000
  H   H2785     1.0  0.88676  0.60836  0.15357  1.0000
  H   H2786     1.0  0.91895  0.53745  0.13822  1.0000
  H   H2787     1.0  0.90716  0.52563  0.15924  1.0000
  H   H2788     1.0  0.91798  0.54266  0.16013  1.0000
  H   H2789     1.0  0.93073  0.56612  0.10624  1.0000
  H   H2790     1.0  0.93094  0.56251  0.12978  1.0000
  H   H2791     1.0  0.92888  0.58521  0.11537  1.0000
  H   H2792     1.0  0.75205  0.54209  0.19146  1.0000
  C   C1639     1.0  0.84350  0.49387  0.21488  1.0000
  S   S479      1.0  0.98645  0.54920  0.23212  1.0000
  H   H2793     1.0  0.72060  0.53638  0.09448  1.0000
  H   H2794     1.0  0.53783  0.66644  0.17020  1.0000
  C   C1640     1.0  0.52611  0.64394  0.18750  1.0000
  H   H2795     1.0  0.49841  0.67154  0.19572  1.0000
  H   H2796     1.0  0.71779  0.58775  0.18211  1.0000
  H   H2797     1.0  0.97943  0.61962  0.20587  1.0000
  H   H2798     1.0  0.88336  0.50027  0.20511  1.0000
  S   S480      1.0  0.67085  0.52451  0.99506  1.0000
  N   N118      1.0  0.74328  0.54219  0.05758  1.0000
  C   C1641     1.0  0.75004  0.55812  0.05902  1.0000
  C   C1642     1.0  0.72253  0.54613  0.06446  1.0000
  C   C1643     1.0  0.74835  0.54088  0.03757  1.0000
  C   C1644     1.0  0.75266  0.52512  0.06917  1.0000
  C   C1645     1.0  0.77080  0.55789  0.05076  1.0000
  C   C1646     1.0  0.71534  0.54860  0.08450  1.0000
  Fe  Fe237     1.0  0.49869  0.69468  0.14088  1.0000
  C   C1647     1.0  0.74706  0.50728  0.07030  1.0000
  H   H2799     1.0  0.74202  0.57130  0.05227  1.0000
  H   H2800     1.0  0.74779  0.55895  0.07360  1.0000
  H   H2801     1.0  0.71647  0.53514  0.06348  1.0000
  H   H2802     1.0  0.71597  0.55877  0.05559  1.0000
  H   H2803     1.0  0.74870  0.55462  0.02836  1.0000
  H   H2804     1.0  0.51630  0.63923  0.99624  1.0000
  H   H2805     1.0  0.76788  0.52244  0.06397  1.0000
  H   H2806     1.0  0.75049  0.52694  0.08342  1.0000
  H   H2807     1.0  0.77370  0.57065  0.05205  1.0000
  H   H2808     1.0  0.77983  0.54644  0.05844  1.0000
  H   H2809     1.0  0.77486  0.55751  0.03597  1.0000
  C   C1648     1.0  0.64370  0.52527  0.07743  1.0000
  H   H2810     1.0  0.99222  0.60370  0.27079  1.0000
  H   H2811     1.0  0.71825  0.56101  0.08655  1.0000
  H   H2812     1.0  0.51050  0.65928  0.22149  1.0000
  H   H2813     1.0  0.51581  0.64077  0.04665  1.0000
  C   C1649     1.0  0.85996  0.48808  0.30313  1.0000
  C   C1650     1.0  0.50707  0.68192  0.19161  1.0000
  H   H2814     1.0  0.93778  0.48835  0.27360  1.0000
  H   H2815     1.0  0.55270  0.65040  0.21457  1.0000
  C   C1651     1.0  0.68231  0.49449  0.10064  1.0000
  H   H2816     1.0  0.85440  0.49105  0.20251  1.0000
  S   S481      1.0  0.53161  0.66184  0.08877  1.0000
  C   C1652     1.0  0.98565  0.64346  0.31590  1.0000
  H   H2817     1.0  0.71272  0.51570  0.01054  1.0000
  H   H2818     1.0  0.91865  0.62166  0.24113  1.0000
  H   H2819     1.0  0.67864  0.49997  0.03660  1.0000
  C   C1653     1.0  0.92154  0.59435  0.23813  1.0000
  H   H2820     1.0  0.66521  0.49610  0.20373  1.0000
  H   H2821     1.0  0.64626  0.49395  0.13780  1.0000
  H   H2822     1.0  0.61955  0.52907  0.06719  1.0000
  H   H2823     1.0  0.77412  0.57775  0.13296  1.0000
  C   C1654     1.0  0.61352  0.53963  0.11695  1.0000
  H   H2824     1.0  0.58811  0.54124  0.09540  1.0000
  C   C1655     1.0  0.74450  0.58442  0.16201  1.0000
  C   C1656     1.0  0.53577  0.65964  0.18497  1.0000
  H   H2825     1.0  0.94941  0.58566  0.28233  1.0000
  H   H2826     1.0  0.62097  0.58915  0.07316  1.0000
  C   C1657     1.0  0.62115  0.56374  0.06570  1.0000
  Fe  Fe238     1.0  0.81479  0.49917  0.13092  1.0000
  Fe  Fe239     1.0  0.55291  0.70363  0.99115  1.0000
  H   H2827     1.0  0.70009  0.55055  0.08791  1.0000
  H   H2828     1.0  0.67860  0.53460  0.11221  1.0000
  C   C1658     1.0  0.53926  0.67532  0.06744  1.0000
  H   H2829     1.0  0.83119  0.53981  0.29904  1.0000
  H   H2830     1.0  0.93896  0.51118  0.27392  1.0000
  H   H2831     1.0  0.93829  0.64433  0.23591  1.0000
  C   C1659     1.0  0.78243  0.55454  0.18816  1.0000
  H   H2832     1.0  0.71929  0.49148  0.17307  1.0000
  H   H2833     1.0  0.86305  0.50507  0.23203  1.0000
  H   H2834     1.0  0.94818  0.52084  0.30843  1.0000
  H   H2835     1.0  0.59837  0.58732  0.07267  1.0000
  H   H2836     1.0  0.63633  0.56171  0.06378  1.0000
  N   N119      1.0  0.96393  0.48857  0.29565  1.0000
  H   H2837     1.0  0.78677  0.55524  0.13077  1.0000
  C   C1660     1.0  0.61323  0.58422  0.06604  1.0000
  C   C1661     1.0  0.95864  0.63723  0.31051  1.0000
  H   H2838     1.0  0.61429  0.59225  0.05168  1.0000
  C   C1662     1.0  0.61810  0.55359  0.09889  1.0000
  H   H2839     1.0  0.97083  0.58733  0.25144  1.0000
  H   H2840     1.0  0.90631  0.59660  0.24003  1.0000
  H   H2841     1.0  0.91843  0.60531  0.26190  1.0000
  H   H2842     1.0  0.83753  0.50798  0.29284  1.0000
  H   H2843     1.0  0.76258  0.53248  0.03405  1.0000
  Fe  Fe240     1.0  0.62694  0.56202  0.00682  1.0000
  C   C1663     1.0  0.66125  0.51552  0.12652  1.0000
  C   C1664     1.0  0.70192  0.51634  0.14505  1.0000
  S   S482      1.0  0.60330  0.58360  0.01769  1.0000
  H   H2844     1.0  0.73783  0.58231  0.15201  1.0000
  C   C1665     1.0  0.73544  0.53338  0.03078  1.0000
  C   C1666     1.0  0.95728  0.52360  0.29475  1.0000
  H   H2845     1.0  0.91927  0.50187  0.28693  1.0000
  H   H2846     1.0  0.70817  0.50235  0.03355  1.0000
  C   C1667     1.0  0.58559  0.55548  0.06805  1.0000
  H   H2847     1.0  0.65094  0.53239  0.06411  1.0000
  H   H2848     1.0  0.92737  0.59677  0.22311  1.0000
  H   H2849     1.0  0.58442  0.62061  0.01943  1.0000
  H   H2850     1.0  0.92391  0.64278  0.25873  1.0000
  S   S483      1.0  0.65492  0.56858  0.99503  1.0000
  S   S484      1.0  0.77515  0.49986  0.10792  1.0000
  Fe  Fe241     1.0  0.64160  0.52153  0.00655  1.0000
  H   H2851     1.0  0.58549  0.56506  0.09173  1.0000
  H   H2852     1.0  0.61578  0.54424  0.12836  1.0000
  H   H2853     1.0  0.61633  0.52098  0.09113  1.0000
  H   H2854     1.0  0.52876  0.69966  0.19935  1.0000
  H   H2855     1.0  0.51405  0.64870  0.18088  1.0000
  H   H2856     1.0  0.64819  0.51042  0.07734  1.0000
  H   H2857     1.0  0.94076  0.61509  0.27097  1.0000
  N   N120      1.0  0.61371  0.55042  0.08237  1.0000
  C   C1668     1.0  0.76884  0.57105  0.17936  1.0000
  C   C1669     1.0  0.96994  0.50655  0.28762  1.0000
  H   H2858     1.0  0.71675  0.54820  0.19109  1.0000
  H   H2859     1.0  0.95670  0.56443  0.27518  1.0000
  Fe  Fe242     1.0  0.92371  0.62052  0.31257  1.0000
  S   S485      1.0  0.85832  0.62773  0.30692  1.0000
  H   H2860     1.0  0.56223  0.69579  0.18849  1.0000
  H   H2861     1.0  0.55627  0.67962  0.20908  1.0000
  H   H2862     1.0  0.72277  0.56083  0.16862  1.0000
  C   C1670     1.0  0.76597  0.55572  0.15625  1.0000
  H   H2863     1.0  0.53839  0.72007  0.04767  1.0000
  H   H2864     1.0  0.93560  0.49904  0.30954  1.0000
  C   C1671     1.0  0.62249  0.53116  0.07962  1.0000
  C   C1672     1.0  0.93839  0.63975  0.25069  1.0000
  H   H2865     1.0  0.73438  0.53722  0.17406  1.0000
  H   H2866     1.0  0.84646  0.57743  0.30385  1.0000
  C   C1673     1.0  0.59300  0.55309  0.08535  1.0000
  H   H2867     1.0  0.58701  0.56875  0.05844  1.0000
  H   H2868     1.0  0.59249  0.54423  0.06060  1.0000
  C   C1674     1.0  0.68605  0.51128  0.09984  1.0000
  H   H2869     1.0  0.69840  0.49451  0.00646  1.0000
  H   H2870     1.0  0.82195  0.49845  0.20002  1.0000
  C   C1675     1.0  0.79928  0.51188  0.03651  1.0000
  C   C1676     1.0  0.94829  0.57857  0.27219  1.0000
  H   H2871     1.0  0.98405  0.50526  0.28964  1.0000
  H   H2872     1.0  0.67163  0.51104  0.17288  1.0000
  H   H2873     1.0  0.93381  0.57735  0.27435  1.0000
  C   C1677     1.0  0.72867  0.55006  0.17933  1.0000
  S   S486      1.0  0.91041  0.60449  0.30199  1.0000
  C   C1678     1.0  0.89411  0.53173  0.30451  1.0000
  H   H2874     1.0  0.73205  0.50801  0.07591  1.0000
  H   H2875     1.0  0.99391  0.55591  0.29898  1.0000
  C   C1679     1.0  0.51475  0.65305  0.03538  1.0000
  H   H2876     1.0  0.53665  0.69575  0.17663  1.0000
  H   H2877     1.0  0.83883  0.55012  0.27561  1.0000
  H   H2878     1.0  0.76105  0.57867  0.19040  1.0000
  H   H2879     1.0  0.82937  0.56436  0.29193  1.0000
  H   H2880     1.0  0.73681  0.56191  0.19756  1.0000
  H   H2881     1.0  0.86421  0.55885  0.28160  1.0000
  H   H2882     1.0  0.97119  0.51016  0.27244  1.0000
  C   C1680     1.0  0.88361  0.48754  0.21595  1.0000
  H   H2883     1.0  0.88355  0.56099  0.29932  1.0000
  C   C1681     1.0  0.55602  0.68358  0.19427  1.0000
  C   C1682     1.0  0.58662  0.61911  0.00546  1.0000
  H   H2884     1.0  0.53576  0.63681  0.22667  1.0000
  H   H2885     1.0  0.54997  0.65319  0.18706  1.0000
  H   H2886     1.0  0.52915  0.65434  0.02844  1.0000
  H   H2887     1.0  0.69737  0.51593  0.08946  1.0000
  H   H2888     1.0  0.98397  0.60576  0.22727  1.0000
  C   C1683     1.0  0.78047  0.56436  0.14076  1.0000
  H   H2889     1.0  0.75138  0.50336  0.05676  1.0000
  S   S487      1.0  0.49883  0.70291  0.11082  1.0000
  C   C1684     1.0  0.79749  0.50257  0.02415  1.0000
  H   H2890     1.0  0.57058  0.55554  0.07218  1.0000
  C   C1685     1.0  0.82578  0.50690  0.24968  1.0000
  C   C1686     1.0  0.97382  0.61713  0.22095  1.0000
  H   H2891     1.0  0.52167  0.63750  0.20212  1.0000
  H   H2892     1.0  0.87166  0.50197  0.99443  1.0000
  C   C1687     1.0  0.67543  0.52187  0.11269  1.0000
  C   C1688     1.0  0.85798  0.54817  0.29237  1.0000
  S   S488      1.0  0.52267  0.67076  0.13828  1.0000
  H   H2893     1.0  0.57435  0.64732  0.99571  1.0000
  C   C1689     1.0  0.53499  0.69430  0.06548  1.0000
  H   H2894     1.0  0.95640  0.60155  0.21776  1.0000
  C   C1690     1.0  0.52280  0.66560  0.21691  1.0000
  H   H2895     1.0  0.95664  0.57844  0.24339  1.0000
  H   H2896     1.0  0.75445  0.49600  0.07973  1.0000
  H   H2897     1.0  0.86577  0.53490  0.28861  1.0000
  C   C1691     1.0  0.59577  0.60221  0.00073  1.0000
  C   C1692     1.0  0.58073  0.63422  0.99206  1.0000
  H   H2898     1.0  0.56516  0.67286  0.18693  1.0000
  H   H2899     1.0  0.84089  0.50894  0.21362  1.0000
  H   H2900     1.0  0.59888  0.53850  0.12055  1.0000
  N   N121      1.0  0.52574  0.67368  0.19655  1.0000
  H   H2901     1.0  0.52626  0.70057  0.07661  1.0000
  S   S489      1.0  0.78526  0.51317  0.14040  1.0000
  C   C1693     1.0  0.71600  0.50183  0.01928  1.0000
  H   H2902     1.0  0.53996  0.65245  0.23707  1.0000
  H   H2903     1.0  0.77718  0.58048  0.16919  1.0000
  C   C1694     1.0  0.67371  0.49606  0.17424  1.0000
  Fe  Fe243     1.0  0.52452  0.68074  0.10811  1.0000
  H   H2904     1.0  0.89480  0.53037  0.29045  1.0000
  H   H2905     1.0  0.84104  0.50203  0.01704  1.0000
  S   S490      1.0  0.63620  0.49322  0.01618  1.0000
  H   H2906     1.0  0.92654  0.57982  0.24447  1.0000
  H   H2907     1.0  0.96609  0.53230  0.29573  1.0000
  S   S491      1.0  0.64907  0.52765  0.14376  1.0000
  H   H2908     1.0  0.83086  0.51697  0.99189  1.0000
  H   H2909     1.0  0.89160  0.51903  0.31462  1.0000
  H   H2910     1.0  0.75613  0.55343  0.14939  1.0000
  H   H2911     1.0  0.81723  0.51305  0.23924  1.0000
  H   H2912     1.0  0.97303  0.62979  0.22538  1.0000
  H   H2913     1.0  0.79063  0.54549  0.17857  1.0000
  H   H2914     1.0  0.72288  0.60836  0.16717  1.0000
  H   H2915     1.0  0.61040  0.56733  0.10161  1.0000
  C   C1695     1.0  0.92575  0.60767  0.24721  1.0000
  C   C1696     1.0  0.83810  0.55077  0.28994  1.0000
  H   H2916     1.0  0.83560  0.51551  0.24802  1.0000
  H   H2917     1.0  0.62281  0.52594  0.11652  1.0000
  H   H2918     1.0  0.80532  0.50953  0.06278  1.0000
  H   H2919     1.0  0.96214  0.61804  0.25684  1.0000
  H   H2920     1.0  0.73201  0.52051  0.03969  1.0000
  H   H2921     1.0  0.51946  0.67659  0.22477  1.0000
  S   S492      1.0  0.54428  0.67748  0.99476  1.0000
  H   H2922     1.0  0.79248  0.55966  0.19227  1.0000
  H   H2923     1.0  0.69274  0.49486  0.14026  1.0000
  S   S493      1.0  0.83778  0.49645  0.14540  1.0000
  N   N122      1.0  0.85973  0.54874  0.31114  1.0000
  C   C1697     1.0  0.50407  0.67075  0.04226  1.0000
  C   C1698     1.0  0.99023  0.59319  0.28372  1.0000
  H   H2924     1.0  0.64822  0.49223  0.19401  1.0000
  H   H2925     1.0  0.51389  0.67460  0.04788  1.0000
  H   H2926     1.0  0.94884  0.53225  0.28472  1.0000
  H   H2927     1.0  0.70767  0.52066  0.13013  1.0000
  C   C1699     1.0  0.85215  0.50176  0.28982  1.0000
  H   H2928     1.0  0.86352  0.49710  0.16567  1.0000
  C   C1700     1.0  0.53608  0.68886  0.19135  1.0000
  C   C1701     1.0  0.87968  0.54878  0.30966  1.0000
  C   C1702     1.0  0.66772  0.48842  0.11410  1.0000
  C   C1703     1.0  0.85093  0.48920  0.01421  1.0000
  H   H2929     1.0  0.54084  0.63657  0.99104  1.0000
  H   H2930     1.0  0.71551  0.48840  0.14420  1.0000
  C   C1704     1.0  0.86363  0.49195  0.99481  1.0000
  H   H2931     1.0  0.66601  0.49512  0.16447  1.0000
  C   C1705     1.0  0.70121  0.49593  0.14926  1.0000
  C   C1706     1.0  0.84716  0.56620  0.31626  1.0000
  H   H2932     1.0  0.50017  0.70244  0.05531  1.0000
  H   H2933     1.0  0.69881  0.50528  0.18376  1.0000
  H   H2934     1.0  0.90802  0.53317  0.30465  1.0000
  H   H2935     1.0  0.81415  0.49157  0.22432  1.0000
  H   H2936     1.0  0.50170  0.68178  0.02998  1.0000
  C   C1707     1.0  0.66323  0.48916  0.19387  1.0000
  C   C1708     1.0  0.94325  0.49051  0.29933  1.0000
  C   C1709     1.0  0.86681  0.49018  0.23221  1.0000
  C   C1710     1.0  0.70475  0.49136  0.18071  1.0000
  C   C1711     1.0  0.82608  0.48933  0.21268  1.0000
  N   N123      1.0  0.69399  0.48748  0.16910  1.0000
  Fe  Fe244     1.0  0.77791  0.48845  0.13703  1.0000
  S   S494      1.0  0.62937  0.54534  0.98632  1.0000
  Fe  Fe245     1.0  0.88406  0.61840  0.31823  1.0000
  H   H2937     1.0  0.96795  0.68607  0.31863  1.0000
  H   H2938     1.0  0.95812  0.66980  0.34962  1.0000
  S   S495      1.0  0.88468  0.59710  0.34433  1.0000
  C   C1712     1.0  0.95099  0.63447  0.32939  1.0000
  Fe  Fe246     1.0  0.89052  0.69632  0.42374  1.0000
  Fe  Fe247     1.0  0.90070  0.61358  0.35118  1.0000
  H   H2939     1.0  0.82315  0.72414  0.55675  1.0000
  S   S496      1.0  0.92814  0.59857  0.33734  1.0000
  H   H2940     1.0  0.86534  0.67846  0.37854  1.0000
  H   H2941     1.0  0.93943  0.65849  0.39929  1.0000
  Fe  Fe248     1.0  0.92666  0.70561  0.42154  1.0000
  C   C1713     1.0  0.97648  0.66530  0.60457  1.0000
  C   C1714     1.0  0.92346  0.73643  0.51581  1.0000
  H   H2942     1.0  0.93865  0.69025  0.38041  1.0000
  S   S497      1.0  0.87507  0.50203  0.38663  1.0000
  H   H2943     1.0  0.87170  0.59562  0.57617  1.0000
  H   H2944     1.0  0.87369  0.64753  0.60061  1.0000
  C   C1715     1.0  0.99588  0.70316  0.54537  1.0000
  C   C1716     1.0  0.96894  0.70821  0.41758  1.0000
  H   H2945     1.0  0.83906  0.53276  0.32556  1.0000
  C   C1717     1.0  0.89411  0.61250  0.60070  1.0000
  H   H2946     1.0  0.89264  0.70200  0.36448  1.0000
  Fe  Fe249     1.0  0.89133  0.68370  0.57187  1.0000
  S   S498      1.0  0.91446  0.69841  0.55893  1.0000
  S   S499      1.0  0.87097  0.68365  0.55613  1.0000
  Fe  Fe250     1.0  0.90351  0.66856  0.60778  1.0000
  S   S500      1.0  0.92772  0.68186  0.59846  1.0000
  S   S501      1.0  0.89785  0.64974  0.63527  1.0000
  Fe  Fe251     1.0  0.90823  0.70627  0.58611  1.0000
  H   H2947     1.0  0.96397  0.63521  0.60639  1.0000
  Fe  Fe252     1.0  0.93207  0.67297  0.57222  1.0000
  S   S502      1.0  0.96085  0.66095  0.55879  1.0000
  S   S503      1.0  0.88320  0.69395  0.59804  1.0000
  S   S504      1.0  0.90964  0.65737  0.58249  1.0000
  S   S505      1.0  0.91620  0.66234  0.48076  1.0000
  C   C1718     1.0  0.88328  0.67679  0.53553  1.0000
  C   C1719     1.0  0.87409  0.67877  0.52162  1.0000
  C   C1720     1.0  0.88416  0.67463  0.50460  1.0000
  C   C1721     1.0  0.90330  0.66760  0.50186  1.0000
  C   C1722     1.0  0.91232  0.66486  0.51607  1.0000
  C   C1723     1.0  0.90239  0.66978  0.53275  1.0000
  H   H2948     1.0  0.98474  0.64958  0.39216  1.0000
  H   H2949     1.0  0.87711  0.67643  0.49374  1.0000
  H   H2950     1.0  0.92711  0.65936  0.51399  1.0000
  H   H2951     1.0  0.90961  0.66809  0.54341  1.0000
  H   H2952     1.0  0.95484  0.69176  0.44158  1.0000
  H   H2953     1.0  0.90700  0.59510  0.57985  1.0000
  C   C1724     1.0  0.96581  0.69539  0.55516  1.0000
  H   H2954     1.0  0.93537  0.65103  0.38132  1.0000
  H   H2955     1.0  0.95104  0.69931  0.56014  1.0000
  H   H2956     1.0  0.91559  0.61563  0.57525  1.0000
  C   C1725     1.0  0.95545  0.64084  0.63366  1.0000
  H   H2957     1.0  0.85923  0.68360  0.52395  1.0000
  H   H2958     1.0  0.98227  0.57194  0.62934  1.0000
  H   H2959     1.0  0.85780  0.64373  0.63208  1.0000
  N   N124      1.0  0.93070  0.68638  0.35710  1.0000
  H   H2960     1.0  0.87501  0.71795  0.52819  1.0000
  C   C1726     1.0  0.99144  0.70867  0.44030  1.0000
  C   C1727     1.0  0.99329  0.67233  0.54717  1.0000
  H   H2961     1.0  0.85669  0.51459  0.35111  1.0000
  H   H2962     1.0  0.96802  0.66692  0.59443  1.0000
  H   H2963     1.0  0.94855  0.62940  0.64153  1.0000
  C   C1728     1.0  0.95290  0.68777  0.32494  1.0000
  C   C1729     1.0  0.93165  0.68111  0.37716  1.0000
  H   H2964     1.0  0.92968  0.66045  0.35261  1.0000
  S   S506      1.0  0.95436  0.70886  0.40354  1.0000
  H   H2965     1.0  0.94740  0.60536  0.60585  1.0000
  S   S507      1.0  0.94287  0.57029  0.62742  1.0000
  H   H2966     1.0  0.97404  0.73319  0.59914  1.0000
  H   H2967     1.0  0.90911  0.67133  0.36568  1.0000
  H   H2968     1.0  0.81981  0.71636  0.53873  1.0000
  H   H2969     1.0  0.97884  0.59768  0.33786  1.0000
  H   H2970     1.0  0.90972  0.62711  0.40765  1.0000
  C   C1730     1.0  0.90979  0.53999  0.34491  1.0000
  C   C1731     1.0  0.91421  0.52136  0.34496  1.0000
  C   C1732     1.0  0.90411  0.50957  0.35832  1.0000
  C   C1733     1.0  0.88934  0.51635  0.37163  1.0000
  C   C1734     1.0  0.88527  0.53493  0.37205  1.0000
  C   C1735     1.0  0.89547  0.54674  0.35865  1.0000
  H   H2971     1.0  0.90773  0.49523  0.35829  1.0000
  C   C1736     1.0  0.99298  0.57617  0.32263  1.0000
  H   H2972     1.0  0.87388  0.54026  0.38238  1.0000
  H   H2973     1.0  0.89223  0.56096  0.35910  1.0000
  S   S508      1.0  0.87933  0.69893  0.45330  1.0000
  C   C1737     1.0  0.87514  0.66730  0.38482  1.0000
  H   H2974     1.0  0.85181  0.62300  0.63259  1.0000
  C   C1738     1.0  0.99203  0.59418  0.32788  1.0000
  C   C1739     1.0  0.92129  0.70636  0.35322  1.0000
  H   H2975     1.0  0.94989  0.70864  0.48595  1.0000
  C   C1740     1.0  0.91166  0.62776  0.63444  1.0000
  H   H2976     1.0  0.95780  0.69278  0.34905  1.0000
  H   H2977     1.0  0.96074  0.64512  0.64337  1.0000
  C   C1741     1.0  0.87038  0.59107  0.59123  1.0000
  C   C1742     1.0  0.97413  0.67739  0.55315  1.0000
  H   H2978     1.0  0.94726  0.48925  0.33443  1.0000
  H   H2979     1.0  0.93018  0.63666  0.60910  1.0000
  H   H2980     1.0  0.84103  0.58592  0.33358  1.0000
  H   H2981     1.0  0.88279  0.73446  0.53430  1.0000
  C   C1743     1.0  0.92050  0.67408  0.35365  1.0000
  C   C1744     1.0  0.85565  0.52929  0.34439  1.0000
  S   S509      1.0  0.99083  0.64043  0.35029  1.0000
  H   H2982     1.0  0.86480  0.64321  0.55230  1.0000
  S   S510      1.0  0.87476  0.69068  0.40593  1.0000
  H   H2983     1.0  0.85145  0.62907  0.56999  1.0000
  N   N125      1.0  0.93262  0.73185  0.49720  1.0000
  H   H2984     1.0  0.95521  0.63268  0.35621  1.0000
  H   H2985     1.0  0.91568  0.72602  0.52464  1.0000
  H   H2986     1.0  0.86006  0.58230  0.59631  1.0000
  H   H2987     1.0  0.94497  0.72443  0.53191  1.0000
  S   S511      1.0  0.89720  0.63654  0.32670  1.0000
  H   H2988     1.0  0.85302  0.65102  0.57282  1.0000
  N   N126      1.0  0.87562  0.62101  0.59529  1.0000
  C   C1745     1.0  0.91721  0.59488  0.64643  1.0000
  Fe  Fe253     1.0  0.90789  0.68378  0.45685  1.0000
  C   C1746     1.0  0.97662  0.69993  0.44757  1.0000
  H   H2989     1.0  0.95540  0.51184  0.38872  1.0000
  H   H2990     1.0  0.88621  0.61886  0.56659  1.0000
  H   H2991     1.0  0.92935  0.71478  0.35607  1.0000
  C   C1747     1.0  0.94706  0.71416  0.49856  1.0000
  H   H2992     1.0  0.88360  0.58229  0.59442  1.0000
  Fe  Fe254     1.0  0.89129  0.72406  0.44471  1.0000
  H   H2993     1.0  0.89924  0.62275  0.60440  1.0000
  C   C1748     1.0  0.86588  0.63639  0.60534  1.0000
  S   S512      1.0  0.91174  0.73388  0.58603  1.0000
  S   S513      1.0  0.99465  0.49373  0.35570  1.0000
  H   H2994     1.0  0.91750  0.68291  0.38612  1.0000
  H   H2995     1.0  0.97016  0.72228  0.55245  1.0000
  C   C1749     1.0  0.90021  0.63837  0.40111  1.0000
  H   H2996     1.0  0.86358  0.72948  0.49296  1.0000
  C   C1750     1.0  0.97833  0.63979  0.33486  1.0000
  N   N127      1.0  0.93908  0.55103  0.38787  1.0000
  C   C1751     1.0  0.92221  0.56539  0.39380  1.0000
  C   C1752     1.0  0.95576  0.55864  0.38568  1.0000
  C   C1753     1.0  0.93934  0.53412  0.40307  1.0000
  C   C1754     1.0  0.93764  0.54703  0.37036  1.0000
  C   C1755     1.0  0.90347  0.55959  0.40000  1.0000
  C   C1756     1.0  0.95710  0.57650  0.37116  1.0000
  C   C1757     1.0  0.95573  0.51774  0.40012  1.0000
  C   C1758     1.0  0.95579  0.53860  0.35792  1.0000
  H   H2997     1.0  0.92375  0.57055  0.40528  1.0000
  H   H2998     1.0  0.92052  0.57757  0.38240  1.0000
  H   H2999     1.0  0.96888  0.54878  0.38222  1.0000
  H   H3000     1.0  0.95614  0.56128  0.39900  1.0000
  H   H3001     1.0  0.93899  0.53757  0.41625  1.0000
  H   H3002     1.0  0.92682  0.52860  0.40547  1.0000
  H   H3003     1.0  0.92797  0.53773  0.37354  1.0000
  H   H3004     1.0  0.93132  0.55980  0.36152  1.0000
  H   H3005     1.0  0.90189  0.55079  0.41401  1.0000
  H   H3006     1.0  0.89210  0.57202  0.40062  1.0000
  H   H3007     1.0  0.90150  0.55251  0.39033  1.0000
  H   H3008     1.0  0.97058  0.57986  0.36980  1.0000
  H   H3009     1.0  0.95658  0.57509  0.35749  1.0000
  H   H3010     1.0  0.94619  0.58830  0.37526  1.0000
  H   H3011     1.0  0.95448  0.50667  0.41265  1.0000
  H   H3012     1.0  0.96936  0.52102  0.39804  1.0000
  H   H3013     1.0  0.98995  0.64247  0.58219  1.0000
  H   H3014     1.0  0.95335  0.52738  0.35319  1.0000
  H   H3015     1.0  0.96784  0.53268  0.36436  1.0000
  H   H3016     1.0  0.95957  0.54886  0.34523  1.0000
  H   H3017     1.0  0.85193  0.64283  0.60236  1.0000
  H   H3018     1.0  0.86842  0.53238  0.34530  1.0000
  H   H3019     1.0  0.85456  0.56433  0.34262  1.0000
  H   H3020     1.0  0.83511  0.73483  0.48292  1.0000
  H   H3021     1.0  0.86491  0.58004  0.32317  1.0000
  C   C1759     1.0  0.85389  0.53216  0.32448  1.0000
  H   H3022     1.0  0.96666  0.67044  0.61654  1.0000
  H   H3023     1.0  0.87547  0.62344  0.63142  1.0000
  H   H3024     1.0  0.93741  0.63147  0.33470  1.0000
  C   C1760     1.0  0.99226  0.55370  0.61077  1.0000
  S   S514      1.0  0.90147  0.61518  0.37966  1.0000
  S   S515      1.0  0.91816  0.67899  0.42815  1.0000
  H   H3025     1.0  0.94460  0.65231  0.62848  1.0000
  N   N128      1.0  0.98581  0.64544  0.61013  1.0000
  C   C1761     1.0  0.94137  0.66112  0.38415  1.0000
  H   H3026     1.0  0.90652  0.70886  0.51299  1.0000
  H   H3027     1.0  0.87796  0.73612  0.57537  1.0000
  C   C1762     1.0  0.86269  0.63105  0.62652  1.0000
  C   C1763     1.0  0.92644  0.62508  0.61946  1.0000
  H   H3028     1.0  0.97948  0.57698  0.31949  1.0000
  C   C1764     1.0  0.86363  0.60718  0.60110  1.0000
  H   H3029     1.0  0.98709  0.62270  0.64779  1.0000
  H   H3030     1.0  0.97376  0.69338  0.46196  1.0000
  C   C1765     1.0  0.98562  0.65856  0.40078  1.0000
  H   H3031     1.0  0.97425  0.67090  0.39860  1.0000
  H   H3032     1.0  0.97732  0.70956  0.49016  1.0000
  H   H3033     1.0  0.95651  0.65844  0.37857  1.0000
  C   C1766     1.0  0.88183  0.66948  0.39905  1.0000
  C   C1767     1.0  0.88132  0.65084  0.37845  1.0000
  C   C1768     1.0  0.87839  0.62923  0.57493  1.0000
  H   H3034     1.0  0.85586  0.71515  0.51357  1.0000
  S   S516      1.0  0.89991  0.72298  0.41479  1.0000
  H   H3035     1.0  0.86228  0.60091  0.61601  1.0000
  H   H3036     1.0  0.98083  0.69304  0.59418  1.0000
  H   H3037     1.0  0.84345  0.53746  0.35241  1.0000
  C   C1769     1.0  0.91748  0.72980  0.48946  1.0000
  H   H3038     1.0  0.94158  0.70349  0.51004  1.0000
  C   C1770     1.0  0.93629  0.60737  0.61773  1.0000
  H   H3039     1.0  0.99431  0.53893  0.61109  1.0000
  C   C1771     1.0  0.86070  0.63855  0.56745  1.0000
  C   C1772     1.0  0.96609  0.71464  0.50131  1.0000
  H   H3040     1.0  0.89933  0.65632  0.41836  1.0000
  C   C1773     1.0  0.89438  0.65494  0.40717  1.0000
  C   C1774     1.0  0.91021  0.71201  0.49782  1.0000
  H   H3041     1.0  0.92092  0.71170  0.33854  1.0000
  C   C1775     1.0  0.93146  0.59225  0.63101  1.0000
  H   H3042     1.0  0.84928  0.61395  0.59938  1.0000
  C   C1776     1.0  0.95031  0.68401  0.34594  1.0000
  H   H3043     1.0  0.86094  0.72970  0.54641  1.0000
  C   C1777     1.0  0.96561  0.69939  0.43612  1.0000
  H   H3044     1.0  0.87617  0.64930  0.36744  1.0000
  C   C1778     1.0  0.89383  0.63630  0.38666  1.0000
  C   C1779     1.0  0.97085  0.63463  0.61752  1.0000
  H   H3045     1.0  0.88699  0.63962  0.57117  1.0000
  C   C1780     1.0  0.96092  0.63550  0.34157  1.0000
  H   H3046     1.0  0.89760  0.71327  0.49287  1.0000
  S   S517      1.0  0.91881  0.70904  0.45060  1.0000
  C   C1781     1.0  0.90127  0.71135  0.36427  1.0000
  H   H3047     1.0  0.99589  0.58428  0.65224  1.0000
  C   C1782     1.0  0.85114  0.72805  0.50425  1.0000
  C   C1783     1.0  0.87034  0.73115  0.53262  1.0000
  H   H3048     1.0  0.97603  0.65909  0.43021  1.0000
  H   H3049     1.0  0.92050  0.70012  0.49311  1.0000
  S   S518      1.0  0.92245  0.55439  0.32756  1.0000
  C   C1784     1.0  0.97665  0.70840  0.55088  1.0000
  H   H3050     1.0  0.84280  0.71353  0.54210  1.0000
  C   C1785     1.0  0.83658  0.72480  0.49599  1.0000
  C   C1786     1.0  0.97949  0.64923  0.42109  1.0000
  C   C1787     1.0  0.98884  0.55714  0.63029  1.0000
  H   H3051     1.0  0.89455  0.72539  0.35803  1.0000
  H   H3052     1.0  0.97663  0.61987  0.62226  1.0000
  Fe  Fe255     1.0  0.91199  0.58415  0.32845  1.0000
  H   H3053     1.0  0.92527  0.51606  0.33452  1.0000
  H   H3054     1.0  0.97797  0.54974  0.63924  1.0000
  S   S519      1.0  0.95671  0.52019  0.64831  1.0000
  C   C1788     1.0  0.85240  0.57428  0.32977  1.0000
  C   C1789     1.0  0.90731  0.61268  0.64815  1.0000
  C   C1790     1.0  0.91041  0.60450  0.58620  1.0000
  H   H3055     1.0  0.91684  0.69204  0.32603  1.0000
  H   H3056     1.0  0.96882  0.70515  0.51434  1.0000
  H   H3057     1.0  0.89276  0.60151  0.61338  1.0000
  H   H3058     1.0  0.96598  0.50173  0.32688  1.0000
  H   H3059     1.0  0.96661  0.64456  0.42281  1.0000
  H   H3060     1.0  0.98391  0.67538  0.36635  1.0000
  C   C1791     1.0  0.98423  0.71626  0.41017  1.0000
  H   H3061     1.0  0.92205  0.73013  0.47454  1.0000
  H   H3062     1.0  0.82292  0.72530  0.50565  1.0000
  H   H3063     1.0  0.98512  0.72911  0.57676  1.0000
  H   H3064     1.0  0.91406  0.66934  0.32989  1.0000
  H   H3065     1.0  0.84136  0.71103  0.49254  1.0000
  H   H3066     1.0  0.89627  0.68517  0.34108  1.0000
  H   H3067     1.0  0.98729  0.72255  0.39571  1.0000
  C   C1792     1.0  0.99563  0.71621  0.42147  1.0000
  H   H3068     1.0  0.88205  0.55023  0.32261  1.0000
  Fe  Fe256     1.0  0.93795  0.54735  0.65178  1.0000
  H   H3069     1.0  0.97977  0.56071  0.60505  1.0000
  H   H3070     1.0  0.90107  0.71154  0.37858  1.0000
  C   C1793     1.0  0.91157  0.68094  0.33670  1.0000
  H   H3071     1.0  0.92208  0.59655  0.59289  1.0000
  H   H3072     1.0  0.99364  0.56539  0.33543  1.0000
  H   H3073     1.0  0.96764  0.72821  0.50164  1.0000
  H   H3074     1.0  0.83266  0.56445  0.32205  1.0000
  H   H3075     1.0  0.96409  0.73348  0.46643  1.0000
  H   H3076     1.0  0.86105  0.51928  0.31951  1.0000
  C   C1794     1.0  0.82912  0.72291  0.54222  1.0000
  H   H3077     1.0  0.99322  0.53727  0.32850  1.0000
  H   H3078     1.0  0.99029  0.65414  0.63265  1.0000
  H   H3079     1.0  0.98987  0.63714  0.42588  1.0000
  H   H3080     1.0  0.99292  0.69252  0.38569  1.0000
  C   C1795     1.0  0.98941  0.67888  0.59624  1.0000
  H   H3081     1.0  0.94819  0.67758  0.32073  1.0000
  H   H3082     1.0  0.99518  0.69365  0.35381  1.0000
  H   H3083     1.0  0.94619  0.70188  0.31907  1.0000
  C   C1796     1.0  0.96235  0.48830  0.32962  1.0000
  C   C1797     1.0  0.99693  0.64368  0.62406  1.0000
  C   C1798     1.0  0.97274  0.54826  0.76809  1.0000
  H   H3084     1.0  0.69341  0.64561  0.92794  1.0000
  C   C1799     1.0  0.67074  0.63360  0.94609  1.0000
  S   S520      1.0  0.98909  0.50606  0.68186  1.0000
  C   C1800     1.0  0.85959  0.50964  0.90266  1.0000
  C   C1801     1.0  0.98099  0.52874  0.70612  1.0000
  S   S521      1.0  0.67231  0.55606  0.94663  1.0000
  H   H3085     1.0  0.83634  0.51883  0.95221  1.0000
  H   H3086     1.0  0.83759  0.54004  0.95617  1.0000
  H   H3087     1.0  0.89759  0.52582  0.78283  1.0000
  C   C1802     1.0  0.52837  0.64203  0.98502  1.0000
  H   H3088     1.0  0.96684  0.53171  0.70484  1.0000
  C   C1803     1.0  0.98387  0.52850  0.77322  1.0000
  H   H3089     1.0  0.96454  0.49513  0.85647  1.0000
  S   S522      1.0  0.75873  0.52425  0.92731  1.0000
  S   S523      1.0  0.57645  0.65110  0.95682  1.0000
  H   H3090     1.0  0.64348  0.63444  0.93111  1.0000
  C   C1804     1.0  0.90575  0.52840  0.76896  1.0000
  H   H3091     1.0  0.65305  0.61885  0.97916  1.0000
  H   H3092     1.0  0.82038  0.48727  0.83526  1.0000
  S   S524      1.0  0.53712  0.69342  0.95277  1.0000
  Fe  Fe257     1.0  0.96068  0.51821  0.67631  1.0000
  S   S525      1.0  0.94397  0.54638  0.67875  1.0000
  H   H3093     1.0  0.67584  0.63351  0.95823  1.0000
  Fe  Fe258     1.0  0.93163  0.50871  0.66275  1.0000
  S   S526      1.0  0.91227  0.53607  0.66399  1.0000
  N   N129      1.0  0.85403  0.49816  0.97894  1.0000
  Fe  Fe259     1.0  0.90829  0.49881  0.85100  1.0000
  H   H3094     1.0  0.69759  0.50677  0.95523  1.0000
  Fe  Fe260     1.0  0.92003  0.53241  0.69097  1.0000
  S   S527      1.0  0.89885  0.53565  0.71722  1.0000
  H   H3095     1.0  0.97261  0.55007  0.80829  1.0000
  S   S528      1.0  0.93741  0.50417  0.69046  1.0000
  H   H3096     1.0  0.81794  0.53038  0.96771  1.0000
  H   H3097     1.0  0.83566  0.50687  0.92486  1.0000
  H   H3098     1.0  0.86131  0.51431  0.85187  1.0000
  C   C1805     1.0  0.51991  0.62867  0.94401  1.0000
  C   C1806     1.0  0.68684  0.59624  0.96587  1.0000
  H   H3099     1.0  0.99470  0.55353  0.78486  1.0000
  C   C1807     1.0  0.59230  0.61538  0.96935  1.0000
  H   H3100     1.0  0.84086  0.53041  0.84739  1.0000
  H   H3101     1.0  0.68044  0.52032  0.93140  1.0000
  C   C1808     1.0  0.90846  0.53382  0.73592  1.0000
  C   C1809     1.0  0.92674  0.53532  0.73299  1.0000
  C   C1810     1.0  0.93447  0.53357  0.74793  1.0000
  C   C1811     1.0  0.92407  0.52998  0.76594  1.0000
  Fe  Fe261     1.0  0.65855  0.54963  0.97647  1.0000
  C   C1812     1.0  0.89790  0.53050  0.75393  1.0000
  H   H3102     1.0  0.93488  0.53800  0.71917  1.0000
  H   H3103     1.0  0.94863  0.53475  0.74548  1.0000
  S   S529      1.0  0.76094  0.49855  0.97927  1.0000
  H   H3104     1.0  0.98216  0.51440  0.86235  1.0000
  H   H3105     1.0  0.73301  0.52766  0.96254  1.0000
  C   C1813     1.0  0.84235  0.51717  0.97945  1.0000
  H   H3106     1.0  0.99272  0.51469  0.81672  1.0000
  H   H3107     1.0  0.69527  0.58202  0.96668  1.0000
  H   H3108     1.0  0.91351  0.58321  0.65679  1.0000
  H   H3109     1.0  0.63488  0.64877  0.96478  1.0000
  S   S530      1.0  0.93492  0.50737  0.83541  1.0000
  H   H3110     1.0  0.95556  0.53755  0.80955  1.0000
  C   C1814     1.0  0.98825  0.57371  0.66089  1.0000
  H   H3111     1.0  0.66635  0.50329  0.93984  1.0000
  C   C1815     1.0  0.87581  0.50047  0.89234  1.0000
  H   H3112     1.0  0.85055  0.52624  0.98092  1.0000
  H   H3113     1.0  0.69669  0.60542  0.96132  1.0000
  H   H3114     1.0  0.68326  0.59742  0.93882  1.0000
  C   C1816     1.0  0.69641  0.54759  0.94188  1.0000
  C   C1817     1.0  0.70585  0.54786  0.92363  1.0000
  C   C1818     1.0  0.72498  0.54081  0.91940  1.0000
  C   C1819     1.0  0.73481  0.53325  0.93339  1.0000
  C   C1820     1.0  0.70626  0.54042  0.95593  1.0000
  H   H3115     1.0  0.69835  0.55345  0.91271  1.0000
  H   H3116     1.0  0.73218  0.54106  0.90522  1.0000
  S   S531      1.0  0.93425  0.52782  0.78432  1.0000
  H   H3117     1.0  0.85538  0.52439  0.89893  1.0000
  H   H3118     1.0  0.73695  0.49203  0.94445  1.0000
  S   S532      1.0  0.52802  0.72120  0.98082  1.0000
  H   H3119     1.0  0.84108  0.51792  0.87033  1.0000
  H   H3120     1.0  0.52707  0.65698  0.98011  1.0000
  H   H3121     1.0  0.53535  0.66021  0.94430  1.0000
  H   H3122     1.0  0.99273  0.52515  0.76002  1.0000
  H   H3123     1.0  0.97561  0.54804  0.72340  1.0000
  C   C1821     1.0  0.72544  0.53309  0.95170  1.0000
  C   C1822     1.0  0.65203  0.62037  0.93441  1.0000
  C   C1823     1.0  0.63859  0.49197  0.98041  1.0000
  C   C1824     1.0  0.84600  0.51680  0.85574  1.0000
  H   H3124     1.0  0.69923  0.54073  0.97000  1.0000
  S   S533      1.0  0.79947  0.51031  0.95336  1.0000
  C   C1825     1.0  0.68725  0.63383  0.92935  1.0000
  H   H3125     1.0  0.51545  0.61573  0.95179  1.0000
  H   H3126     1.0  0.68294  0.63568  0.91634  1.0000
  H   H3127     1.0  0.63513  0.50677  0.97760  1.0000
  H   H3128     1.0  0.70488  0.51223  0.90006  1.0000
  H   H3129     1.0  0.70950  0.48913  0.89812  1.0000
  H   H3130     1.0  0.97415  0.57700  0.65816  1.0000
  C   C1826     1.0  0.58347  0.63237  0.97398  1.0000
  C   C1827     1.0  0.83323  0.52690  0.96286  1.0000
  H   H3131     1.0  0.49814  0.70719  0.95627  1.0000
  H   H3132     1.0  0.63985  0.49027  0.95269  1.0000
  H   H3133     1.0  0.54010  0.61756  0.92151  1.0000
  H   H3134     1.0  0.96632  0.53415  0.82846  1.0000
  H   H3135     1.0  0.62198  0.63665  0.95767  1.0000
  H   H3136     1.0  0.59434  0.61386  0.95541  1.0000
  H   H3137     1.0  0.97389  0.51937  0.77771  1.0000
  H   H3138     1.0  0.64064  0.60654  0.97277  1.0000
  C   C1828     1.0  0.59871  0.60038  0.98262  1.0000
  C   C1829     1.0  0.64661  0.61896  0.96793  1.0000
  H   H3139     1.0  0.68807  0.49905  0.91205  1.0000
  H   H3140     1.0  0.90508  0.49020  0.68966  1.0000
  S   S534      1.0  0.88872  0.51312  0.87317  1.0000
  H   H3141     1.0  0.51668  0.68225  0.92317  1.0000
  H   H3142     1.0  0.89969  0.49182  0.77883  1.0000
  C   C1830     1.0  0.51543  0.66773  0.92772  1.0000
  H   H3143     1.0  0.88371  0.52937  0.75625  1.0000
  C   C1831     1.0  0.63997  0.60663  0.93698  1.0000
  H   H3144     1.0  0.66274  0.61864  0.92164  1.0000
  H   H3145     1.0  0.63337  0.61025  0.92504  1.0000
  H   H3146     1.0  0.62868  0.60691  0.94939  1.0000
  H   H3147     1.0  0.64836  0.59248  0.93742  1.0000
  H   H3148     1.0  0.66101  0.64709  0.94341  1.0000
  H   H3149     1.0  0.89595  0.61471  0.65983  1.0000
  N   N130      1.0  0.51707  0.64124  0.95680  1.0000
  C   C1832     1.0  0.63030  0.63580  0.96759  1.0000
  H   H3150     1.0  0.66518  0.51876  0.95344  1.0000
  H   H3151     1.0  0.54688  0.63497  0.92772  1.0000
  H   H3152     1.0  0.71709  0.50511  0.92507  1.0000
  H   H3153     1.0  0.96411  0.54860  0.75863  1.0000
  H   H3154     1.0  0.96217  0.50041  0.73843  1.0000
  H   H3155     1.0  0.94688  0.49941  0.72530  1.0000
  H   H3156     1.0  0.51281  0.67022  0.95533  1.0000
  C   C1833     1.0  0.98944  0.50345  0.85515  1.0000
  H   H3157     1.0  0.52976  0.61795  0.97559  1.0000
  C   C1834     1.0  0.98388  0.52075  0.80650  1.0000
  Fe  Fe262     1.0  0.54623  0.71815  0.95325  1.0000
  H   H3158     1.0  0.62081  0.63460  0.98137  1.0000
  H   H3159     1.0  0.60565  0.58733  0.97892  1.0000
  C   C1835     1.0  0.52045  0.65996  0.94673  1.0000
  N   N131      1.0  0.66091  0.61821  0.95017  1.0000
  C   C1836     1.0  0.54003  0.62321  0.93325  1.0000
  H   H3160     1.0  0.69839  0.62133  0.93089  1.0000
  Fe  Fe263     1.0  0.56082  0.67738  0.96604  1.0000
  H   H3161     1.0  0.68351  0.49057  0.96664  1.0000
  H   H3162     1.0  0.92556  0.49730  0.75290  1.0000
  C   C1837     1.0  0.97942  0.49263  0.85171  1.0000
  S   S535      1.0  0.57175  0.70213  0.96357  1.0000
  C   C1838     1.0  0.69027  0.49750  0.95282  1.0000
  H   H3163     1.0  0.54513  0.63204  0.96135  1.0000
  Fe  Fe264     1.0  0.92631  0.50735  0.81008  1.0000
  C   C1839     1.0  0.67423  0.59986  0.95229  1.0000
  S   S536      1.0  0.89857  0.50178  0.82536  1.0000
  C   C1840     1.0  0.87988  0.51265  0.95534  1.0000
  H   H3164     1.0  0.98639  0.57435  0.67547  1.0000
  H   H3165     1.0  0.72162  0.49326  0.96678  1.0000
  H   H3166     1.0  0.88696  0.51250  0.96604  1.0000
  C   C1841     1.0  0.84843  0.49976  0.91737  1.0000
  H   H3167     1.0  0.51431  0.72973  0.93578  1.0000
  H   H3168     1.0  0.98918  0.54499  0.66604  1.0000
  C   C1842     1.0  0.53058  0.63248  0.96926  1.0000
  H   H3169     1.0  0.87122  0.52646  0.95145  1.0000
  C   C1843     1.0  0.70310  0.49836  0.90797  1.0000
  C   C1844     1.0  0.98594  0.53784  0.71677  1.0000
  Fe  Fe265     1.0  0.52120  0.69489  0.98147  1.0000
  H   H3170     1.0  0.98193  0.55785  0.76048  1.0000
  H   H3171     1.0  0.67882  0.59723  0.97998  1.0000
  H   H3172     1.0  0.89078  0.51013  0.94289  1.0000
  H   H3173     1.0  0.51114  0.63468  0.93373  1.0000
  C   C1845     1.0  0.67480  0.51049  0.94358  1.0000
  H   H3174     1.0  0.97644  0.50987  0.80801  1.0000
  Fe  Fe266     1.0  0.77346  0.50590  0.94920  1.0000
  H   H3175     1.0  0.66648  0.58876  0.95724  1.0000
  H   H3176     1.0  0.54845  0.61231  0.94209  1.0000
  C   C1846     1.0  0.96877  0.53665  0.81326  1.0000
  H   H3177     1.0  0.96317  0.55337  0.78004  1.0000
  H   H3178     1.0  0.52517  0.66044  0.91716  1.0000
  C   C1847     1.0  0.95921  0.49170  0.73082  1.0000
  C   C1848     1.0  0.86858  0.49768  0.96130  1.0000
  C   C1849     1.0  0.71339  0.49267  0.92390  1.0000
  C   C1850     1.0  0.99442  0.51601  0.69700  1.0000
  H   H3179     1.0  0.86253  0.49834  0.94959  1.0000
  Fe  Fe267     1.0  0.78808  0.50034  0.98343  1.0000
  H   H3180     1.0  0.81048  0.50490  0.88259  1.0000
  H   H3181     1.0  0.82351  0.50771  0.85274  1.0000
  H   H3182     1.0  0.83527  0.48983  0.96818  1.0000
  C   C1851     1.0  0.83864  0.50227  0.85137  1.0000
  H   H3183     1.0  0.84436  0.50220  0.83649  1.0000
  H   H3184     1.0  0.97096  0.48984  0.71889  1.0000
  H   H3185     1.0  0.81147  0.48968  0.90422  1.0000
  C   C1852     1.0  0.81467  0.49031  0.88919  1.0000
  H   H3186     1.0  0.84291  0.48985  0.88788  1.0000
  C   C1853     1.0  0.49778  0.64264  0.96877  1.0000
  H   H3187     1.0  0.50113  0.66762  0.92774  1.0000
  N   N132      1.0  0.99542  0.52474  0.78729  1.0000
  H   H3188     1.0  0.52185  0.96919  0.15186  1.0000
  H   H3189     1.0  0.52265  0.75346  0.05041  1.0000
  C   C1854     1.0  0.51397  0.75877  0.03997  1.0000
  N   N133      1.0  0.51995  0.77505  0.02615  1.0000
  C   C1855     1.0  0.49996  0.92150  0.30286  1.0000
  H   H3190     1.0  0.50177  0.80961  0.05127  1.0000
  S   S537      1.0  0.52230  0.93879  0.23888  1.0000
  H   H3191     1.0  0.51276  0.95268  0.14707  1.0000
  H   H3192     1.0  0.54504  0.95078  0.28682  1.0000
  S   S538      1.0  0.50622  0.95577  0.19146  1.0000
  H   H3193     1.0  0.50051  0.78674  0.07881  1.0000
  H   H3194     1.0  0.50309  0.91814  0.27516  1.0000
  H   H3195     1.0  0.58278  0.97635  0.27943  1.0000
  H   H3196     1.0  0.53052  0.79777  0.02690  1.0000
  H   H3197     1.0  0.56800  0.75697  0.01833  1.0000
  H   H3198     1.0  0.56545  0.97468  0.22613  1.0000
  H   H3199     1.0  0.50672  0.77655  0.14294  1.0000
  C   C1856     1.0  0.50446  0.97354  0.27415  1.0000
  Fe  Fe268     1.0  0.49998  0.94795  0.22230  1.0000
  C   C1857     1.0  0.49798  0.79636  0.11980  1.0000
  H   H3200     1.0  0.50101  0.81599  0.02792  1.0000
  C   C1858     1.0  0.51082  0.76407  0.12000  1.0000
  C   C1859     1.0  0.55814  0.98100  0.23818  1.0000
  H   H3201     1.0  0.50551  0.86640  0.14554  1.0000
  H   H3202     1.0  0.51608  0.74727  0.03305  1.0000
  C   C1860     1.0  0.52015  0.78965  0.03558  1.0000
  C   C1861     1.0  0.50787  0.91003  0.28785  1.0000
  H   H3203     1.0  0.52464  0.78331  0.04882  1.0000
  H   H3204     1.0  0.51670  0.75065  0.12704  1.0000
  H   H3205     1.0  0.54481  0.77968  0.00549  1.0000
  C   C1862     1.0  0.53393  0.95454  0.27958  1.0000
  C   C1863     1.0  0.51873  0.96874  0.28361  1.0000
  H   H3206     1.0  0.52980  0.92146  0.31296  1.0000
  C   C1864     1.0  0.53492  0.94543  0.26581  1.0000
  C   C1865     1.0  0.52067  0.95036  0.25617  1.0000
  H   H3207     1.0  0.55427  0.76792  0.03674  1.0000
  H   H3208     1.0  0.50071  0.90624  0.14006  1.0000
  H   H3209     1.0  0.49825  0.86204  0.12753  1.0000
  H   H3210     1.0  0.54679  0.93459  0.26251  1.0000
  C   C1866     1.0  0.50535  0.96429  0.26062  1.0000
  C   C1867     1.0  0.50881  0.76683  0.10200  1.0000
  C   C1868     1.0  0.50197  0.78449  0.09272  1.0000
  C   C1869     1.0  0.55407  0.75925  0.02760  1.0000
  C   C1870     1.0  0.50185  0.80395  0.03954  1.0000
  H   H3211     1.0  0.55218  0.74556  0.03580  1.0000
  C   C1871     1.0  0.51437  0.96706  0.14251  1.0000
  S   S539      1.0  0.51704  0.98117  0.30006  1.0000
  H   H3212     1.0  0.55329  0.98616  0.27419  1.0000
  S   S540      1.0  0.51414  0.74846  0.09096  1.0000
  H   H3213     1.0  0.50561  0.97043  0.10919  1.0000
  H   H3214     1.0  0.52341  0.96905  0.12861  1.0000
  C   C1872     1.0  0.50774  0.78202  0.01239  1.0000
  H   H3215     1.0  0.50721  0.77052  0.00670  1.0000
  H   H3216     1.0  0.51789  0.80768  0.00001  1.0000
  H   H3217     1.0  0.50286  0.89718  0.29158  1.0000
  C   C1873     1.0  0.50536  0.77880  0.12893  1.0000
  H   H3218     1.0  0.52321  0.90705  0.28416  1.0000
  H   H3219     1.0  0.50561  0.93402  0.29724  1.0000
  H   H3220     1.0  0.50703  0.83401  0.17231  1.0000
  H   H3221     1.0  0.56229  0.97113  0.25042  1.0000
  H   H3222     1.0  0.50957  0.84318  0.14219  1.0000
  H   H3223     1.0  0.54315  0.98277  0.23911  1.0000
  S   S541      1.0  0.60458  0.95663  0.31715  1.0000
  H   H3224     1.0  0.50331  0.81139  0.20076  1.0000
  C   C1874     1.0  0.49967  0.85663  0.14200  1.0000
  H   H3225     1.0  0.53206  0.89915  0.31089  1.0000
  H   H3226     1.0  0.49845  0.83368  0.20515  1.0000
  H   H3227     1.0  0.50175  0.80427  0.98922  1.0000
  H   H3228     1.0  0.53959  0.75815  0.00790  1.0000
  H   H3229     1.0  0.58970  0.98480  0.25577  1.0000
  H   H3230     1.0  0.64247  0.93943  0.31591  1.0000
  C   C1875     1.0  0.51362  0.79717  0.99591  1.0000
  C   C1876     1.0  0.53940  0.76827  0.01583  1.0000
  H   H3231     1.0  0.49869  0.86487  0.17616  1.0000
  C   C1877     1.0  0.83374  0.84008  0.49685  1.0000
  H   H3232     1.0  0.51135  0.97966  0.39050  1.0000
  C   C1878     1.0  0.84112  0.84541  0.51081  1.0000
  C   C1879     1.0  0.96548  0.76357  0.40763  1.0000
  S   S542      1.0  0.56286  0.95823  0.35901  1.0000
  H   H3233     1.0  0.51747  0.93274  0.63074  1.0000
  S   S543      1.0  0.87789  0.74840  0.45794  1.0000
  S   S544      1.0  0.52149  0.96925  0.35010  1.0000
  H   H3234     1.0  0.82846  0.75158  0.53902  1.0000
  H   H3235     1.0  0.98567  0.80666  0.44209  1.0000
  Fe  Fe269     1.0  0.54340  0.94370  0.35515  1.0000
  S   S545      1.0  0.53982  0.91782  0.37604  1.0000
  H   H3236     1.0  0.81580  0.74677  0.52552  1.0000
  C   C1880     1.0  0.55303  0.95569  0.64126  1.0000
  C   C1881     1.0  0.54587  0.97417  0.63454  1.0000
  Fe  Fe270     1.0  0.92728  0.81892  0.51038  1.0000
  S   S546      1.0  0.89820  0.83050  0.52365  1.0000
  S   S547      1.0  0.94997  0.81000  0.52616  1.0000
  Fe  Fe271     1.0  0.91611  0.81734  0.47626  1.0000
  S   S548      1.0  0.88603  0.82977  0.48637  1.0000
  S   S549      1.0  0.92708  0.80398  0.45166  1.0000
  Fe  Fe272     1.0  0.89658  0.84893  0.49602  1.0000
  S   S550      1.0  0.88241  0.87762  0.50032  1.0000
  Fe  Fe273     1.0  0.88998  0.81066  0.51305  1.0000
  S   S551      1.0  0.86949  0.79354  0.52968  1.0000
  S   S552      1.0  0.92663  0.83847  0.48320  1.0000
  S   S553      1.0  0.91921  0.79706  0.50245  1.0000
  C   C1882     1.0  0.55398  0.96747  0.57154  1.0000
  C   C1883     1.0  0.57167  0.94803  0.63460  1.0000
  H   H3237     1.0  0.80529  0.85098  0.54870  1.0000
  H   H3238     1.0  0.98001  0.80793  0.49062  1.0000
  H   H3239     1.0  0.84587  0.87042  0.52626  1.0000
  H   H3240     1.0  0.59180  0.98636  0.37908  1.0000
  C   C1884     1.0  0.84746  0.84640  0.54795  1.0000
  C   C1885     1.0  0.83626  0.86169  0.53542  1.0000
  H   H3241     1.0  0.84317  0.90081  0.45489  1.0000
  H   H3242     1.0  0.55073  0.96348  0.56030  1.0000
  S   S554      1.0  0.78212  0.97706  0.47834  1.0000
  Fe  Fe274     1.0  0.75811  0.94248  0.51779  1.0000
  H   H3243     1.0  0.68994  0.98156  0.34321  1.0000
  S   S555      1.0  0.74808  0.92014  0.54056  1.0000
  Fe  Fe275     1.0  0.79076  0.94628  0.48537  1.0000
  H   H3244     1.0  0.94864  0.75277  0.49090  1.0000
  S   S556      1.0  0.81472  0.93006  0.46783  1.0000
  H   H3245     1.0  0.99598  0.78839  0.58294  1.0000
  N   N134      1.0  0.98022  0.79027  0.40632  1.0000
  C   C1886     1.0  0.99369  0.82864  0.52693  1.0000
  S   S557      1.0  0.78712  0.94475  0.51536  1.0000
  S   S558      1.0  0.76256  0.94156  0.48826  1.0000
  Fe  Fe276     1.0  0.65121  0.95661  0.39582  1.0000
  H   H3246     1.0  0.94452  0.74827  0.52041  1.0000
  S   S559      1.0  0.65671  0.94285  0.37212  1.0000
  Fe  Fe277     1.0  0.66928  0.95779  0.42576  1.0000
  C   C1887     1.0  0.88300  0.74841  0.56831  1.0000
  S   S560      1.0  0.69493  0.94415  0.43711  1.0000
  Fe  Fe278     1.0  0.62752  0.96348  0.43290  1.0000
  S   S561      1.0  0.59987  0.96061  0.45131  1.0000
  H   H3247     1.0  0.83355  0.94755  0.54014  1.0000
  H   H3248     1.0  0.82144  0.83406  0.50337  1.0000
  S   S562      1.0  0.65075  0.94043  0.42468  1.0000
  C   C1888     1.0  0.52442  0.90887  0.32006  1.0000
  H   H3249     1.0  0.86735  0.94218  0.47900  1.0000
  H   H3250     1.0  0.56609  0.97394  0.56528  1.0000
  Fe  Fe279     1.0  0.61119  0.95545  0.54798  1.0000
  S   S563      1.0  0.64200  0.95021  0.53889  1.0000
  S   S564      1.0  0.59148  0.94676  0.53727  1.0000
  Fe  Fe280     1.0  0.64222  0.94313  0.56876  1.0000
  C   C1889     1.0  0.97301  0.77357  0.41776  1.0000
  H   H3251     1.0  0.97632  0.86422  0.49528  1.0000
  S   S565      1.0  0.61145  0.94539  0.57793  1.0000
  H   H3252     1.0  0.82603  0.76016  0.49589  1.0000
  C   C1890     1.0  0.59828  0.95687  0.47508  1.0000
  C   C1891     1.0  0.58240  0.95189  0.48715  1.0000
  C   C1892     1.0  0.58059  0.94877  0.50616  1.0000
  C   C1893     1.0  0.59450  0.95087  0.51329  1.0000
  C   C1894     1.0  0.61039  0.95604  0.50127  1.0000
  C   C1895     1.0  0.61233  0.95892  0.48213  1.0000
  H   H3253     1.0  0.57153  0.95026  0.48180  1.0000
  H   H3254     1.0  0.56833  0.94474  0.51539  1.0000
  H   H3255     1.0  0.62119  0.95763  0.50673  1.0000
  H   H3256     1.0  0.98333  0.77527  0.56028  1.0000
  C   C1896     1.0  0.72443  0.92101  0.55044  1.0000
  H   H3257     1.0  0.52849  0.92419  0.59025  1.0000
  C   C1897     1.0  0.69172  0.93603  0.55421  1.0000
  C   C1898     1.0  0.71044  0.93610  0.54554  1.0000
  H   H3258     1.0  0.68091  0.94764  0.55042  1.0000
  H   H3259     1.0  0.71402  0.94778  0.53515  1.0000
  H   H3260     1.0  0.83437  0.81991  0.54410  1.0000
  C   C1899     1.0  0.94010  0.74796  0.48464  1.0000
  H   H3261     1.0  0.90540  0.74159  0.49067  1.0000
  C   C1900     1.0  0.70662  0.95779  0.44255  1.0000
  C   C1901     1.0  0.72373  0.94973  0.44746  1.0000
  H   H3262     1.0  0.85783  0.75911  0.52461  1.0000
  H   H3263     1.0  0.95387  0.77251  0.40144  1.0000
  H   H3264     1.0  0.82745  0.79031  0.49490  1.0000
  H   H3265     1.0  0.73024  0.93570  0.44644  1.0000
  H   H3266     1.0  0.74535  0.95314  0.45802  1.0000
  H   H3267     1.0  0.94378  0.74287  0.45679  1.0000
  H   H3268     1.0  0.53077  0.94429  0.57386  1.0000
  N   N135      1.0  0.54479  0.93959  0.59613  1.0000
  C   C1902     1.0  0.58299  0.95873  0.62111  1.0000
  C   C1903     1.0  0.71970  0.90610  0.56411  1.0000
  H   H3269     1.0  0.81021  0.89460  0.52848  1.0000
  C   C1904     1.0  0.97725  0.80203  0.43542  1.0000
  H   H3270     1.0  0.97676  0.75819  0.60923  1.0000
  H   H3271     1.0  0.85161  0.85365  0.50276  1.0000
  H   H3272     1.0  0.95033  0.75893  0.58737  1.0000
  N   N136      1.0  0.84505  0.74417  0.51346  1.0000
  C   C1905     1.0  0.86301  0.89102  0.49159  1.0000
  C   C1906     1.0  0.86006  0.88957  0.47509  1.0000
  C   C1907     1.0  0.84510  0.90156  0.46796  1.0000
  C   C1908     1.0  0.83276  0.91464  0.47754  1.0000
  C   C1909     1.0  0.83534  0.91557  0.49439  1.0000
  C   C1910     1.0  0.85057  0.90397  0.50124  1.0000
  H   H3273     1.0  0.86966  0.87969  0.46751  1.0000
  H   H3274     1.0  0.97892  0.77753  0.52802  1.0000
  H   H3275     1.0  0.82581  0.92541  0.50196  1.0000
  H   H3276     1.0  0.85276  0.90497  0.51410  1.0000
  C   C1911     1.0  0.91370  0.78830  0.45325  1.0000
  C   C1912     1.0  0.89810  0.78680  0.46751  1.0000
  C   C1913     1.0  0.88719  0.77468  0.46866  1.0000
  C   C1914     1.0  0.89211  0.76337  0.45598  1.0000
  C   C1915     1.0  0.90807  0.76436  0.44201  1.0000
  C   C1916     1.0  0.91864  0.77707  0.44046  1.0000
  H   H3277     1.0  0.89423  0.79515  0.47760  1.0000
  H   H3278     1.0  0.87493  0.77415  0.47945  1.0000
  H   H3279     1.0  0.91192  0.75575  0.43208  1.0000
  H   H3280     1.0  0.93045  0.77833  0.42925  1.0000
  C   C1917     1.0  0.87331  0.76200  0.55617  1.0000
  C   C1918     1.0  0.88018  0.77760  0.54657  1.0000
  C   C1919     1.0  0.89616  0.78010  0.54992  1.0000
  H   H3281     1.0  0.84470  0.82968  0.49023  1.0000
  H   H3282     1.0  0.86067  0.76027  0.55408  1.0000
  H   H3283     1.0  0.82613  0.87021  0.54478  1.0000
  C   C1920     1.0  0.95954  0.74957  0.57842  1.0000
  H   H3284     1.0  0.67599  0.95749  0.58865  1.0000
  C   C1921     1.0  0.96408  0.84089  0.50908  1.0000
  C   C1922     1.0  0.96559  0.82422  0.52182  1.0000
  S   S566      1.0  0.67157  0.97219  0.39623  1.0000
  H   H3285     1.0  0.97778  0.82807  0.39605  1.0000
  H   H3286     1.0  0.95271  0.84568  0.50214  1.0000
  H   H3287     1.0  0.92851  0.76004  0.48232  1.0000
  H   H3288     1.0  0.84657  0.97551  0.52713  1.0000
  H   H3289     1.0  0.71411  0.98045  0.56521  1.0000
  H   H3290     1.0  0.54343  0.91321  0.61466  1.0000
  H   H3291     1.0  0.96149  0.75701  0.56389  1.0000
  H   H3292     1.0  0.83826  0.83916  0.55963  1.0000
  H   H3293     1.0  0.91297  0.74963  0.51440  1.0000
  H   H3294     1.0  0.61932  0.96509  0.37214  1.0000
  C   C1923     1.0  0.72587  0.96864  0.56659  1.0000
  H   H3295     1.0  0.87833  0.92657  0.49620  1.0000
  C   C1924     1.0  0.61907  0.95515  0.33184  1.0000
  C   C1925     1.0  0.61263  0.96269  0.34760  1.0000
  C   C1926     1.0  0.62429  0.95966  0.35982  1.0000
  C   C1927     1.0  0.64229  0.94900  0.35634  1.0000
  C   C1928     1.0  0.64881  0.94200  0.34034  1.0000
  H   H3296     1.0  0.92735  0.74217  0.54012  1.0000
  H   H3297     1.0  0.98008  0.75349  0.52989  1.0000
  H   H3298     1.0  0.98138  0.80552  0.54090  1.0000
  N   N137      1.0  0.50388  0.91217  0.32163  1.0000
  H   H3299     1.0  0.98610  0.75558  0.46883  1.0000
  C   C1929     1.0  0.52811  0.95196  0.60559  1.0000
  H   H3300     1.0  0.96156  0.77723  0.42942  1.0000
  C   C1930     1.0  0.85859  0.98058  0.49177  1.0000
  Fe  Fe281     1.0  0.53564  0.97073  0.32035  1.0000
  H   H3301     1.0  0.54468  0.90478  0.33639  1.0000
  Fe  Fe282     1.0  0.57396  0.96095  0.32880  1.0000
  C   C1931     1.0  0.83449  0.77955  0.50499  1.0000
  C   C1932     1.0  0.99377  0.78508  0.38926  1.0000
  C   C1933     1.0  0.97746  0.85138  0.50522  1.0000
  N   N138      1.0  0.84593  0.96775  0.50241  1.0000
  C   C1934     1.0  0.83117  0.96850  0.49267  1.0000
  H   H3302     1.0  0.72643  0.96131  0.55586  1.0000
  C   C1935     1.0  0.73884  0.93969  0.58485  1.0000
  N   N139      1.0  0.72296  0.95625  0.58536  1.0000
  H   H3303     1.0  0.84794  0.93855  0.51223  1.0000
  H   H3304     1.0  0.52222  0.90615  0.34990  1.0000
  H   H3305     1.0  0.54246  0.97807  0.57709  1.0000
  H   H3306     1.0  0.96583  0.81389  0.43232  1.0000
  C   C1936     1.0  0.55180  0.92382  0.61068  1.0000
  H   H3307     1.0  0.57653  0.90921  0.59324  1.0000
  H   H3308     1.0  0.69015  0.96768  0.56828  1.0000
  H   H3309     1.0  0.81151  0.81978  0.55708  1.0000
  H   H3310     1.0  0.55608  0.90643  0.57722  1.0000
  C   C1937     1.0  0.50256  0.92897  0.37726  1.0000
  H   H3311     1.0  0.66273  0.93378  0.33754  1.0000
  C   C1938     1.0  0.83882  0.76093  0.49942  1.0000
  C   C1939     1.0  0.63734  0.94522  0.32806  1.0000
  H   H3312     1.0  0.56711  0.92541  0.56577  1.0000
  C   C1940     1.0  0.49793  0.94347  0.33025  1.0000
  C   C1941     1.0  0.73726  0.92358  0.60161  1.0000
  H   H3313     1.0  0.95471  0.83452  0.39380  1.0000
  H   H3314     1.0  0.59864  0.97059  0.35049  1.0000
  C   C1942     1.0  0.99296  0.77859  0.59614  1.0000
  Fe  Fe283     1.0  0.54228  0.98376  0.35106  1.0000
  C   C1943     1.0  0.83634  0.97371  0.52038  1.0000
  H   H3315     1.0  0.52280  0.89259  0.40623  1.0000
  C   C1944     1.0  0.70514  0.94984  0.58946  1.0000
  C   C1945     1.0  0.96390  0.80498  0.40128  1.0000
  H   H3316     1.0  0.73739  0.96691  0.59929  1.0000
  C   C1946     1.0  0.53147  0.90076  0.33798  1.0000
  N   N140      1.0  0.99089  0.75258  0.58235  1.0000
  H   H3317     1.0  0.56309  0.95579  0.59695  1.0000
  C   C1947     1.0  0.86152  0.74682  0.51856  1.0000
  H   H3318     1.0  0.71502  0.94439  0.48907  1.0000
  H   H3319     1.0  0.82519  0.77960  0.51875  1.0000
  N   N141      1.0  0.60292  0.90930  0.38481  1.0000
  C   C1948     1.0  0.60749  0.92045  0.39550  1.0000
  C   C1949     1.0  0.61546  0.89051  0.38737  1.0000
  C   C1950     1.0  0.58306  0.90748  0.39137  1.0000
  C   C1951     1.0  0.60586  0.91888  0.36490  1.0000
  C   C1952     1.0  0.59364  0.93872  0.39796  1.0000
  C   C1953     1.0  0.63599  0.88954  0.37755  1.0000
  C   C1954     1.0  0.57735  0.89849  0.41181  1.0000
  C   C1955     1.0  0.60196  0.90954  0.35157  1.0000
  H   H3320     1.0  0.60894  0.91244  0.40950  1.0000
  H   H3321     1.0  0.62123  0.92394  0.38883  1.0000
  H   H3322     1.0  0.61046  0.88065  0.38292  1.0000
  H   H3323     1.0  0.61528  0.88466  0.40220  1.0000
  H   H3324     1.0  0.57339  0.92102  0.38859  1.0000
  H   H3325     1.0  0.57994  0.89910  0.38348  1.0000
  H   H3326     1.0  0.59671  0.93268  0.36323  1.0000
  H   H3327     1.0  0.61996  0.92171  0.35957  1.0000
  H   H3328     1.0  0.58005  0.93661  0.40679  1.0000
  H   H3329     1.0  0.59929  0.94597  0.40496  1.0000
  H   H3330     1.0  0.59155  0.94795  0.38472  1.0000
  H   H3331     1.0  0.63788  0.89220  0.36241  1.0000
  H   H3332     1.0  0.64203  0.89916  0.38114  1.0000
  H   H3333     1.0  0.64415  0.87552  0.38184  1.0000
  H   H3334     1.0  0.57986  0.90570  0.42110  1.0000
  H   H3335     1.0  0.58450  0.88386  0.41470  1.0000
  H   H3336     1.0  0.56225  0.89895  0.41521  1.0000
  H   H3337     1.0  0.58720  0.91421  0.35052  1.0000
  H   H3338     1.0  0.60533  0.89444  0.35545  1.0000
  H   H3339     1.0  0.61083  0.91317  0.33771  1.0000
  N   N142      1.0  0.68417  0.92653  0.49888  1.0000
  C   C1956     1.0  0.67154  0.93956  0.48687  1.0000
  C   C1957     1.0  0.68975  0.93786  0.50861  1.0000
  C   C1958     1.0  0.67330  0.91325  0.51256  1.0000
  C   C1959     1.0  0.70057  0.91662  0.48674  1.0000
  C   C1960     1.0  0.66192  0.93068  0.47760  1.0000
  C   C1961     1.0  0.70154  0.95152  0.49630  1.0000
  C   C1962     1.0  0.67977  0.90380  0.53063  1.0000
  C   C1963     1.0  0.71665  0.90437  0.49563  1.0000
  H   H3340     1.0  0.66034  0.94864  0.49498  1.0000
  H   H3341     1.0  0.67914  0.94878  0.47557  1.0000
  H   H3342     1.0  0.69771  0.92922  0.51893  1.0000
  H   H3343     1.0  0.67733  0.94582  0.51657  1.0000
  H   H3344     1.0  0.65856  0.92026  0.51693  1.0000
  H   H3345     1.0  0.67284  0.90225  0.50612  1.0000
  H   H3346     1.0  0.69624  0.90753  0.48064  1.0000
  H   H3347     1.0  0.70641  0.92625  0.47448  1.0000
  H   H3348     1.0  0.65420  0.94164  0.46821  1.0000
  H   H3349     1.0  0.53237  0.95920  0.61376  1.0000
  H   H3350     1.0  0.65169  0.92330  0.48772  1.0000
  H   H3351     1.0  0.51252  0.94207  0.33070  1.0000
  H   H3352     1.0  0.70078  0.94417  0.60441  1.0000
  H   H3353     1.0  0.69421  0.96208  0.48638  1.0000
  H   H3354     1.0  0.69473  0.89752  0.52860  1.0000
  H   H3355     1.0  0.67221  0.89277  0.53812  1.0000
  H   H3356     1.0  0.67620  0.91361  0.53977  1.0000
  H   H3357     1.0  0.71432  0.89030  0.50161  1.0000
  H   H3358     1.0  0.71942  0.90979  0.50615  1.0000
  H   H3359     1.0  0.72970  0.90360  0.48491  1.0000
  C   C1964     1.0  0.72327  0.96508  0.60032  1.0000
  C   C1965     1.0  0.51267  0.94264  0.61880  1.0000
  C   C1966     1.0  0.55928  0.95076  0.58667  1.0000
  H   H3360     1.0  0.86425  0.94700  0.51810  1.0000
  H   H3361     1.0  0.67191  0.92146  0.46893  1.0000
  H   H3362     1.0  0.84926  0.83265  0.51781  1.0000
  C   C1967     1.0  0.80297  0.88700  0.52354  1.0000
  H   H3363     1.0  0.72027  0.95585  0.61399  1.0000
  C   C1968     1.0  0.81682  0.87287  0.51286  1.0000
  H   H3364     1.0  0.83043  0.85205  0.48570  1.0000
  C   C1969     1.0  0.89903  0.75094  0.57155  1.0000
  H   H3365     1.0  0.53165  0.98026  0.63962  1.0000
  H   H3366     1.0  0.57494  0.90176  0.61740  1.0000
  C   C1970     1.0  0.85715  0.94846  0.50687  1.0000
  C   C1971     1.0  0.90537  0.76695  0.56263  1.0000
  H   H3367     1.0  0.79295  0.88074  0.53514  1.0000
  H   H3368     1.0  0.96001  0.75207  0.41772  1.0000
  H   H3369     1.0  0.88419  0.94829  0.48731  1.0000
  H   H3370     1.0  0.82697  0.88015  0.50241  1.0000
  C   C1972     1.0  0.99244  0.84515  0.51395  1.0000
  H   H3371     1.0  0.95930  0.77015  0.52714  1.0000
  H   H3372     1.0  0.85808  0.83653  0.54048  1.0000
  C   C1973     1.0  0.95186  0.74495  0.46557  1.0000
  H   H3373     1.0  0.98633  0.78569  0.37858  1.0000
  C   C1974     1.0  0.81972  0.82423  0.54308  1.0000
  H   H3374     1.0  0.84988  0.97168  0.46460  1.0000
  H   H3375     1.0  0.73044  0.89445  0.56804  1.0000
  H   H3376     1.0  0.91774  0.76895  0.56513  1.0000
  H   H3377     1.0  0.90145  0.79220  0.54281  1.0000
  S   S567      1.0  0.62638  0.97810  0.40390  1.0000
  C   C1975     1.0  0.98059  0.77005  0.50196  1.0000
  S   S568      1.0  0.66408  0.91998  0.57917  1.0000
  Fe  Fe284     1.0  0.75346  0.97213  0.48364  1.0000
  C   C1976     1.0  0.53868  0.93285  0.58277  1.0000
  H   H3378     1.0  0.72530  0.91757  0.60313  1.0000
  H   H3379     1.0  0.97646  0.75744  0.39695  1.0000
  Fe  Fe285     1.0  0.77610  0.97516  0.50877  1.0000
  H   H3380     1.0  0.85507  0.85268  0.55397  1.0000
  H   H3381     1.0  0.58155  0.92287  0.60605  1.0000
  H   H3382     1.0  0.69773  0.89440  0.58331  1.0000
  H   H3383     1.0  0.95763  0.80085  0.39215  1.0000
  H   H3384     1.0  0.55009  0.92852  0.62351  1.0000
  H   H3385     1.0  0.82349  0.95753  0.49997  1.0000
  H   H3386     1.0  0.57733  0.93376  0.63980  1.0000
  H   H3387     1.0  0.59741  0.95277  0.61618  1.0000
  H   H3388     1.0  0.80163  0.84621  0.52898  1.0000
  C   C1977     1.0  0.81257  0.84504  0.53636  1.0000
  C   C1978     1.0  0.68712  0.92095  0.56790  1.0000
  H   H3389     1.0  0.96873  0.77483  0.59083  1.0000
  C   C1979     1.0  0.70119  0.90607  0.57279  1.0000
  C   C1980     1.0  0.55378  0.92113  0.57034  1.0000
  H   H3390     1.0  0.97134  0.78245  0.49565  1.0000
  H   H3391     1.0  0.79484  0.89743  0.51407  1.0000
  H   H3392     1.0  0.54936  0.92278  0.55739  1.0000
  S   S569      1.0  0.74663  0.97268  0.51367  1.0000
  C   C1981     1.0  0.83732  0.96663  0.47241  1.0000
  H   H3393     1.0  0.70465  0.95901  0.50502  1.0000
  C   C1982     1.0  0.51202  0.90244  0.40011  1.0000
  C   C1983     1.0  0.72373  0.97752  0.45601  1.0000
  C   C1984     1.0  0.51658  0.91637  0.38507  1.0000
  H   H3394     1.0  0.52130  0.96287  0.59540  1.0000
  C   C1985     1.0  0.87248  0.94131  0.49123  1.0000
  N   N143      1.0  0.82669  0.85579  0.52417  1.0000
  H   H3395     1.0  0.73659  0.92747  0.61455  1.0000
  H   H3396     1.0  0.74065  0.93405  0.57256  1.0000
  C   C1986     1.0  0.73226  0.95956  0.45416  1.0000
  H   H3397     1.0  0.80878  0.86937  0.50487  1.0000
  C   C1987     1.0  0.82921  0.74229  0.53000  1.0000
  H   H3398     1.0  0.75218  0.94341  0.58344  1.0000
  H   H3399     1.0  0.97230  0.82478  0.37606  1.0000
  H   H3400     1.0  0.62457  0.96280  0.47285  1.0000
  C   C1988     1.0  0.68819  0.96390  0.58348  1.0000
  C   C1989     1.0  0.98031  0.81823  0.53085  1.0000
  H   H3401     1.0  0.70725  0.93834  0.58263  1.0000
  H   H3402     1.0  0.68575  0.98257  0.43897  1.0000
  C   C1990     1.0  0.96768  0.82400  0.39111  1.0000
  C   C1991     1.0  0.97465  0.76770  0.52298  1.0000
  H   H3403     1.0  0.81751  0.96738  0.54672  1.0000
  H   H3404     1.0  0.50598  0.93958  0.36561  1.0000
  H   H3405     1.0  0.53393  0.88560  0.34129  1.0000
  H   H3406     1.0  0.81723  0.81632  0.53437  1.0000
  C   C1992     1.0  0.98977  0.79577  0.41792  1.0000
  H   H3407     1.0  0.74985  0.91250  0.59949  1.0000
  H   H3408     1.0  0.86729  0.97646  0.47893  1.0000
  H   H3409     1.0  0.50657  0.93590  0.61177  1.0000
  H   H3410     1.0  0.57242  0.94249  0.58014  1.0000
  H   H3411     1.0  0.98399  0.76318  0.42406  1.0000
  C   C1993     1.0  0.57238  0.91399  0.60627  1.0000
  H   H3412     1.0  0.95226  0.80672  0.41343  1.0000
  H   H3413     1.0  0.97694  0.75844  0.49905  1.0000
  H   H3414     1.0  0.84930  0.76167  0.48624  1.0000
  H   H3415     1.0  0.81388  0.95845  0.52950  1.0000
  H   H3416     1.0  0.82016  0.98118  0.49343  1.0000
  H   H3417     1.0  0.84735  0.78365  0.50453  1.0000
  C   C1994     1.0  0.98150  0.76574  0.59500  1.0000
  H   H3418     1.0  0.83934  0.95223  0.47138  1.0000
  H   H3419     1.0  0.97152  0.79079  0.44558  1.0000
  H   H3420     1.0  0.95713  0.75747  0.45825  1.0000
  C   C1995     1.0  0.57562  0.97707  0.61414  1.0000
  S   S570      1.0  0.55622  0.94402  0.32530  1.0000
  C   C1996     1.0  0.69863  0.97611  0.44329  1.0000
  H   H3421     1.0  0.75626  0.96606  0.55874  1.0000
  H   H3422     1.0  0.87262  0.74932  0.50604  1.0000
  H   H3423     1.0  0.52979  0.97338  0.41335  1.0000
  H   H3424     1.0  0.95195  0.73888  0.57970  1.0000
  S   S571      1.0  0.64077  0.97140  0.57135  1.0000
  H   H3425     1.0  0.82628  0.97500  0.46502  1.0000
  H   H3426     1.0  0.50122  0.95329  0.62451  1.0000
  H   H3427     1.0  0.99388  0.75415  0.55335  1.0000
  Fe  Fe286     1.0  0.63875  0.97878  0.54191  1.0000
  H   H3428     1.0  0.86875  0.98003  0.49984  1.0000
  S   S572      1.0  0.64583  0.97944  0.43666  1.0000
  H   H3429     1.0  0.98469  0.78693  0.60646  1.0000
  H   H3430     1.0  0.64329  0.97851  0.48639  1.0000
  Fe  Fe287     1.0  0.60999  0.97468  0.57733  1.0000
  H   H3431     1.0  0.50827  0.88340  0.32138  1.0000
  C   C1997     1.0  0.50377  0.98105  0.40474  1.0000
  C   C1998     1.0  0.82477  0.96082  0.53481  1.0000
  H   H3432     1.0  0.50166  0.96708  0.41218  1.0000
  H   H3433     1.0  0.58610  0.98103  0.40363  1.0000
  H   H3434     1.0  0.68457  0.97639  0.58902  1.0000
  H   H3435     1.0  0.99685  0.80705  0.41017  1.0000
  C   C1999     1.0  0.97803  0.74020  0.58454  1.0000
  H   H3436     1.0  0.50279  0.88531  0.35577  1.0000
  C   C2000     1.0  0.74332  0.97668  0.56085  1.0000
  C   C2001     1.0  0.99525  0.80576  0.48618  1.0000
  C   C2002     1.0  0.70727  0.98597  0.44990  1.0000
  C   C2003     1.0  0.99442  0.76272  0.56250  1.0000
  H   H3437     1.0  0.99516  0.78247  0.46677  1.0000
  H   H3438     1.0  0.69618  0.98125  0.61166  1.0000
  C   C2004     1.0  0.55704  0.98472  0.62078  1.0000
  C   C2005     1.0  0.70948  0.98345  0.60213  1.0000
  H   H3439     1.0  0.74364  0.98460  0.57063  1.0000
  C   C2006     1.0  0.51743  0.98489  0.41374  1.0000
  C   C2007     1.0  0.49752  0.89430  0.32750  1.0000
  S   S573      1.0  0.60781  0.98498  0.54788  1.0000
  H   H3440     1.0  0.66762  0.98614  0.35773  1.0000
  H   H3441     1.0  0.51169  0.98547  0.42841  1.0000
  C   C2008     1.0  0.93613  0.73789  0.52735  1.0000
  H   H3442     1.0  0.74312  0.98653  0.54746  1.0000
  H   H3443     1.0  0.51835  0.97442  0.81528  1.0000
  C   C2009     1.0  0.52214  0.95861  0.75386  1.0000
  N   N144      1.0  0.51675  0.97894  0.77700  1.0000
  H   H3444     1.0  0.54298  0.96744  0.76059  1.0000
  C   C2010     1.0  0.52329  0.75478  0.93074  1.0000
  H   H3445     1.0  0.50996  0.95284  0.79166  1.0000
  Fe  Fe288     1.0  0.50877  0.95450  0.66685  1.0000
  H   H3446     1.0  0.52812  0.78188  0.92553  1.0000
  C   C2011     1.0  0.51791  0.77388  0.92788  1.0000
  H   H3447     1.0  0.53097  0.95622  0.74034  1.0000
  C   C2012     1.0  0.52827  0.97315  0.75953  1.0000
  C   C2013     1.0  0.51010  0.74444  0.93380  1.0000
  H   H3448     1.0  0.52398  0.94532  0.76379  1.0000
  H   H3449     1.0  0.54871  0.97407  0.78884  1.0000
  C   C2014     1.0  0.51781  0.96245  0.79265  1.0000
  S   S574      1.0  0.54628  0.74372  0.93138  1.0000
  H   H3450     1.0  0.50763  0.96299  0.75220  1.0000
  H   H3451     1.0  0.53223  0.95421  0.79196  1.0000
  S   S575      1.0  0.53879  0.94160  0.65698  1.0000
  H   H3452     1.0  0.51101  0.95326  0.82232  1.0000
  C   C2015     1.0  0.51018  0.96644  0.81210  1.0000
  H   H3453     1.0  0.50294  0.92902  0.75928  1.0000
  H   H3454     1.0  0.52874  0.98512  0.74789  1.0000
  C   C2016     1.0  0.49921  0.78259  0.92865  1.0000
  H   H3455     1.0  0.58382  0.98568  0.67675  1.0000
  H   H3456     1.0  0.52504  0.79125  0.98537  1.0000
  S   S576      1.0  0.49850  0.96021  0.69526  1.0000
