data_image0
_chemical_formula_structural       S2CH2C2SHCFeSHFeSHFeSFeS3H3C2H2NSH3CSCH5SCHC7H4SHCH4C3HC4HCH3C3H5CHSHC2HCH3C4H2CSH4SHFeH2CHSCH2CHCNCH2SCH4CHCH4CH4NC7H13SHC2SH2CHCHNC8H4CHCH2C2H3CFeH2CHC2HSHCH2CFeHCH2FeNCFeHSH4CHFeCH3FeH2CH7SH3CH2C2H8CH2FeS2FeSCHSCFeSHFeSCFeSFeCS2HSH2CH2SH2CSCH3C2HC2HCHC4HCH5FeNH2C3HC3H4C3HCH2CHC2H3C2HCH3CSHC2H4CH3CNCH3C3H6CH2C2H9CHC2SHSH2CHCH4CSH6CH4NFeH2C2H3CH3C2HCH3SH2CHNCH5SHC2H2CH2CH3CSHC2H2CH2CH3C2HSH3C2SHCHFeH6NHCH2CSHCH5C2HFeHSHCHCH3FeC2NCSH2CFeHCH2C2FeCHC5H2CH2C2H2NH8CH2CH3SFeHSH3CHFeS2FeS2FeSFeCS2HSHSHFeHC2H3CH2C2H2CH2SCHSFeCH4C6HFeH2C2HSH3SH2SHSH2C7H5FeH7SHSH2CH2FeHCH5C2H2CH2CHCHC2NSHNC2H3C3HSH3C2H6CSHFeHFeHCH2CH8C2HSHCHCNFeCH2C2H2C2H3S2H3C2H2CHFeHS4FeSCFe2S2CS2H2SFeCSFeS2FeCFeHS2HC2H3C2H7C6H4C6H3C2H2FeC2H4C3SH4CH2C5NCHC4H4NHCHCHC3HC3S2H5CH2CH2CHCNC6H16C2HCHSH2SHCH2C2HSH3CHC2H2SC2H4C5H4CNFeSH3C2H2CH4CHCH4C2H7NCHC4H2CH2CH2CFeCH2CH2CHSHSH2CH5C2HSH2CSHCH3SCH4CH5FeC2FeCHNCHCNC2HC3HSH2CH3CH10FeN2CHSHCH5CH5C2HCHCH6CHCH2CH2CHCHCH8CNH5C2H2NS2H3CH5CHSH2NH3FeCSFeHSCFeS4C6HCH2C2H2CH3SC2H4FeCSH2C5HSHSCHCH3CHCSCHCHC2HCH3CH4FeC3H4C4H2CHCH5CHC2SCHSHCHCH2CNC2HCH2NH3FeSCH2SHC2FeCHSH2SC2HC4S2CHCFeHSH6FeC2HFeH9CHFeH2SH4FeH3SH5CNHCH3CH6C2HCHFeHCH2SHFe2S2FeSCNSH4SFeSHS2H3SH3CH3C4SCH2SHSC6H4C3HCH4FeCHFe2SC6H2CSH3CH4C5H5CH6SHCHCHCH3CH2CHSH6C2H2CSHC2HCNH6CNCHCHCHFeCHFeSCHC2H3C2SH5CHCH2CH3C2H10FeSHN2H2C2H2FeH9SH3SC3H2SCHFeH3CSHCHCHCS3HSHC2HC3H2C2H2CH2CH5CH2NSHSC2HCH2CH3NHC3HCHC3HCH2CFeHSHNHSCH2CSH2FeSCH5C2H3SHNHC6H4C2HC3H4C2H2CH3C3H2CH4CH3C4H2NHFeSFeHSHCH12FeCHNCH3C2HC4H4CHCHCHCH2C3H2CH2SH2S2CH10FeCHFeS2FeSFeHSH2C2HS2FeHCH2CHS2C3HFeS2NC3HC2HFeHSFeCSFeHCHS2HCHC2H5C7H5CHCHCHC2H2C2H6NHFeCHNCHS2H2CH2CHCH2C2HCH2C2H3CH4C6H4CH7C2HC3H4CSFeHCH4SHCH2C2SCHCFeNH2CH3CH2C2H3NC7SH4CSHSC2HSHCH2CSHCH2FeNC8H20FeH2SHCSH2SHCHC2HCH6CH3CH7SCHC2Fe2CH2CSH3NCH3C3SH3FeHCH3CH7C3FeS2FeSHSFe2S2HC3SCS3FeCH2FeHSHCHFeH3S2C4HC3SFeH3C6H4NCH2CH2CHCH7SCH2CH3CHNHCH6CH2CH2NHCSH2CSHCH2SFeCHCH3C3H2CH2CH2C2H2CH2CHSHSC2H5CH3CH3CHCFe2H2CHC2HCH6CH9CH2C2SH3C2H2FeHCH2NHCHCH2NCHSHC2H3CHC3H2C3H7CHC2H4CHSHFeSFeSCSHFeS2H2FeH2SHCHC3HC3FeS2FeCS2H2C2HFeCFeH2SHS2FeSNHCHFeSHSCH4SFeH2C2H2CH2SHSC2H3CSH4C2H3CHC2SC7H5CH2CH3SCHCH2CH2CHCHC2HC8H3SNH2NHCHCSHCH2SCHCH3C2N2C5HCNH6CH2CSH7CH2SH3CH8FeHFeH4SH2CH4NHCHC2H3FeHCH4CH2C2HC4HCHNCHCH2CH2CH2CFeCH2C2FeH2CH2CSH2C2H2C3H9FeCH3C3H2SCHCHCSH5CHCHC2FeCHC4HCSH2CH3SH4CH4C2H4NHCH2SHC2HNH9CH4C3SCH3CHC2HCH2CHSFeH4CH7C2NHC3SCNCH2CHSH2C3H7SC2H4SFeC4HCH3S2CHNH2CHCFeHSC3H4SNHCH2CHNHCHFeCH2C3HFeHCHC2H2SH6C2HCH6C3H2CH3CH3FeC2HC3HCH2CSC2HCH2SHCH2C3SH2C3H2CSH2FeCNSCHC2HSHS2CH2Fe2S2FeSFeCSFeHFeHS2HCH3C8HCH3CHCHC3HCHCH3C2H4C2H5C6H4CNFeCHC3H2CH4CH2SH2CHSHCH2CHC3HCHC2H2FeH3CH2CH5CSHSH6CH4SCH3CSC2H3CSH3NCH5NH4CH2C2NFeC2SCH4CH4FeCH3CHCH2SH5CHFeC2SH3CSH2CH4CNCH3C2H8CSHCH2C2H2FeCSFeSCH2FeSHSNH4C2HC3HCSCHSH2CHCHCHC5SHC2H7CH4CHC2H2SC2HCH3CSH3CHC2HCH7CH2SH6CNH2CHC2SHSCHSH2SHFeSCH2CHS2CSFeHSFeHSC3S3CH2C2H4FeC2HSC3H14C2HCH5C3HCH2CHC6H4CHC4HCH3FeC6H3SNC8H20NC8H10CH12CSHCHCFeCHSH4CFeH3SFeCH2CHFeC2H3NC2H2FeC2H2CH3SHCSHSCHCHCH4CHCHNC4H2FeNH2C2S2CHCH5CH2FeCH2NHCH2CHSHSC2HC2H2FeH2CH4CSCNC2H4C2FeH2SHCHCH2CH2CH4SCH3CHCH2CHCH2SHCH2CH6S2CHSH3SFeSFeS2FeH2CH2S2C3SFe2CH2NFeH2CH2C2H2C2H4FeH3CH2SH4CHCSHC2HC7H4CHC2HFeHCHSHC2HFeH2FeSCSHC2H5SCH4NC5HC4H8CHNCSCSH3CFeH2CH4C2H3SH5CHC3HSH2C2HC5HSH3FeC2H8FeCHCH2NSH5C2HCHSCHSH3SCH10CH4SCH2CHSH4C2HFeNC2HCNHSHC2HCS2FeH2FeSHFeSH2SH2SHSHFeSFeNSHCHS2FeHNC6H5CNSC3HC2H3CH4SHSH2FeH2C6H4C2H2CHC2H2SHC2H2C2FeSH7CH3SH3NHFeHCH2CNH3FeCH4SHC2HCH3CHNC8H14CHFeH9FeH4CH2C2H4CFeHCH2C2SHSH2C4H3CHSHSHCHFeCHC2H2C4SHCH7C2SH6CHSCHCHCHCHCH3C2H2CH3C2H2CHC2H2C2H2CH6FeNH3
_chemical_formula_sum              "S384 C1344 H2304 Fe192 N96"
_cell_length_a       63.0327
_cell_length_b       63.6756
_cell_length_c       65.4556
_cell_angle_alpha    75.7572
_cell_angle_beta     80.2234
_cell_angle_gamma    79.0418

_space_group_name_H-M_alt    "P 1"
_space_group_IT_number       1

loop_
  _space_group_symop_operation_xyz
  'x, y, z'

loop_
  _atom_site_type_symbol
  _atom_site_label
  _atom_site_symmetry_multiplicity
  _atom_site_fract_x
  _atom_site_fract_y
  _atom_site_fract_z
  _atom_site_occupancy
  S   S1        1.0  0.40594  0.12129  0.22125  1.0000
  S   S2        1.0  0.37416  0.07394  0.21981  1.0000
  C   C1        1.0  0.44202  0.01408  0.04341  1.0000
  H   H1        1.0  0.21272  0.40998  0.04046  1.0000
  H   H2        1.0  0.17271  0.43578  0.05387  1.0000
  C   C2        1.0  0.14377  0.46884  0.09589  1.0000
  C   C3        1.0  0.40206  0.01108  0.19726  1.0000
  S   S3        1.0  0.45524  0.13160  0.17582  1.0000
  H   H3        1.0  0.03952  0.47582  0.18188  1.0000
  C   C4        1.0  0.46447  0.01137  0.03675  1.0000
  Fe  Fe1       1.0  0.47072  0.07919  0.08340  1.0000
  S   S4        1.0  0.43568  0.07611  0.08536  1.0000
  H   H4        1.0  0.48449  0.06092  0.15833  1.0000
  Fe  Fe2       1.0  0.47423  0.09935  0.03642  1.0000
  S   S5        1.0  0.43921  0.09825  0.03434  1.0000
  H   H5        1.0  0.01644  0.40599  0.23059  1.0000
  Fe  Fe3       1.0  0.43226  0.10994  0.06475  1.0000
  S   S6        1.0  0.40452  0.13474  0.07501  1.0000
  Fe  Fe4       1.0  0.44538  0.06442  0.05501  1.0000
  S   S7        1.0  0.42796  0.03759  0.05218  1.0000
  S   S8        1.0  0.46671  0.11407  0.06510  1.0000
  S   S9        1.0  0.01421  0.45269  0.05968  1.0000
  H   H6        1.0  0.39522  0.06987  0.11687  1.0000
  H   H7        1.0  0.04651  0.45296  0.20235  1.0000
  H   H8        1.0  0.27192  0.40015  0.05351  1.0000
  C   C5        1.0  0.20762  0.37219  0.09350  1.0000
  C   C6        1.0  0.46348  0.22783  0.00140  1.0000
  H   H9        1.0  0.35568  0.04857  0.19829  1.0000
  H   H10       1.0  0.39987  0.01188  0.10332  1.0000
  N   N1        1.0  0.30846  0.24847  0.01155  1.0000
  S   S10       1.0  0.32860  0.17276  0.01781  1.0000
  H   H11       1.0  0.26560  0.42108  0.99604  1.0000
  H   H12       1.0  0.42384  0.02427  0.10172  1.0000
  H   H13       1.0  0.06315  0.45673  0.15472  1.0000
  C   C7        1.0  0.27576  0.38838  0.06838  1.0000
  S   S11       1.0  0.24216  0.47457  0.06838  1.0000
  C   C8        1.0  0.33533  0.47586  0.00759  1.0000
  H   H14       1.0  0.37276  0.08966  0.10903  1.0000
  H   H15       1.0  0.25742  0.42146  0.08727  1.0000
  H   H16       1.0  0.04275  0.40498  0.12323  1.0000
  H   H17       1.0  0.40455  0.18846  0.02867  1.0000
  H   H18       1.0  0.02221  0.38110  0.08269  1.0000
  S   S12       1.0  0.12720  0.43382  0.05853  1.0000
  C   C9        1.0  0.03651  0.43837  0.17093  1.0000
  H   H19       1.0  0.37145  0.07471  0.13589  1.0000
  C   C10       1.0  0.30371  0.43154  0.03185  1.0000
  C   C11       1.0  0.38397  0.14518  0.05845  1.0000
  C   C12       1.0  0.38701  0.14310  0.03728  1.0000
  C   C13       1.0  0.37018  0.15187  0.02452  1.0000
  C   C14       1.0  0.35018  0.16224  0.03309  1.0000
  C   C15       1.0  0.34726  0.16436  0.05418  1.0000
  C   C16       1.0  0.36419  0.15607  0.06674  1.0000
  H   H20       1.0  0.40224  0.13477  0.03076  1.0000
  H   H21       1.0  0.28721  0.29485  0.01140  1.0000
  H   H22       1.0  0.33187  0.17237  0.06085  1.0000
  H   H23       1.0  0.36180  0.15778  0.08305  1.0000
  S   S13       1.0  0.00613  0.39747  0.15470  1.0000
  H   H24       1.0  0.05108  0.44510  0.13769  1.0000
  C   C17       1.0  0.29793  0.41363  0.00519  1.0000
  H   H25       1.0  0.43888  0.06967  0.15623  1.0000
  H   H26       1.0  0.47365  0.02424  0.03628  1.0000
  H   H27       1.0  0.23886  0.42541  0.05972  1.0000
  H   H28       1.0  0.28534  0.25597  0.03817  1.0000
  C   C18       1.0  0.41168  0.01490  0.11262  1.0000
  C   C19       1.0  0.28207  0.44233  0.03244  1.0000
  C   C20       1.0  0.38109  0.02170  0.19333  1.0000
  H   H29       1.0  0.03740  0.46918  0.14570  1.0000
  C   C21       1.0  0.46754  0.11468  0.15817  1.0000
  C   C22       1.0  0.46898  0.12300  0.13616  1.0000
  C   C23       1.0  0.01194  0.43829  0.08643  1.0000
  C   C24       1.0  0.48051  0.08611  0.13018  1.0000
  H   H30       1.0  0.46598  0.18168  0.01941  1.0000
  C   C25       1.0  0.47428  0.09237  0.16599  1.0000
  H   H31       1.0  0.02499  0.46096  0.99785  1.0000
  H   H32       1.0  0.19568  0.36490  0.10661  1.0000
  H   H33       1.0  0.20834  0.46651  0.99079  1.0000
  C   C26       1.0  0.44131  0.22144  0.00027  1.0000
  C   C27       1.0  0.00228  0.46488  0.17494  1.0000
  C   C28       1.0  0.17650  0.45644  0.07413  1.0000
  H   H34       1.0  0.17131  0.48735  0.01416  1.0000
  H   H35       1.0  0.02986  0.42847  0.22960  1.0000
  H   H36       1.0  0.31957  0.21564  0.02933  1.0000
  H   H37       1.0  0.37251  0.15019  0.00821  1.0000
  H   H38       1.0  0.39827  0.14582  0.15006  1.0000
  C   C29       1.0  0.16622  0.46818  0.08946  1.0000
  H   H39       1.0  0.04030  0.40982  0.21196  1.0000
  S   S14       1.0  0.43658  0.07725  0.20862  1.0000
  H   H40       1.0  0.37210  0.01560  0.18392  1.0000
  C   C30       1.0  0.03044  0.42657  0.09545  1.0000
  C   C31       1.0  0.14196  0.44673  0.07096  1.0000
  H   H41       1.0  0.40490  0.14073  0.12331  1.0000
  C   C32       1.0  0.13153  0.45860  0.08623  1.0000
  H   H42       1.0  0.05000  0.42778  0.17927  1.0000
  H   H43       1.0  0.35246  0.22634  0.00367  1.0000
  H   H44       1.0  0.42665  0.06643  0.13439  1.0000
  C   C33       1.0  0.01830  0.47592  0.21103  1.0000
  C   C34       1.0  0.37179  0.04027  0.20150  1.0000
  C   C35       1.0  0.01042  0.43274  0.20333  1.0000
  C   C36       1.0  0.27574  0.22870  0.02971  1.0000
  H   H45       1.0  0.34285  0.10717  0.17510  1.0000
  H   H46       1.0  0.30869  0.30532  0.99244  1.0000
  C   C37       1.0  0.04762  0.45332  0.15130  1.0000
  S   S15       1.0  0.45442  0.10481  0.23729  1.0000
  H   H47       1.0  0.35383  0.24682  0.01809  1.0000
  H   H48       1.0  0.41289  0.99941  0.04884  1.0000
  H   H49       1.0  0.30907  0.22165  0.99599  1.0000
  H   H50       1.0  0.42614  0.04627  0.15899  1.0000
  S   S16       1.0  0.33988  0.40708  0.01493  1.0000
  H   H51       1.0  0.35811  0.08151  0.17190  1.0000
  Fe  Fe5       1.0  0.44033  0.11199  0.20662  1.0000
  H   H52       1.0  0.00638  0.48932  0.20317  1.0000
  H   H53       1.0  0.28468  0.39591  0.07723  1.0000
  C   C38       1.0  0.47517  0.10867  0.12218  1.0000
  H   H54       1.0  0.40465  0.07586  0.17785  1.0000
  S   S17       1.0  0.24184  0.45368  0.01820  1.0000
  C   C39       1.0  0.40087  0.19961  0.01336  1.0000
  H   H55       1.0  0.27401  0.26262  0.01423  1.0000
  H   H56       1.0  0.32024  0.23690  0.04233  1.0000
  C   C40       1.0  0.44823  0.18287  0.01906  1.0000
  H   H57       1.0  0.18150  0.45028  0.01697  1.0000
  C   C41       1.0  0.32313  0.23267  0.02643  1.0000
  N   N2        1.0  0.44164  0.19805  0.99875  1.0000
  C   C42       1.0  0.44331  0.15908  0.02385  1.0000
  H   H58       1.0  0.37145  0.12704  0.15375  1.0000
  H   H59       1.0  0.21926  0.35830  0.08881  1.0000
  S   S18       1.0  0.48636  0.06728  0.11354  1.0000
  C   C43       1.0  0.43030  0.99729  0.04395  1.0000
  H   H60       1.0  0.27521  0.22198  0.01573  1.0000
  H   H61       1.0  0.02920  0.42654  0.16539  1.0000
  H   H62       1.0  0.42543  0.14389  0.13748  1.0000
  H   H63       1.0  0.44044  0.18982  0.03307  1.0000
  C   C44       1.0  0.41353  0.01876  0.20965  1.0000
  H   H64       1.0  0.41323  0.04308  0.22734  1.0000
  C   C45       1.0  0.17049  0.42360  0.00875  1.0000
  H   H65       1.0  0.04633  0.42654  0.08609  1.0000
  H   H66       1.0  0.24131  0.40379  0.03602  1.0000
  H   H67       1.0  0.46445  0.14039  0.12995  1.0000
  H   H68       1.0  0.37974  0.10960  0.17778  1.0000
  C   C46       1.0  0.30002  0.48707  0.99309  1.0000
  H   H69       1.0  0.38291  0.11697  0.12035  1.0000
  H   H70       1.0  0.45868  0.14730  0.02496  1.0000
  H   H71       1.0  0.43493  0.15511  0.01215  1.0000
  H   H72       1.0  0.43324  0.15539  0.03955  1.0000
  N   N3        1.0  0.23666  0.39801  0.08665  1.0000
  C   C47       1.0  0.24519  0.41198  0.09811  1.0000
  C   C48       1.0  0.25521  0.38026  0.08208  1.0000
  C   C49       1.0  0.21852  0.38773  0.10157  1.0000
  C   C50       1.0  0.22835  0.41254  0.06676  1.0000
  C   C51       1.0  0.22806  0.42902  0.10761  1.0000
  C   C52       1.0  0.00786  0.41385  0.12869  1.0000
  C   C53       1.0  0.22715  0.40141  0.04852  1.0000
  H   H73       1.0  0.25394  0.40153  0.11142  1.0000
  H   H74       1.0  0.25036  0.36891  0.07399  1.0000
  H   H75       1.0  0.26038  0.36963  0.09723  1.0000
  H   H76       1.0  0.22447  0.37850  0.11688  1.0000
  H   H77       1.0  0.20486  0.40054  0.10564  1.0000
  H   H78       1.0  0.21184  0.42147  0.07074  1.0000
  H   H79       1.0  0.21833  0.42117  0.12231  1.0000
  H   H80       1.0  0.23651  0.44063  0.11223  1.0000
  H   H81       1.0  0.21701  0.43888  0.09611  1.0000
  H   H82       1.0  0.40887  0.10092  0.11618  1.0000
  H   H83       1.0  0.30394  0.40274  0.99451  1.0000
  H   H84       1.0  0.27628  0.45371  0.04267  1.0000
  H   H85       1.0  0.22560  0.38386  0.05327  1.0000
  S   S19       1.0  0.07599  0.44448  0.02906  1.0000
  H   H86       1.0  0.31435  0.43443  0.04189  1.0000
  C   C54       1.0  0.16454  0.44521  0.06537  1.0000
  C   C55       1.0  0.02838  0.41434  0.11648  1.0000
  S   S20       1.0  0.48104  0.06438  0.05471  1.0000
  H   H87       1.0  0.47435  0.08598  0.18283  1.0000
  H   H88       1.0  0.00794  0.48012  0.16499  1.0000
  C   C56       1.0  0.26841  0.43901  0.01913  1.0000
  H   H89       1.0  0.28720  0.37423  0.06379  1.0000
  C   C57       1.0  0.17084  0.44842  0.00578  1.0000
  H   H90       1.0  0.34914  0.10210  0.14901  1.0000
  N   N4        1.0  0.39647  0.09941  0.14926  1.0000
  C   C58       1.0  0.41455  0.11208  0.14892  1.0000
  C   C59       1.0  0.40319  0.07616  0.16106  1.0000
  C   C60       1.0  0.37635  0.10960  0.16158  1.0000
  C   C61       1.0  0.39295  0.10100  0.12664  1.0000
  C   C62       1.0  0.41017  0.13699  0.13931  1.0000
  C   C63       1.0  0.42496  0.06414  0.15188  1.0000
  C   C64       1.0  0.35566  0.09917  0.16434  1.0000
  C   C65       1.0  0.38250  0.08257  0.12246  1.0000
  H   H91       1.0  0.41876  0.10997  0.16526  1.0000
  H   H92       1.0  0.42973  0.10569  0.13948  1.0000
  H   H93       1.0  0.39078  0.06564  0.16221  1.0000
  H   H94       1.0  0.01443  0.35454  0.09160  1.0000
  C   C66       1.0  0.31193  0.41782  0.01762  1.0000
  H   H95       1.0  0.00959  0.46521  0.22452  1.0000
  C   C67       1.0  0.38376  0.04856  0.21301  1.0000
  H   H96       1.0  0.19806  0.38130  0.08041  1.0000
  H   H97       1.0  0.41809  0.18089  0.99096  1.0000
  C   C68       1.0  0.03232  0.46327  0.19489  1.0000
  C   C69       1.0  0.47489  0.01960  0.18526  1.0000
  H   H98       1.0  0.15367  0.42054  0.00894  1.0000
  H   H99       1.0  0.28449  0.21599  0.04159  1.0000
  H   H100      1.0  0.33564  0.47363  0.04121  1.0000
  C   C70       1.0  0.01054  0.37147  0.09414  1.0000
  Fe  Fe6       1.0  0.23503  0.48158  0.03488  1.0000
  H   H101      1.0  0.17487  0.41504  0.02478  1.0000
  H   H102      1.0  0.18192  0.41547  0.99726  1.0000
  C   C71       1.0  0.48064  0.07818  0.15205  1.0000
  H   H103      1.0  0.00464  0.42102  0.19624  1.0000
  C   C72       1.0  0.00832  0.47057  0.99911  1.0000
  C   C73       1.0  0.28570  0.25013  0.02338  1.0000
  H   H104      1.0  0.19371  0.45616  0.06894  1.0000
  S   S21       1.0  0.06754  0.46959  0.06884  1.0000
  H   H105      1.0  0.39730  0.21684  0.01515  1.0000
  C   C74       1.0  0.27615  0.42398  0.00615  1.0000
  H   H106      1.0  0.32185  0.27366  0.02014  1.0000
  H   H107      1.0  0.33071  0.27059  0.99369  1.0000
  C   C75       1.0  0.34784  0.23126  0.01908  1.0000
  Fe  Fe7       1.0  0.40341  0.08578  0.22584  1.0000
  H   H108      1.0  0.99750  0.34123  0.12837  1.0000
  C   C76       1.0  0.41909  0.19658  0.99487  1.0000
  H   H109      1.0  0.11411  0.45961  0.09080  1.0000
  H   H110      1.0  0.47568  0.11513  0.10530  1.0000
  Fe  Fe8       1.0  0.20873  0.49333  0.07466  1.0000
  N   N5        1.0  0.02041  0.44984  0.18602  1.0000
  C   C77       1.0  0.02541  0.41865  0.21960  1.0000
  Fe  Fe9       1.0  0.09631  0.45519  0.04855  1.0000
  H   H111      1.0  0.38570  0.19554  0.00991  1.0000
  S   S22       1.0  0.18137  0.48279  0.09970  1.0000
  H   H112      1.0  0.00297  0.45132  0.14692  1.0000
  H   H113      1.0  0.40250  0.02557  0.12331  1.0000
  H   H114      1.0  0.46516  0.03005  0.19595  1.0000
  H   H115      1.0  0.01370  0.37192  0.11020  1.0000
  C   C78       1.0  0.31625  0.27048  0.00607  1.0000
  H   H116      1.0  0.29654  0.46998  0.99793  1.0000
  Fe  Fe10      1.0  0.07847  0.47739  0.00720  1.0000
  C   C79       1.0  0.40432  0.03739  0.21762  1.0000
  H   H117      1.0  0.43040  0.22515  0.01461  1.0000
  H   H118      1.0  0.15397  0.45548  0.01168  1.0000
  H   H119      1.0  0.99797  0.44425  0.02383  1.0000
  Fe  Fe11      1.0  0.04750  0.46221  0.04709  1.0000
  H   H120      1.0  0.46066  0.24418  0.00542  1.0000
  H   H121      1.0  0.99561  0.44023  0.21254  1.0000
  C   C80       1.0  0.32489  0.48200  0.02885  1.0000
  H   H122      1.0  0.13575  0.47768  0.10794  1.0000
  H   H123      1.0  0.33632  0.45771  0.01049  1.0000
  H   H124      1.0  0.25866  0.23219  0.03723  1.0000
  H   H125      1.0  0.00768  0.48266  0.11798  1.0000
  H   H126      1.0  0.35650  0.21843  0.03098  1.0000
  H   H127      1.0  0.21440  0.42668  0.99643  1.0000
  H   H128      1.0  0.47014  0.02669  0.16917  1.0000
  S   S23       1.0  0.10052  0.48705  0.02566  1.0000
  H   H129      1.0  0.42972  0.01066  0.21273  1.0000
  H   H130      1.0  0.47246  0.21617  0.01377  1.0000
  H   H131      1.0  0.46996  0.00311  0.19121  1.0000
  C   C81       1.0  0.31018  0.23950  0.99193  1.0000
  H   H132      1.0  0.43937  0.28465  0.99396  1.0000
  H   H133      1.0  0.00839  0.48244  0.00892  1.0000
  C   C82       1.0  0.00193  0.48902  0.10218  1.0000
  C   C83       1.0  0.29983  0.29100  0.99823  1.0000
  H   H134      1.0  0.01459  0.48182  0.09079  1.0000
  H   H135      1.0  0.02899  0.48381  0.21770  1.0000
  H   H136      1.0  0.35251  0.47890  0.00507  1.0000
  H   H137      1.0  0.30897  0.47621  0.03465  1.0000
  H   H138      1.0  0.43379  0.99862  0.13508  1.0000
  H   H139      1.0  0.44665  0.99907  0.08557  1.0000
  H   H140      1.0  0.46196  0.99550  0.10645  1.0000
  H   H141      1.0  0.06609  0.49385  0.12668  1.0000
  C   C84       1.0  0.44521  0.06098  0.35363  1.0000
  H   H142      1.0  0.03604  0.20704  0.40093  1.0000
  H   H143      1.0  0.24754  0.04017  0.38355  1.0000
  Fe  Fe12      1.0  0.05601  0.27286  0.44729  1.0000
  S   S24       1.0  0.08795  0.25440  0.45742  1.0000
  S   S25       1.0  0.05465  0.30284  0.42063  1.0000
  Fe  Fe13      1.0  0.07399  0.22426  0.45792  1.0000
  S   S26       1.0  0.09097  0.19604  0.44319  1.0000
  C   C85       1.0  0.05776  0.26457  0.38510  1.0000
  H   H144      1.0  0.21416  0.07894  0.27681  1.0000
  S   S27       1.0  0.04350  0.24300  0.44520  1.0000
  C   C86       1.0  0.43752  0.07972  0.36546  1.0000
  Fe  Fe14      1.0  0.06487  0.06494  0.43914  1.0000
  S   S28       1.0  0.07705  0.09539  0.41944  1.0000
  H   H145      1.0  0.34079  0.12678  0.25051  1.0000
  Fe  Fe15      1.0  0.03049  0.06732  0.41079  1.0000
  S   S29       1.0  0.03999  0.09799  0.38858  1.0000
  C   C87       1.0  0.30082  0.07245  0.44269  1.0000
  Fe  Fe16      1.0  0.07432  0.08141  0.39188  1.0000
  S   S30       1.0  0.10038  0.07868  0.36427  1.0000
  Fe  Fe17      1.0  0.04156  0.10893  0.41828  1.0000
  C   C88       1.0  0.47306  0.06101  0.28459  1.0000
  S   S31       1.0  0.06474  0.04985  0.41176  1.0000
  S   S32       1.0  0.02943  0.07944  0.44032  1.0000
  H   H146      1.0  0.46187  0.06295  0.34534  1.0000
  S   S33       1.0  0.32443  0.99745  0.42872  1.0000
  H   H147      1.0  0.05865  0.26343  0.40219  1.0000
  H   H148      1.0  0.37373  0.07259  0.28892  1.0000
  C   C89       1.0  0.05047  0.18439  0.44652  1.0000
  H   H149      1.0  0.27393  0.02786  0.37282  1.0000
  H   H150      1.0  0.02503  0.29832  0.38441  1.0000
  S   S34       1.0  0.40903  0.12959  0.27808  1.0000
  H   H151      1.0  0.22557  0.01579  0.44809  1.0000
  H   H152      1.0  0.15495  0.04135  0.41138  1.0000
  C   C90       1.0  0.40349  0.09181  0.30872  1.0000
  S   S35       1.0  0.41446  0.07567  0.25791  1.0000
  C   C91       1.0  0.12658  0.99524  0.44133  1.0000
  H   H153      1.0  0.07022  0.28553  0.35481  1.0000
  H   H154      1.0  0.01906  0.17456  0.44929  1.0000
  H   H155      1.0  0.31066  0.11381  0.32804  1.0000
  C   C92       1.0  0.33586  0.00841  0.44577  1.0000
  C   C93       1.0  0.35517  0.03560  0.45149  1.0000
  H   H156      1.0  0.37227  0.12404  0.35065  1.0000
  C   C94       1.0  0.27922  0.09021  0.48286  1.0000
  C   C95       1.0  0.15909  0.08288  0.32883  1.0000
  H   H157      1.0  0.06922  0.25018  0.38123  1.0000
  C   C96       1.0  0.15400  0.02338  0.38777  1.0000
  H   H158      1.0  0.42075  0.01696  0.38081  1.0000
  C   C97       1.0  0.12107  0.05749  0.37319  1.0000
  C   C98       1.0  0.13075  0.05786  0.39076  1.0000
  C   C99       1.0  0.14400  0.02275  0.37047  1.0000
  C   C100      1.0  0.12778  0.03999  0.36295  1.0000
  H   H159      1.0  0.12555  0.07133  0.39873  1.0000
  C   C101      1.0  0.15189  0.04032  0.46914  1.0000
  H   H160      1.0  0.12000  0.03949  0.34959  1.0000
  H   H161      1.0  0.15333  0.09461  0.33942  1.0000
  H   H162      1.0  0.28639  0.03982  0.28904  1.0000
  H   H163      1.0  0.11217  0.06544  0.43789  1.0000
  H   H164      1.0  0.35136  0.03647  0.24933  1.0000
  Fe  Fe18      1.0  0.36074  0.04630  0.36723  1.0000
  N   N6        1.0  0.19010  0.04994  0.32449  1.0000
  H   H165      1.0  0.05648  0.22097  0.40478  1.0000
  H   H166      1.0  0.39762  0.04849  0.40029  1.0000
  C   C102      1.0  0.25962  0.02491  0.38506  1.0000
  C   C103      1.0  0.07237  0.18145  0.43768  1.0000
  C   C104      1.0  0.28454  0.00396  0.33715  1.0000
  H   H167      1.0  0.25762  0.02012  0.28522  1.0000
  C   C105      1.0  0.04317  0.15711  0.42942  1.0000
  C   C106      1.0  0.06503  0.15425  0.42049  1.0000
  C   C107      1.0  0.07959  0.16643  0.42458  1.0000
  H   H168      1.0  0.17152  0.02319  0.29141  1.0000
  H   H169      1.0  0.21691  0.02659  0.40152  1.0000
  H   H170      1.0  0.07067  0.14293  0.41013  1.0000
  H   H171      1.0  0.09647  0.16422  0.41758  1.0000
  C   C108      1.0  0.02854  0.31830  0.41929  1.0000
  C   C109      1.0  0.02548  0.33744  0.40337  1.0000
  C   C110      1.0  0.35380  0.02596  0.47326  1.0000
  H   H172      1.0  0.11564  0.00927  0.44662  1.0000
  C   C111      1.0  0.18473  0.02771  0.29798  1.0000
  H   H173      1.0  0.29898  0.06118  0.43279  1.0000
  H   H174      1.0  0.03932  0.34295  0.39253  1.0000
  C   C112      1.0  0.11028  0.12502  0.46728  1.0000
  H   H175      1.0  0.28420  0.00884  0.40559  1.0000
  C   C113      1.0  0.46167  0.03301  0.38204  1.0000
  C   C114      1.0  0.00893  0.40833  0.43846  1.0000
  H   H176      1.0  0.15167  0.06358  0.43906  1.0000
  H   H177      1.0  0.38186  0.02550  0.26581  1.0000
  H   H178      1.0  0.38777  0.14402  0.31544  1.0000
  C   C115      1.0  0.40075  0.11477  0.30375  1.0000
  C   C116      1.0  0.01442  0.40390  0.41582  1.0000
  H   H179      1.0  0.99795  0.09842  0.37562  1.0000
  C   C117      1.0  0.20024  0.02991  0.33940  1.0000
  H   H180      1.0  0.23548  0.03816  0.42931  1.0000
  H   H181      1.0  0.29378  0.08184  0.29034  1.0000
  H   H182      1.0  0.27898  0.10236  0.46741  1.0000
  C   C118      1.0  0.20819  0.05944  0.30893  1.0000
  S   S36       1.0  0.03928  0.27298  0.48023  1.0000
  H   H183      1.0  0.41006  0.04345  0.36689  1.0000
  C   C119      1.0  0.04435  0.22160  0.39406  1.0000
  C   C120      1.0  0.36263  0.06502  0.28257  1.0000
  H   H184      1.0  0.21949  0.04656  0.30187  1.0000
  H   H185      1.0  0.33334  0.07332  0.46831  1.0000
  H   H186      1.0  0.17093  0.05718  0.35358  1.0000
  H   H187      1.0  0.99546  0.04813  0.44837  1.0000
  C   C121      1.0  0.26478  0.99839  0.44428  1.0000
  H   H188      1.0  0.00224  0.36406  0.38890  1.0000
  H   H189      1.0  0.41282  0.08271  0.29748  1.0000
  H   H190      1.0  0.42142  0.02689  0.33837  1.0000
  C   C122      1.0  0.29832  0.06032  0.46632  1.0000
  N   N7        1.0  0.03468  0.26425  0.38175  1.0000
  C   C123      1.0  0.14738  0.04097  0.39786  1.0000
  H   H191      1.0  0.01277  0.29615  0.44526  1.0000
  H   H192      1.0  0.99877  0.99494  0.44697  1.0000
  H   H193      1.0  0.29133  0.09175  0.31441  1.0000
  C   C124      1.0  0.00453  0.34937  0.40129  1.0000
  C   C125      1.0  0.35012  0.11367  0.28291  1.0000
  C   C126      1.0  0.33972  0.07861  0.28055  1.0000
  H   H194      1.0  0.00241  0.22051  0.45142  1.0000
  H   H195      1.0  0.13786  0.09973  0.45992  1.0000
  H   H196      1.0  0.28214  0.02615  0.44185  1.0000
  H   H197      1.0  0.43455  0.06464  0.34098  1.0000
  H   H198      1.0  0.09369  0.99534  0.47373  1.0000
  H   H199      1.0  0.01431  0.36326  0.44758  1.0000
  C   C127      1.0  0.31969  0.08444  0.47521  1.0000
  H   H200      1.0  0.05908  0.30041  0.37551  1.0000
  H   H201      1.0  0.47779  0.07758  0.30813  1.0000
  C   C128      1.0  0.01061  0.31109  0.43316  1.0000
  C   C129      1.0  0.38978  0.12628  0.31909  1.0000
  H   H202      1.0  0.44432  0.01188  0.32530  1.0000
  H   H203      1.0  0.31100  0.04548  0.46776  1.0000
  H   H204      1.0  0.27893  0.00877  0.46752  1.0000
  H   H205      1.0  0.31728  0.07712  0.43721  1.0000
  H   H206      1.0  0.41636  0.02676  0.41262  1.0000
  H   H207      1.0  0.36581  0.10740  0.28938  1.0000
  H   H208      1.0  0.14487  0.07487  0.32890  1.0000
  H   H209      1.0  0.00253  0.43726  0.46655  1.0000
  H   H210      1.0  0.01076  0.41928  0.40369  1.0000
  C   C130      1.0  0.02729  0.24258  0.39320  1.0000
  H   H211      1.0  0.16260  0.03354  0.32583  1.0000
  C   C131      1.0  0.34074  0.02556  0.26058  1.0000
  C   C132      1.0  0.03589  0.17235  0.44227  1.0000
  S   S37       1.0  0.02483  0.14159  0.42492  1.0000
  H   H212      1.0  0.32943  0.09778  0.34553  1.0000
  S   S38       1.0  0.17453  0.00235  0.39747  1.0000
  H   H213      1.0  0.00559  0.39152  0.41327  1.0000
  H   H214      1.0  0.39588  0.06289  0.33186  1.0000
  C   C133      1.0  0.38094  0.11499  0.33896  1.0000
  H   H215      1.0  0.23136  0.03846  0.34357  1.0000
  C   C134      1.0  0.26734  0.01813  0.40716  1.0000
  H   H216      1.0  0.18738  0.02172  0.35055  1.0000
  H   H217      1.0  0.19417  0.01210  0.30558  1.0000
  H   H218      1.0  0.21894  0.06553  0.31726  1.0000
  H   H219      1.0  0.16367  0.09255  0.31272  1.0000
  C   C135      1.0  0.39402  0.08055  0.32834  1.0000
  S   S39       1.0  0.31205  0.03507  0.32172  1.0000
  H   H220      1.0  0.45155  0.00511  0.36065  1.0000
  H   H221      1.0  0.07153  0.12263  0.46026  1.0000
  H   H222      1.0  0.01336  0.23985  0.38626  1.0000
  H   H223      1.0  0.29245  0.99909  0.35138  1.0000
  H   H224      1.0  0.47790  0.03635  0.37329  1.0000
  H   H225      1.0  0.03383  0.28650  0.35065  1.0000
  C   C136      1.0  0.31177  0.10950  0.28696  1.0000
  H   H226      1.0  0.33856  0.11895  0.32436  1.0000
  H   H227      1.0  0.44946  0.00336  0.40259  1.0000
  H   H228      1.0  0.03199  0.39716  0.41295  1.0000
  H   H229      1.0  0.32519  0.07554  0.32132  1.0000
  N   N8        1.0  0.09486  0.11173  0.48316  1.0000
  Fe  Fe19      1.0  0.37625  0.00000  0.36061  1.0000
  H   H230      1.0  0.12031  0.13240  0.47524  1.0000
  H   H231      1.0  0.43946  0.09552  0.35396  1.0000
  C   C137      1.0  0.17439  0.04248  0.31373  1.0000
  C   C138      1.0  0.41520  0.04139  0.39926  1.0000
  H   H232      1.0  0.25311  0.01180  0.38091  1.0000
  H   H233      1.0  0.25589  0.02764  0.45847  1.0000
  H   H234      1.0  0.13521  0.12453  0.43996  1.0000
  C   C139      1.0  0.21606  0.03370  0.35322  1.0000
  H   H235      1.0  0.01188  0.42540  0.43669  1.0000
  H   H236      1.0  0.19520  0.03627  0.28432  1.0000
  H   H237      1.0  0.31093  0.11431  0.26955  1.0000
  C   C140      1.0  0.38255  0.09215  0.34341  1.0000
  C   C141      1.0  0.32791  0.10612  0.32869  1.0000
  H   H238      1.0  0.36137  0.04860  0.29309  1.0000
  C   C142      1.0  0.11959  0.05518  0.45135  1.0000
  H   H239      1.0  0.30808  0.12522  0.29236  1.0000
  H   H240      1.0  0.08113  0.15860  0.48150  1.0000
  H   H241      1.0  0.33762  0.08398  0.26338  1.0000
  S   S40       1.0  0.32579  0.04146  0.37554  1.0000
  H   H242      1.0  0.05283  0.21973  0.37824  1.0000
  H   H243      1.0  0.18966  0.07547  0.34141  1.0000
  C   C143      1.0  0.14197  0.05408  0.45200  1.0000
  H   H244      1.0  0.20849  0.04573  0.36305  1.0000
  N   N9        1.0  0.33419  0.09766  0.29134  1.0000
  C   C144      1.0  0.33505  0.08898  0.31484  1.0000
  H   H245      1.0  0.27718  0.10726  0.29283  1.0000
  H   H246      1.0  0.45796  0.04399  0.39332  1.0000
  H   H247      1.0  0.02662  0.01724  0.43751  1.0000
  H   H248      1.0  0.22071  0.01789  0.36441  1.0000
  H   H249      1.0  0.02153  0.39821  0.44838  1.0000
  S   S41       1.0  0.36974  0.07860  0.36771  1.0000
  H   H250      1.0  0.32807  0.06683  0.28704  1.0000
  C   C145      1.0  0.42240  0.03463  0.37763  1.0000
  C   C146      1.0  0.29270  0.09659  0.29684  1.0000
  H   H251      1.0  0.44732  0.07859  0.37832  1.0000
  H   H252      1.0  0.06338  0.24861  0.34975  1.0000
  C   C147      1.0  0.09982  0.00225  0.40567  1.0000
  H   H253      1.0  0.36493  0.10604  0.25204  1.0000
  H   H254      1.0  0.14851  0.00890  0.36303  1.0000
  C   C148      1.0  0.34609  0.02696  0.43781  1.0000
  H   H255      1.0  0.35187  0.08123  0.31799  1.0000
  H   H256      1.0  0.39359  0.00509  0.28725  1.0000
  H   H257      1.0  0.10593  0.01743  0.40582  1.0000
  C   C149      1.0  0.07808  0.10745  0.47139  1.0000
  S   S42       1.0  0.07871  0.04492  0.46855  1.0000
  H   H258      1.0  0.18631  0.07772  0.28486  1.0000
  C   C150      1.0  0.17815  0.06601  0.33779  1.0000
  C   C151      1.0  0.26491  0.01574  0.29981  1.0000
  H   H259      1.0  0.38825  0.99615  0.24428  1.0000
  H   H260      1.0  0.04773  0.09495  0.47449  1.0000
  C   C152      1.0  0.28121  0.02685  0.30197  1.0000
  H   H261      1.0  0.34413  0.12924  0.28836  1.0000
  H   H262      1.0  0.37057  0.06263  0.26668  1.0000
  C   C153      1.0  0.35552  0.12007  0.25854  1.0000
  H   H263      1.0  0.08570  0.09572  0.46118  1.0000
  H   H264      1.0  0.02181  0.27881  0.40878  1.0000
  H   H265      1.0  0.41989  0.08079  0.37153  1.0000
  C   C154      1.0  0.20136  0.07887  0.29077  1.0000
  C   C155      1.0  0.46505  0.00926  0.39531  1.0000
  H   H266      1.0  0.01505  0.26822  0.35659  1.0000
  S   S43       1.0  0.36631  0.03196  0.33859  1.0000
  H   H267      1.0  0.26980  0.03364  0.41069  1.0000
  H   H268      1.0  0.46250  0.07488  0.27660  1.0000
  H   H269      1.0  0.42368  0.05386  0.40207  1.0000
  C   C156      1.0  0.11685  0.02949  0.48534  1.0000
  C   C157      1.0  0.12583  0.11273  0.45168  1.0000
  S   S44       1.0  0.18004  0.03839  0.46972  1.0000
  H   H270      1.0  0.20962  0.01757  0.33062  1.0000
  C   C158      1.0  0.39258  0.00970  0.26993  1.0000
  H   H271      1.0  0.36306  0.04996  0.44518  1.0000
  Fe  Fe20      1.0  0.41970  0.11051  0.25240  1.0000
  H   H272      1.0  0.28252  0.05401  0.46940  1.0000
  H   H273      1.0  0.34124  0.02689  0.27696  1.0000
  H   H274      1.0  0.03926  0.23920  0.34607  1.0000
  H   H275      1.0  0.46968  0.02278  0.34512  1.0000
  H   H276      1.0  0.47476  0.99789  0.38555  1.0000
  H   H277      1.0  0.44251  0.04075  0.32070  1.0000
  N   N10       1.0  0.44502  0.03792  0.36675  1.0000
  H   H278      1.0  0.02085  0.24264  0.41013  1.0000
  C   C159      1.0  0.03202  0.26919  0.35854  1.0000
  H   H279      1.0  0.19941  0.09469  0.29571  1.0000
  H   H280      1.0  0.04483  0.19562  0.45698  1.0000
  C   C160      1.0  0.04677  0.25389  0.34519  1.0000
  S   S45       1.0  0.47118  0.04077  0.25252  1.0000
  H   H281      1.0  0.34679  0.03489  0.42116  1.0000
  C   C161      1.0  0.06815  0.28470  0.37214  1.0000
  H   H282      1.0  0.34279  0.10076  0.48425  1.0000
  H   H283      1.0  0.33092  0.99533  0.25905  1.0000
  H   H284      1.0  0.16407  0.05642  0.30449  1.0000
  H   H285      1.0  0.00354  0.36464  0.47489  1.0000
  H   H286      1.0  0.00240  0.00334  0.41915  1.0000
  C   C162      1.0  0.10693  0.04311  0.46820  1.0000
  C   C163      1.0  0.45233  0.02237  0.35189  1.0000
  H   H287      1.0  0.47457  0.00847  0.40838  1.0000
  Fe  Fe21      1.0  0.33899  0.00877  0.39480  1.0000
  H   H288      1.0  0.08468  0.28320  0.37666  1.0000
  S   S46       1.0  0.37347  0.01498  0.38866  1.0000
  H   H289      1.0  0.04916  0.26293  0.32834  1.0000
  C   C164      1.0  0.02018  0.28196  0.39156  1.0000
  H   H290      1.0  0.31670  0.09923  0.46219  1.0000
  C   C165      1.0  0.43917  0.02600  0.33312  1.0000
  H   H291      1.0  0.26432  0.08271  0.48412  1.0000
  H   H292      1.0  0.28819  0.08709  0.43934  1.0000
  H   H293      1.0  0.36608  0.13304  0.25445  1.0000
  Fe  Fe22      1.0  0.33236  0.02423  0.34859  1.0000
  C   C166      1.0  0.48162  0.06248  0.30253  1.0000
  C   C167      1.0  0.29119  0.02089  0.32050  1.0000
  N   N11       1.0  0.29961  0.07343  0.48234  1.0000
  C   C168      1.0  0.47873  0.04184  0.27676  1.0000
  S   S47       1.0  0.00459  0.05181  0.40278  1.0000
  H   H294      1.0  0.08384  0.00057  0.43747  1.0000
  H   H295      1.0  0.11688  0.10557  0.44255  1.0000
  C   C169      1.0  0.03116  0.00061  0.43405  1.0000
  Fe  Fe23      1.0  0.44797  0.07068  0.24048  1.0000
  H   H296      1.0  0.32359  0.03208  0.25774  1.0000
  C   C170      1.0  0.99562  0.28487  0.38976  1.0000
  H   H297      1.0  0.08469  0.00734  0.39798  1.0000
  H   H298      1.0  0.10106  0.13946  0.45736  1.0000
  C   C171      1.0  0.99940  0.36390  0.45932  1.0000
  C   C172      1.0  0.13926  0.02793  0.48569  1.0000
  Fe  Fe24      1.0  0.03032  0.24088  0.47937  1.0000
  C   C173      1.0  0.33448  0.99874  0.46753  1.0000
  H   H299      1.0  0.05762  0.14550  0.48301  1.0000
  C   C174      1.0  0.05837  0.09771  0.48518  1.0000
  C   C175      1.0  0.49188  0.02380  0.28761  1.0000
  C   C176      1.0  0.23209  0.02124  0.43101  1.0000
  C   C177      1.0  0.21257  0.02319  0.41894  1.0000
  C   C178      1.0  0.27055  0.01657  0.45331  1.0000
  H   H300      1.0  0.35219  0.00373  0.23968  1.0000
  H   H301      1.0  0.19980  0.03678  0.42283  1.0000
  C   C179      1.0  0.34341  0.00748  0.48132  1.0000
  H   H302      1.0  0.11302  0.07912  0.48261  1.0000
  H   H303      1.0  0.99670  0.39850  0.48041  1.0000
  C   C180      1.0  0.34648  0.00195  0.25698  1.0000
  C   C181      1.0  0.25812  0.99885  0.31632  1.0000
  H   H304      1.0  0.35884  0.00094  0.29737  1.0000
  H   H305      1.0  0.15452  0.00084  0.45337  1.0000
  N   N12       1.0  0.25268  0.00614  0.42510  1.0000
  H   H306      1.0  0.13441  0.00270  0.42545  1.0000
  H   H307      1.0  0.40926  0.01222  0.26208  1.0000
  H   H308      1.0  0.20495  0.00805  0.42427  1.0000
  H   H309      1.0  0.04202  0.00252  0.41871  1.0000
  H   H310      1.0  0.99441  0.12032  0.40174  1.0000
  H   H311      1.0  0.01157  0.49344  0.34378  1.0000
  H   H312      1.0  0.03792  0.28752  0.64861  1.0000
  H   H313      1.0  0.43588  0.00428  0.65951  1.0000
  C   C182      1.0  0.10659  0.08996  0.49392  1.0000
  H   H314      1.0  0.44445  0.01861  0.59316  1.0000
  H   H315      1.0  0.06282  0.15399  0.50549  1.0000
  C   C183      1.0  0.43867  0.11804  0.72797  1.0000
  H   H316      1.0  0.41264  0.11235  0.57972  1.0000
  H   H317      1.0  0.00025  0.29161  0.55520  1.0000
  H   H318      1.0  0.01099  0.25727  0.51623  1.0000
  S   S48       1.0  0.04109  0.33233  0.56659  1.0000
  Fe  Fe25      1.0  0.38929  0.99907  0.56019  1.0000
  H   H319      1.0  0.04761  0.32059  0.60943  1.0000
  S   S49       1.0  0.43766  0.02033  0.71493  1.0000
  H   H320      1.0  0.30396  0.06531  0.51598  1.0000
  H   H321      1.0  0.06118  0.35278  0.61270  1.0000
  H   H322      1.0  0.09712  0.12776  0.50810  1.0000
  C   C184      1.0  0.04422  0.35050  0.61972  1.0000
  H   H323      1.0  0.44499  0.05814  0.53645  1.0000
  Fe  Fe26      1.0  0.44674  0.08075  0.64933  1.0000
  S   S50       1.0  0.45491  0.07585  0.68241  1.0000
  S   S51       1.0  0.47210  0.08599  0.62047  1.0000
  Fe  Fe27      1.0  0.39841  0.08096  0.66370  1.0000
  S   S52       1.0  0.40219  0.07602  0.69812  1.0000
  S   S53       1.0  0.36426  0.08679  0.65527  1.0000
  Fe  Fe28      1.0  0.42518  0.10052  0.68731  1.0000
  S   S54       1.0  0.42321  0.12601  0.70654  1.0000
  Fe  Fe29      1.0  0.43134  0.05181  0.69092  1.0000
  C   C185      1.0  0.00977  0.26238  0.53148  1.0000
  S   S55       1.0  0.41886  0.10792  0.65329  1.0000
  S   S56       1.0  0.42569  0.05426  0.65731  1.0000
  H   H324      1.0  0.47075  0.04797  0.54583  1.0000
  S   S57       1.0  0.00928  0.38563  0.68587  1.0000
  H   H325      1.0  0.48244  0.00896  0.61552  1.0000
  S   S58       1.0  0.17815  0.99610  0.52587  1.0000
  H   H326      1.0  0.22579  0.01039  0.59531  1.0000
  Fe  Fe30      1.0  0.00237  0.44706  0.72482  1.0000
  H   H327      1.0  0.13786  0.07607  0.50548  1.0000
  C   C186      1.0  0.99521  0.31064  0.51271  1.0000
  C   C187      1.0  0.04266  0.32584  0.62473  1.0000
  H   H328      1.0  0.37724  0.07009  0.57367  1.0000
  H   H329      1.0  0.45259  0.07909  0.56126  1.0000
  H   H330      1.0  0.38218  0.09374  0.58180  1.0000
  C   C188      1.0  0.40985  0.07894  0.56113  1.0000
  H   H331      1.0  0.45171  0.08585  0.72254  1.0000
  H   H332      1.0  0.07405  0.11450  0.51270  1.0000
  C   C189      1.0  0.45286  0.04971  0.55081  1.0000
  C   C190      1.0  0.48620  0.02521  0.60804  1.0000
  H   H333      1.0  0.03897  0.28874  0.60898  1.0000
  H   H334      1.0  0.36748  0.10240  0.72977  1.0000
  C   C191      1.0  0.46192  0.00614  0.70456  1.0000
  H   H335      1.0  0.00243  0.34764  0.61620  1.0000
  H   H336      1.0  0.41487  0.03639  0.57368  1.0000
  S   S59       1.0  0.33078  0.01887  0.54594  1.0000
  C   C192      1.0  0.01829  0.24176  0.54773  1.0000
  H   H337      1.0  0.30392  0.01655  0.59194  1.0000
  S   S60       1.0  0.22693  0.99635  0.49778  1.0000
  Fe  Fe31      1.0  0.34688  0.02841  0.56960  1.0000
  C   C193      1.0  0.25475  0.99925  0.61215  1.0000
  H   H338      1.0  0.33646  0.07721  0.50373  1.0000
  H   H339      1.0  0.02045  0.39238  0.64059  1.0000
  H   H340      1.0  0.43596  0.03407  0.61392  1.0000
  H   H341      1.0  0.10722  0.01995  0.49834  1.0000
  C   C194      1.0  0.33793  0.06092  0.60669  1.0000
  C   C195      1.0  0.35747  0.04986  0.61435  1.0000
  C   C196      1.0  0.36625  0.05772  0.62902  1.0000
  C   C197      1.0  0.35509  0.07628  0.63636  1.0000
  C   C198      1.0  0.33530  0.08675  0.62909  1.0000
  C   C199      1.0  0.32684  0.07921  0.61429  1.0000
  H   H342      1.0  0.01253  0.30508  0.50740  1.0000
  Fe  Fe32      1.0  0.99576  0.40712  0.54030  1.0000
  H   H343      1.0  0.32651  0.10094  0.63484  1.0000
  H   H344      1.0  0.31168  0.08772  0.60861  1.0000
  C   C200      1.0  0.41600  0.04404  0.58692  1.0000
  C   C201      1.0  0.25067  0.04395  0.62679  1.0000
  H   H345      1.0  0.26500  0.00364  0.53321  1.0000
  S   S61       1.0  0.36011  0.99401  0.58479  1.0000
  H   H346      1.0  0.01007  0.28753  0.61413  1.0000
  H   H347      1.0  0.14669  0.01711  0.49888  1.0000
  H   H348      1.0  0.35952  0.17367  0.73403  1.0000
  S   S62       1.0  0.00684  0.38747  0.57099  1.0000
  H   H349      1.0  0.46927  0.03951  0.63410  1.0000
  H   H350      1.0  0.22339  0.02059  0.61926  1.0000
  S   S63       1.0  0.00547  0.44066  0.52700  1.0000
  H   H351      1.0  0.02055  0.24574  0.56270  1.0000
  S   S64       1.0  0.08329  0.25599  0.51901  1.0000
  H   H352      1.0  0.00878  0.34586  0.65150  1.0000
  H   H353      1.0  0.38134  0.04935  0.63487  1.0000
  C   C202      1.0  0.43041  0.02719  0.60218  1.0000
  C   C203      1.0  0.05197  0.31162  0.55255  1.0000
  C   C204      1.0  0.06645  0.29387  0.56209  1.0000
  C   C205      1.0  0.07581  0.27701  0.55159  1.0000
  C   C206      1.0  0.07095  0.27778  0.53133  1.0000
  C   C207      1.0  0.05666  0.29571  0.52156  1.0000
  C   C208      1.0  0.04693  0.31254  0.53228  1.0000
  H   H354      1.0  0.07066  0.29322  0.57760  1.0000
  H   H355      1.0  0.08703  0.26338  0.55911  1.0000
  H   H356      1.0  0.03611  0.32648  0.52465  1.0000
  H   H357      1.0  0.29214  0.99822  0.58266  1.0000
  H   H358      1.0  0.11903  0.09100  0.52302  1.0000
  Fe  Fe33      1.0  0.36230  0.02129  0.52457  1.0000
  H   H359      1.0  0.45763  0.05478  0.58082  1.0000
  H   H360      1.0  0.42345  0.10819  0.60408  1.0000
  H   H361      1.0  0.39942  0.04615  0.59567  1.0000
  H   H362      1.0  0.03337  0.30345  0.67721  1.0000
  H   H363      1.0  0.05575  0.31709  0.63460  1.0000
  H   H364      1.0  0.26129  0.02175  0.57124  1.0000
  H   H365      1.0  0.36567  0.03527  0.60899  1.0000
  S   S65       1.0  0.36356  0.03854  0.49011  1.0000
  H   H366      1.0  0.02184  0.27366  0.52903  1.0000
  S   S66       1.0  0.37694  0.03444  0.54685  1.0000
  H   H367      1.0  0.00945  0.28889  0.65211  1.0000
  H   H368      1.0  0.27554  0.06088  0.58310  1.0000
  C   C209      1.0  0.07075  0.14680  0.49173  1.0000
  H   H369      1.0  0.37731  0.09579  0.55526  1.0000
  H   H370      1.0  0.02151  0.32818  0.68583  1.0000
  Fe  Fe34      1.0  0.19204  0.00678  0.49176  1.0000
  H   H371      1.0  0.28515  0.03462  0.52850  1.0000
  C   C210      1.0  0.47310  0.01604  0.68537  1.0000
  H   H372      1.0  0.28489  0.03856  0.61446  1.0000
  H   H373      1.0  0.34228  0.99997  0.49813  1.0000
  H   H374      1.0  0.42081  0.01418  0.61132  1.0000
  H   H375      1.0  0.44898  0.03280  0.55636  1.0000
  H   H376      1.0  0.38411  0.13952  0.73460  1.0000
  C   C211      1.0  0.27122  0.02880  0.61953  1.0000
  C   C212      1.0  0.27540  0.10388  0.49998  1.0000
  H   H377      1.0  0.13384  0.10503  0.49919  1.0000
  H   H378      1.0  0.41063  0.06967  0.54858  1.0000
  C   C213      1.0  0.02324  0.29478  0.64043  1.0000
  H   H379      1.0  0.09506  0.08048  0.50573  1.0000
  H   H380      1.0  0.24062  0.05241  0.61402  1.0000
  C   C214      1.0  0.29193  0.00495  0.59679  1.0000
  H   H381      1.0  0.03469  0.23467  0.54087  1.0000
  C   C215      1.0  0.47869  0.04249  0.61855  1.0000
  H   H382      1.0  0.28140  0.09494  0.51513  1.0000
  C   C216      1.0  0.39429  0.00961  0.67635  1.0000
  C   C217      1.0  0.02927  0.32147  0.67171  1.0000
  N   N13       1.0  0.42358  0.06593  0.57810  1.0000
  S   S67       1.0  0.02453  0.46889  0.72988  1.0000
  H   H383      1.0  0.40536  0.07690  0.60596  1.0000
  N   N14       1.0  0.02081  0.31949  0.63502  1.0000
  C   C218      1.0  0.26158  0.03149  0.58319  1.0000
  C   C219      1.0  0.44708  0.06298  0.56837  1.0000
  H   H384      1.0  0.41630  0.09433  0.55270  1.0000
  H   H385      1.0  0.46724  0.03251  0.67737  1.0000
  H   H386      1.0  0.04063  0.35733  0.63415  1.0000
  C   C220      1.0  0.38535  0.08487  0.56872  1.0000
  C   C221      1.0  0.42503  0.10179  0.58946  1.0000
  C   C222      1.0  0.42150  0.07759  0.59601  1.0000
  H   H387      1.0  0.44164  0.10362  0.58114  1.0000
  S   S68       1.0  0.32661  0.05268  0.58765  1.0000
  H   H388      1.0  0.43361  0.06933  0.60711  1.0000
  H   H389      1.0  0.03367  0.36015  0.60766  1.0000
  H   H390      1.0  0.25572  0.05738  0.63204  1.0000
  C   C223      1.0  0.48304  0.06362  0.60869  1.0000
  C   C224      1.0  0.27489  0.05011  0.57230  1.0000
  H   H391      1.0  0.29163  0.04374  0.56592  1.0000
  H   H392      1.0  0.26696  0.06055  0.55856  1.0000
  H   H393      1.0  0.24450  0.03954  0.58607  1.0000
  H   H394      1.0  0.02890  0.26576  0.62706  1.0000
  H   H395      1.0  0.24050  0.03477  0.64035  1.0000
  H   H396      1.0  0.04437  0.32880  0.66575  1.0000
  C   C225      1.0  0.08446  0.12438  0.49989  1.0000
  S   S69       1.0  0.00612  0.37867  0.52439  1.0000
  H   H397      1.0  0.00974  0.32554  0.60394  1.0000
  Fe  Fe35      1.0  0.99476  0.40923  0.70718  1.0000
  H   H398      1.0  0.99818  0.44323  0.63404  1.0000
  Fe  Fe36      1.0  0.07008  0.25226  0.49053  1.0000
  H   H399      1.0  0.99724  0.46949  0.60311  1.0000
  C   C226      1.0  0.00426  0.32947  0.61983  1.0000
  H   H400      1.0  0.01020  0.44713  0.57713  1.0000
  H   H401      1.0  0.00785  0.22883  0.55107  1.0000
  C   C227      1.0  0.00369  0.38960  0.64435  1.0000
  H   H402      1.0  0.00844  0.48372  0.53140  1.0000
  H   H403      1.0  0.27600  0.01712  0.63428  1.0000
  H   H404      1.0  0.31730  0.10250  0.50085  1.0000
  H   H405      1.0  0.05349  0.29687  0.50561  1.0000
  H   H406      1.0  0.28094  0.03326  0.50267  1.0000
  H   H407      1.0  0.00026  0.39027  0.61214  1.0000
  H   H408      1.0  0.99777  0.32174  0.66332  1.0000
  H   H409      1.0  0.42863  0.14885  0.73748  1.0000
  C   C228      1.0  0.02541  0.28385  0.62140  1.0000
  C   C229      1.0  0.12524  0.09080  0.50613  1.0000
  H   H410      1.0  0.40567  0.01267  0.68602  1.0000
  S   S70       1.0  0.99709  0.44455  0.69246  1.0000
  H   H411      1.0  0.37830  0.01884  0.68160  1.0000
  C   C230      1.0  0.49159  0.00436  0.67594  1.0000
  H   H412      1.0  0.39911  0.01671  0.65929  1.0000
  C   C231      1.0  0.01317  0.32776  0.65512  1.0000
  N   N15       1.0  0.26939  0.01650  0.60310  1.0000
  Fe  Fe37      1.0  0.01310  0.35828  0.55628  1.0000
  C   C232      1.0  0.30160  0.05741  0.50341  1.0000
  H   H413      1.0  0.99666  0.43057  0.59973  1.0000
  H   H414      1.0  0.28272  0.11915  0.49390  1.0000
  C   C233      1.0  0.23001  0.00654  0.61178  1.0000
  C   C234      1.0  0.45099  0.09715  0.73258  1.0000
  H   H415      1.0  0.25758  0.10856  0.50425  1.0000
  H   H416      1.0  0.04822  0.10900  0.49473  1.0000
  C   C235      1.0  0.32920  0.09158  0.49222  1.0000
  C   C236      1.0  0.28228  0.04476  0.51250  1.0000
  H   H417      1.0  0.26664  0.05588  0.51457  1.0000
  H   H418      1.0  0.06327  0.08150  0.49558  1.0000
  H   H419      1.0  0.31654  0.04501  0.50207  1.0000
  S   S71       1.0  0.99743  0.23203  0.49202  1.0000
  S   S72       1.0  0.05969  0.21995  0.49215  1.0000
  H   H420      1.0  0.35661  0.13520  0.73742  1.0000
  H   H421      1.0  0.39964  0.13745  0.76611  1.0000
  H   H422      1.0  0.39866  0.12778  0.90576  1.0000
  C   C237      1.0  0.46078  0.10488  0.76406  1.0000
  C   C238      1.0  0.16791  0.48490  0.98179  1.0000
  H   H423      1.0  0.36827  0.44433  0.88642  1.0000
  H   H424      1.0  0.35298  0.08887  0.75455  1.0000
  C   C239      1.0  0.35107  0.10026  0.79971  1.0000
  H   H425      1.0  0.06520  0.42305  0.78734  1.0000
  Fe  Fe38      1.0  0.34120  0.38731  0.94529  1.0000
  H   H426      1.0  0.13331  0.47872  0.92210  1.0000
  S   S73       1.0  0.31647  0.39959  0.92225  1.0000
  S   S74       1.0  0.35792  0.41121  0.95428  1.0000
  S   S75       1.0  0.37207  0.36462  0.93859  1.0000
  S   S76       1.0  0.31784  0.19618  0.95909  1.0000
  Fe  Fe39      1.0  0.37990  0.17738  0.94991  1.0000
  S   S77       1.0  0.36085  0.19618  0.92362  1.0000
  C   C240      1.0  0.30644  0.48388  0.89312  1.0000
  Fe  Fe40      1.0  0.34436  0.21684  0.94650  1.0000
  Fe  Fe41      1.0  0.33686  0.17353  0.93864  1.0000
  S   S78       1.0  0.32177  0.15784  0.91860  1.0000
  S   S79       1.0  0.35711  0.15296  0.96366  1.0000
  C   C241      1.0  0.46483  0.31608  0.92452  1.0000
  S   S80       1.0  0.06747  0.45202  0.81455  1.0000
  S   S81       1.0  0.45472  0.25671  0.92334  1.0000
  H   H427      1.0  0.35101  0.43224  0.90854  1.0000
  H   H428      1.0  0.41783  0.00067  0.81876  1.0000
  S   S82       1.0  0.33828  0.25355  0.93473  1.0000
  Fe  Fe42      1.0  0.44876  0.09400  0.86311  1.0000
  C   C242      1.0  0.46040  0.17143  0.97440  1.0000
  S   S83       1.0  0.45119  0.06338  0.88900  1.0000
  Fe  Fe43      1.0  0.41454  0.12573  0.83881  1.0000
  S   S84       1.0  0.43930  0.14268  0.81509  1.0000
  S   S85       1.0  0.37874  0.13352  0.83599  1.0000
  Fe  Fe44      1.0  0.45793  0.10902  0.81542  1.0000
  C   C243      1.0  0.05487  0.45620  0.79147  1.0000
  Fe  Fe45      1.0  0.45576  0.14099  0.84349  1.0000
  H   H429      1.0  0.48599  0.11844  0.90213  1.0000
  S   S86       1.0  0.43166  0.09208  0.83660  1.0000
  S   S87       1.0  0.42937  0.12643  0.86731  1.0000
  H   H430      1.0  0.33952  0.44541  0.86905  1.0000
  C   C244      1.0  0.46072  0.04113  0.87650  1.0000
  C   C245      1.0  0.45672  0.01979  0.88653  1.0000
  H   H431      1.0  0.35671  0.11512  0.91629  1.0000
  H   H432      1.0  0.32052  0.44299  0.89246  1.0000
  H   H433      1.0  0.36186  0.10421  0.95624  1.0000
  C   C246      1.0  0.26569  0.44910  0.92419  1.0000
  C   C247      1.0  0.43215  0.04715  0.75805  1.0000
  H   H434      1.0  0.36961  0.05571  0.92561  1.0000
  H   H435      1.0  0.99819  0.38527  0.83933  1.0000
  H   H436      1.0  0.01832  0.41721  0.87156  1.0000
  H   H437      1.0  0.43980  0.12677  0.97531  1.0000
  H   H438      1.0  0.40237  0.32950  0.91333  1.0000
  H   H439      1.0  0.09708  0.46870  0.93169  1.0000
  H   H440      1.0  0.04635  0.41555  0.86046  1.0000
  C   C248      1.0  0.33740  0.15338  0.89466  1.0000
  C   C249      1.0  0.32848  0.14421  0.88135  1.0000
  C   C250      1.0  0.34108  0.13879  0.86301  1.0000
  C   C251      1.0  0.36276  0.14232  0.85797  1.0000
  C   C252      1.0  0.37161  0.15194  0.87098  1.0000
  C   C253      1.0  0.35899  0.15736  0.88937  1.0000
  H   H441      1.0  0.31184  0.14101  0.88540  1.0000
  H   H442      1.0  0.33411  0.13142  0.85300  1.0000
  H   H443      1.0  0.38821  0.15505  0.86698  1.0000
  H   H444      1.0  0.36616  0.16404  0.89970  1.0000
  C   C254      1.0  0.42594  0.19442  0.93258  1.0000
  C   C255      1.0  0.44744  0.19522  0.92311  1.0000
  C   C256      1.0  0.45585  0.21495  0.91873  1.0000
  C   C257      1.0  0.44309  0.23355  0.92469  1.0000
  C   C258      1.0  0.42122  0.23315  0.93280  1.0000
  C   C259      1.0  0.41259  0.21373  0.93622  1.0000
  H   H445      1.0  0.47226  0.21571  0.91081  1.0000
  H   H446      1.0  0.41103  0.24774  0.93668  1.0000
  H   H447      1.0  0.39563  0.21383  0.94183  1.0000
  C   C260      1.0  0.45959  0.40517  0.93217  1.0000
  C   C261      1.0  0.49092  0.18368  0.78786  1.0000
  H   H448      1.0  0.37772  0.07535  0.74283  1.0000
  H   H449      1.0  0.46484  0.39857  0.91808  1.0000
  Fe  Fe46      1.0  0.36585  0.34766  0.97279  1.0000
  C   C262      1.0  0.34993  0.30513  0.95477  1.0000
  C   C263      1.0  0.34203  0.29217  0.94409  1.0000
  H   H450      1.0  0.34381  0.32251  0.95247  1.0000
  H   H451      1.0  0.32984  0.29966  0.93356  1.0000
  H   H452      1.0  0.41190  0.11703  0.79939  1.0000
  H   H453      1.0  0.42838  0.11220  0.96029  1.0000
  C   C264      1.0  0.34957  0.26958  0.94725  1.0000
  C   C265      1.0  0.99781  0.46180  0.82354  1.0000
  C   C266      1.0  0.44857  0.12586  0.75943  1.0000
  S   S88       1.0  0.48531  0.43603  0.96717  1.0000
  H   H454      1.0  0.42748  0.29761  0.93263  1.0000
  H   H455      1.0  0.31910  0.46562  0.92280  1.0000
  H   H456      1.0  0.25260  0.45725  0.91492  1.0000
  H   H457      1.0  0.41872  0.05252  0.92891  1.0000
  C   C267      1.0  0.41517  0.22055  0.84484  1.0000
  H   H458      1.0  0.41570  0.02554  0.78312  1.0000
  H   H459      1.0  0.43453  0.23326  0.98638  1.0000
  C   C268      1.0  0.43285  0.29504  0.97942  1.0000
  C   C269      1.0  0.47981  0.02761  0.84572  1.0000
  C   C270      1.0  0.04605  0.44237  0.76279  1.0000
  C   C271      1.0  0.05623  0.43898  0.78117  1.0000
  C   C272      1.0  0.43787  0.13254  0.74119  1.0000
  N   N16       1.0  0.13171  0.48422  0.78746  1.0000
  C   C273      1.0  0.46402  0.00240  0.87592  1.0000
  H   H460      1.0  0.01572  0.46071  0.82201  1.0000
  C   C274      1.0  0.01346  0.40087  0.79987  1.0000
  C   C275      1.0  0.29942  0.42788  0.94826  1.0000
  C   C276      1.0  0.29725  0.42077  0.93029  1.0000
  C   C277      1.0  0.28025  0.43128  0.91830  1.0000
  H   H461      1.0  0.40797  0.04790  0.90669  1.0000
  H   H462      1.0  0.31226  0.41973  0.95771  1.0000
  H   H463      1.0  0.27843  0.42572  0.90444  1.0000
  H   H464      1.0  0.03111  0.39629  0.84082  1.0000
  N   N17       1.0  0.38185  0.08659  0.91977  1.0000
  H   H465      1.0  0.46714  0.15799  0.98694  1.0000
  C   C278      1.0  0.39806  0.09564  0.92843  1.0000
  H   H466      1.0  0.37191  0.16780  0.75773  1.0000
  C   C279      1.0  0.38742  0.09060  0.89593  1.0000
  H   H467      1.0  0.47384  0.02478  0.75608  1.0000
  C   C280      1.0  0.08019  0.47579  0.93469  1.0000
  C   C281      1.0  0.36920  0.09152  0.74568  1.0000
  C   C282      1.0  0.07213  0.48162  0.95419  1.0000
  H   H468      1.0  0.47541  0.21005  0.85553  1.0000
  C   C283      1.0  0.46238  0.09076  0.75033  1.0000
  C   C284      1.0  0.06655  0.47928  0.91892  1.0000
  C   C285      1.0  0.39629  0.12090  0.92306  1.0000
  S   S89       1.0  0.02729  0.49306  0.90303  1.0000
  S   S90       1.0  0.09048  0.47950  0.97236  1.0000
  H   H469      1.0  0.38520  0.10842  0.88874  1.0000
  H   H470      1.0  0.40494  0.08456  0.89140  1.0000
  H   H471      1.0  0.16543  0.44309  0.76546  1.0000
  H   H472      1.0  0.45406  0.20662  0.96544  1.0000
  H   H473      1.0  0.44786  0.47637  0.97613  1.0000
  C   C286      1.0  0.03350  0.48017  0.76486  1.0000
  H   H474      1.0  0.14537  0.44253  0.81488  1.0000
  H   H475      1.0  0.32611  0.48174  0.95626  1.0000
  C   C287      1.0  0.38804  0.12765  0.77742  1.0000
  H   H476      1.0  0.45929  0.07989  0.96933  1.0000
  H   H477      1.0  0.14979  0.48691  0.98467  1.0000
  C   C288      1.0  0.46921  0.00898  0.76580  1.0000
  H   H478      1.0  0.16093  0.47469  0.86461  1.0000
  C   C289      1.0  0.33251  0.47351  0.97152  1.0000
  N   N18       1.0  0.40834  0.22389  0.86715  1.0000
  C   C290      1.0  0.38841  0.24130  0.86736  1.0000
  C   C291      1.0  0.42691  0.23064  0.87448  1.0000
  C   C292      1.0  0.40279  0.20300  0.88216  1.0000
  C   C293      1.0  0.38167  0.24992  0.88801  1.0000
  C   C294      1.0  0.39843  0.21218  0.83531  1.0000
  C   C295      1.0  0.41973  0.18219  0.88104  1.0000
  H   H479      1.0  0.39042  0.25571  0.85396  1.0000
  H   H480      1.0  0.37395  0.23505  0.86479  1.0000
  H   H481      1.0  0.42274  0.23205  0.89124  1.0000
  H   H482      1.0  0.44156  0.21792  0.87446  1.0000
  H   H483      1.0  0.40051  0.20480  0.89884  1.0000
  H   H484      1.0  0.38710  0.19945  0.87916  1.0000
  H   H485      1.0  0.39339  0.25989  0.89024  1.0000
  H   H486      1.0  0.36567  0.26081  0.88715  1.0000
  H   H487      1.0  0.37964  0.23659  0.90233  1.0000
  H   H488      1.0  0.39412  0.19623  0.84474  1.0000
  H   H489      1.0  0.38338  0.22434  0.83331  1.0000
  H   H490      1.0  0.42098  0.26631  0.86011  1.0000
  H   H491      1.0  0.41601  0.16931  0.89542  1.0000
  H   H492      1.0  0.43671  0.18444  0.88091  1.0000
  H   H493      1.0  0.41825  0.17518  0.86755  1.0000
  H   H494      1.0  0.44280  0.04975  0.81575  1.0000
  C   C296      1.0  0.14511  0.45553  0.96743  1.0000
  C   C297      1.0  0.40246  0.10926  0.79130  1.0000
  H   H495      1.0  0.41483  0.41342  0.96814  1.0000
  C   C298      1.0  0.45167  0.29852  0.96108  1.0000
  H   H496      1.0  0.48569  0.15180  0.80679  1.0000
  S   S91       1.0  0.47427  0.09592  0.78678  1.0000
  H   H497      1.0  0.38058  0.05960  0.94731  1.0000
  H   H498      1.0  0.37959  0.08500  0.86687  1.0000
  S   S92       1.0  0.07709  0.48404  0.85653  1.0000
  H   H499      1.0  0.46344  0.04118  0.78554  1.0000
  C   C299      1.0  0.45670  0.02658  0.79581  1.0000
  H   H500      1.0  0.02840  0.44048  0.85330  1.0000
  H   H501      1.0  0.10978  0.47247  0.75753  1.0000
  C   C300      1.0  0.15007  0.45501  0.76564  1.0000
  C   C301      1.0  0.05013  0.49033  0.95815  1.0000
  H   H502      1.0  0.42670  0.49169  0.93430  1.0000
  S   S93       1.0  0.47670  0.10856  0.84189  1.0000
  H   H503      1.0  0.17680  0.43602  0.96629  1.0000
  H   H504      1.0  0.40367  0.03060  0.93241  1.0000
  H   H505      1.0  0.44960  0.12261  0.92772  1.0000
  C   C302      1.0  0.28503  0.44567  0.95405  1.0000
  H   H506      1.0  0.41957  0.34805  0.91539  1.0000
  C   C303      1.0  0.33326  0.45272  0.88316  1.0000
  C   C304      1.0  0.45598  0.34196  0.96550  1.0000
  H   H507      1.0  0.01688  0.40548  0.78227  1.0000
  H   H508      1.0  0.44551  0.04733  0.74465  1.0000
  S   S94       1.0  0.33317  0.36814  0.97858  1.0000
  C   C305      1.0  0.20214  0.45986  0.97919  1.0000
  C   C306      1.0  0.15238  0.47273  0.77715  1.0000
  H   H509      1.0  0.36532  0.45766  0.97963  1.0000
  H   H510      1.0  0.44745  0.13698  0.76977  1.0000
  H   H511      1.0  0.35528  0.10598  0.81305  1.0000
  H   H512      1.0  0.47543  0.06120  0.84816  1.0000
  C   C307      1.0  0.47435  0.41398  0.94023  1.0000
  C   C308      1.0  0.40467  0.04784  0.92388  1.0000
  C   C309      1.0  0.45794  0.19392  0.97994  1.0000
  C   C310      1.0  0.31413  0.48281  0.91445  1.0000
  C   C311      1.0  0.37323  0.27297  0.97157  1.0000
  H   H513      1.0  0.16104  0.48477  0.76491  1.0000
  H   H514      1.0  0.45080  0.47132  0.93933  1.0000
  H   H515      1.0  0.01349  0.43452  0.79924  1.0000
  H   H516      1.0  0.42256  0.03871  0.80824  1.0000
  C   C312      1.0  0.02534  0.41429  0.83777  1.0000
  N   N19       1.0  0.47489  0.10582  0.94746  1.0000
  Fe  Fe47      1.0  0.06101  0.48179  0.82901  1.0000
  S   S95       1.0  0.38418  0.36845  0.98445  1.0000
  H   H517      1.0  0.39700  0.08998  0.94603  1.0000
  H   H518      1.0  0.34435  0.13393  0.78498  1.0000
  H   H519      1.0  0.45647  0.28284  0.95557  1.0000
  C   C313      1.0  0.48533  0.17520  0.85900  1.0000
  C   C314      1.0  0.36062  0.16211  0.74973  1.0000
  H   H520      1.0  0.13734  0.44495  0.77374  1.0000
  H   H521      1.0  0.32669  0.24003  0.98278  1.0000
  C   C315      1.0  0.38301  0.10014  0.75823  1.0000
  H   H522      1.0  0.30010  0.48969  0.92485  1.0000
  H   H523      1.0  0.42099  0.28630  0.97542  1.0000
  H   H524      1.0  0.13691  0.44991  0.98372  1.0000
  H   H525      1.0  0.13795  0.47275  0.96109  1.0000
  C   C316      1.0  0.02945  0.42238  0.85695  1.0000
  H   H526      1.0  0.45210  0.09351  0.93358  1.0000
  C   C317      1.0  0.36543  0.26008  0.96078  1.0000
  H   H527      1.0  0.99971  0.39030  0.87474  1.0000
  H   H528      1.0  0.48899  0.03077  0.83003  1.0000
  H   H529      1.0  0.23319  0.43882  0.97566  1.0000
  H   H530      1.0  0.42973  0.32673  0.90053  1.0000
  C   C318      1.0  0.47572  0.00635  0.85549  1.0000
  C   C319      1.0  0.42610  0.31449  0.93531  1.0000
  H   H531      1.0  0.48336  0.08971  0.90706  1.0000
  H   H532      1.0  0.14702  0.46244  0.74897  1.0000
  H   H533      1.0  0.36198  0.08493  0.79776  1.0000
  H   H534      1.0  0.29830  0.44765  0.86704  1.0000
  H   H535      1.0  0.42555  0.34457  0.95421  1.0000
  H   H536      1.0  0.28703  0.45131  0.96777  1.0000
  H   H537      1.0  0.41504  0.08925  0.92227  1.0000
  N   N20       1.0  0.00241  0.41953  0.83193  1.0000
  C   C320      1.0  0.44303  0.33955  0.94838  1.0000
  H   H538      1.0  0.00173  0.38904  0.80358  1.0000
  C   C321      1.0  0.46157  0.09709  0.96828  1.0000
  C   C322      1.0  0.46175  0.10729  0.92970  1.0000
  C   C323      1.0  0.43139  0.41358  0.96033  1.0000
  C   C324      1.0  0.35115  0.09720  0.94881  1.0000
  H   H539      1.0  0.33478  0.10738  0.95029  1.0000
  H   H540      1.0  0.46133  0.32926  0.91029  1.0000
  C   C325      1.0  0.43444  0.25226  0.86151  1.0000
  H   H541      1.0  0.37638  0.06242  0.88894  1.0000
  H   H542      1.0  0.39875  0.10263  0.74795  1.0000
  C   C326      1.0  0.26827  0.45637  0.94200  1.0000
  H   H543      1.0  0.40924  0.12560  0.92979  1.0000
  H   H544      1.0  0.11210  0.45779  0.79562  1.0000
  C   C327      1.0  0.03478  0.46309  0.75447  1.0000
  Fe  Fe48      1.0  0.38824  0.38691  0.95052  1.0000
  C   C328      1.0  0.43809  0.40501  0.94213  1.0000
  H   H545      1.0  0.48117  0.48682  0.95941  1.0000
  H   H546      1.0  0.44275  0.25059  0.84551  1.0000
  C   C329      1.0  0.03635  0.49347  0.94248  1.0000
  H   H547      1.0  0.48470  0.12826  0.96310  1.0000
  H   H548      1.0  0.47051  0.01744  0.80449  1.0000
  C   C330      1.0  0.37400  0.08057  0.88421  1.0000
  H   H549      1.0  0.47741  0.18378  0.77893  1.0000
  S   S96       1.0  0.41995  0.39457  0.93096  1.0000
  H   H550      1.0  0.38059  0.12905  0.93004  1.0000
  S   S97       1.0  0.41579  0.16943  0.94021  1.0000
  H   H551      1.0  0.29320  0.47379  0.89728  1.0000
  H   H552      1.0  0.45764  0.18067  0.91925  1.0000
  C   C331      1.0  0.11865  0.46842  0.80331  1.0000
  H   H553      1.0  0.37181  0.24288  0.96288  1.0000
  H   H554      1.0  0.04745  0.42918  0.75467  1.0000
  H   H555      1.0  0.43080  0.20908  0.84382  1.0000
  H   H556      1.0  0.41849  0.23618  0.83370  1.0000
  H   H557      1.0  0.40567  0.20960  0.81924  1.0000
  C   C332      1.0  0.35751  0.46854  0.96601  1.0000
  C   C333      1.0  0.21572  0.43693  0.98006  1.0000
  H   H558      1.0  0.49079  0.41432  0.93223  1.0000
  S   S98       1.0  0.19911  0.49281  0.86544  1.0000
  H   H559      1.0  0.34934  0.08036  0.95799  1.0000
  H   H560      1.0  0.44662  0.25629  0.86984  1.0000
  C   C334      1.0  0.41933  0.33079  0.91493  1.0000
  S   S99       1.0  0.37434  0.31091  0.98346  1.0000
  H   H561      1.0  0.46354  0.13994  0.94782  1.0000
  C   C335      1.0  0.44608  0.42277  0.96818  1.0000
  H   H562      1.0  0.47206  0.07464  0.75367  1.0000
  H   H563      1.0  0.42743  0.01362  0.76147  1.0000
  H   H564      1.0  0.37896  0.13876  0.78784  1.0000
  S   S100      1.0  0.36510  0.19960  0.97197  1.0000
  C   C336      1.0  0.49045  0.99518  0.77362  1.0000
  H   H565      1.0  0.16440  0.46544  0.78862  1.0000
  H   H566      1.0  0.41184  0.31623  0.94775  1.0000
  H   H567      1.0  0.17622  0.46265  0.95043  1.0000
  H   H568      1.0  0.44674  0.35252  0.93399  1.0000
  C   C337      1.0  0.17003  0.45334  0.96645  1.0000
  H   H569      1.0  0.47374  0.33686  0.96209  1.0000
  H   H570      1.0  0.48397  0.19333  0.80014  1.0000
  H   H571      1.0  0.34404  0.16356  0.75873  1.0000
  H   H572      1.0  0.02907  0.39286  0.80593  1.0000
  H   H573      1.0  0.41686  0.05348  0.75075  1.0000
  Fe  Fe49      1.0  0.34012  0.17745  0.98299  1.0000
  C   C338      1.0  0.38305  0.06244  0.92965  1.0000
  C   C339      1.0  0.04338  0.47673  0.78329  1.0000
  Fe  Fe50      1.0  0.35190  0.39063  0.98729  1.0000
  C   C340      1.0  0.36535  0.29547  0.96872  1.0000
  H   H574      1.0  0.43909  0.02188  0.82816  1.0000
  N   N21       1.0  0.44663  0.31742  0.94264  1.0000
  C   C341      1.0  0.43911  0.03437  0.81294  1.0000
  H   H575      1.0  0.33453  0.09555  0.80423  1.0000
  C   C342      1.0  0.48635  0.19584  0.86243  1.0000
  N   N22       1.0  0.45039  0.01270  0.78286  1.0000
  C   C343      1.0  0.43076  0.02387  0.77178  1.0000
  C   C344      1.0  0.35110  0.11859  0.77933  1.0000
  H   H576      1.0  0.42406  0.31071  0.98323  1.0000
  C   C345      1.0  0.47451  0.10648  0.90752  1.0000
  C   C346      1.0  0.46758  0.42304  0.95810  1.0000
  C   C347      1.0  0.36884  0.13870  0.74605  1.0000
  H   H577      1.0  0.36505  0.48364  0.96023  1.0000
  S   S101      1.0  0.46568  0.17314  0.84369  1.0000
  H   H578      1.0  0.30067  0.26513  0.96427  1.0000
  H   H579      1.0  0.20685  0.47028  0.96329  1.0000
  C   C348      1.0  0.04462  0.48827  0.92271  1.0000
  H   H580      1.0  0.44518  0.16796  0.97065  1.0000
  H   H581      1.0  0.41443  0.20907  0.98048  1.0000
  H   H582      1.0  0.11958  0.44151  0.83104  1.0000
  C   C349      1.0  0.35892  0.09774  0.92504  1.0000
  H   H583      1.0  0.36127  0.45955  0.95295  1.0000
  H   H584      1.0  0.13508  0.46172  0.83208  1.0000
  H   H585      1.0  0.39295  0.09841  0.80383  1.0000
  H   H586      1.0  0.34693  0.09024  0.91964  1.0000
  H   H587      1.0  0.46447  0.00071  0.75446  1.0000
  H   H588      1.0  0.35640  0.08720  0.88645  1.0000
  H   H589      1.0  0.42483  0.46660  0.95343  1.0000
  H   H590      1.0  0.46283  0.11037  0.89573  1.0000
  H   H591      1.0  0.47244  0.17136  0.95991  1.0000
  H   H592      1.0  0.38745  0.08632  0.77156  1.0000
  Fe  Fe51      1.0  0.48993  0.24455  0.92633  1.0000
  N   N23       1.0  0.37271  0.12084  0.76568  1.0000
  N   N24       1.0  0.17770  0.46103  0.98359  1.0000
  C   C350      1.0  0.47212  0.04493  0.85602  1.0000
  H   H593      1.0  0.32657  0.45732  0.97656  1.0000
  S   S102      1.0  0.25123  0.47907  0.94939  1.0000
  H   H594      1.0  0.03705  0.42130  0.82426  1.0000
  C   C351      1.0  0.43527  0.47952  0.94666  1.0000
  H   H595      1.0  0.29187  0.23933  0.96665  1.0000
  H   H596      1.0  0.41463  0.09941  0.78161  1.0000
  H   H597      1.0  0.43374  0.05869  0.76772  1.0000
  H   H598      1.0  0.45004  0.33282  0.98152  1.0000
  H   H599      1.0  0.14126  0.44554  0.95721  1.0000
  C   C352      1.0  0.00359  0.42172  0.80826  1.0000
  H   H600      1.0  0.00539  0.47948  0.98276  1.0000
  H   H601      1.0  0.33840  0.11709  0.77007  1.0000
  H   H602      1.0  0.44788  0.01674  0.90237  1.0000
  H   H603      1.0  0.49164  0.07316  0.94601  1.0000
  H   H604      1.0  0.21189  0.42848  0.96856  1.0000
  C   C353      1.0  0.43883  0.48964  0.96472  1.0000
  C   C354      1.0  0.13071  0.45283  0.82120  1.0000
  H   H605      1.0  0.38531  0.26548  0.98220  1.0000
  C   C355      1.0  0.43876  0.11039  0.97284  1.0000
  H   H606      1.0  0.07298  0.47490  0.90389  1.0000
  C   C356      1.0  0.47907  0.12822  0.94791  1.0000
  H   H607      1.0  0.46637  0.30030  0.91948  1.0000
  H   H608      1.0  0.46593  0.30014  0.96811  1.0000
  H   H609      1.0  0.27759  0.25675  0.98300  1.0000
  H   H610      1.0  0.44080  0.42967  0.98208  1.0000
  H   H611      1.0  0.35339  0.46022  0.90520  1.0000
  H   H612      1.0  0.48580  0.14051  0.77444  1.0000
  C   C357      1.0  0.35248  0.44774  0.89644  1.0000
  H   H613      1.0  0.48574  0.14845  0.91584  1.0000
  C   C358      1.0  0.29416  0.25114  0.97576  1.0000
  H   H614      1.0  0.45341  0.35953  0.96626  1.0000
  H   H615      1.0  0.10393  0.47761  0.81104  1.0000
  C   C359      1.0  0.29333  0.46528  0.86008  1.0000
  H   H616      1.0  0.08818  0.48372  0.77557  1.0000
  H   H617      1.0  0.29039  0.49064  0.96139  1.0000
  C   C360      1.0  0.31204  0.47883  0.85689  1.0000
  H   H618      1.0  0.47012  0.09636  0.98202  1.0000
  C   C361      1.0  0.10198  0.48751  0.76302  1.0000
  H   H619      1.0  0.47461  0.19522  0.98247  1.0000
  C   C362      1.0  0.48758  0.31831  0.92856  1.0000
  H   H620      1.0  0.28824  0.46635  0.84436  1.0000
  H   H621      1.0  0.27863  0.47188  0.86987  1.0000
  H   H622      1.0  0.48843  0.33546  0.92890  1.0000
  H   H623      1.0  0.29196  0.28973  0.98486  1.0000
  H   H624      1.0  0.04231  0.49010  0.79104  1.0000
  H   H625      1.0  0.47392  0.22944  0.98579  1.0000
  H   H626      1.0  0.12469  0.49194  0.85329  1.0000
  H   H627      1.0  0.14952  0.48967  0.81094  1.0000
  C   C363      1.0  0.15772  0.49217  0.85811  1.0000
  N   N25       1.0  0.32339  0.47647  0.87609  1.0000
  H   H628      1.0  0.32376  0.47369  0.84362  1.0000
  H   H629      1.0  0.36485  0.47014  0.85286  1.0000
  H   H630      1.0  0.49286  0.30690  0.94310  1.0000
  H   H631      1.0  0.32721  0.49272  0.91286  1.0000
  H   H632      1.0  0.34875  0.49167  0.88315  1.0000
  C   C364      1.0  0.34006  0.49184  0.86976  1.0000
  C   C365      1.0  0.35769  0.48768  0.85112  1.0000
  H   H633      1.0  0.42253  0.49336  0.97366  1.0000
  H   H634      1.0  0.43025  0.10155  0.98787  1.0000
  N   N26       1.0  0.32428  0.48703  0.98811  1.0000
  S   S103      1.0  0.02722  0.49370  0.84310  1.0000
  S   S104      1.0  0.00360  0.41100  0.73873  1.0000
  H   H635      1.0  0.35113  0.49378  0.83567  1.0000
  H   H636      1.0  0.33122  0.56801  0.02162  1.0000
  H   H637      1.0  0.17562  0.54726  0.06614  1.0000
  C   C366      1.0  0.04468  0.54811  0.08904  1.0000
  H   H638      1.0  0.32298  0.49970  0.02824  1.0000
  H   H639      1.0  0.10241  0.55441  0.07858  1.0000
  H   H640      1.0  0.46307  0.84166  0.15367  1.0000
  H   H641      1.0  0.47023  0.94419  0.14911  1.0000
  H   H642      1.0  0.45044  0.96581  0.15795  1.0000
  C   C367      1.0  0.32542  0.63640  0.04546  1.0000
  H   H643      1.0  0.48221  0.80815  0.10299  1.0000
  S   S105      1.0  0.30088  0.60623  0.00478  1.0000
  H   H644      1.0  0.31333  0.64211  0.05817  1.0000
  H   H645      1.0  0.25599  0.55272  0.04828  1.0000
  N   N27       1.0  0.13138  0.54629  0.05722  1.0000
  H   H646      1.0  0.46308  0.96092  0.07991  1.0000
  H   H647      1.0  0.45078  0.85166  0.01193  1.0000
  H   H648      1.0  0.45109  0.79550  0.16388  1.0000
  Fe  Fe52      1.0  0.43679  0.89780  0.08160  1.0000
  C   C368      1.0  0.36296  0.66455  0.01449  1.0000
  S   S106      1.0  0.42055  0.90381  0.11378  1.0000
  Fe  Fe53      1.0  0.42956  0.89056  0.03871  1.0000
  H   H649      1.0  0.21036  0.53090  0.99356  1.0000
  S   S107      1.0  0.41048  0.88636  0.01411  1.0000
  C   C369      1.0  0.48253  0.80664  0.12031  1.0000
  Fe  Fe54      1.0  0.46189  0.91976  0.04112  1.0000
  S   S108      1.0  0.22062  0.52559  0.06880  1.0000
  S   S109      1.0  0.43629  0.86758  0.06965  1.0000
  S   S110      1.0  0.42611  0.92077  0.05176  1.0000
  S   S111      1.0  0.37428  0.79703  0.02639  1.0000
  C   C370      1.0  0.40189  0.86076  0.01745  1.0000
  C   C371      1.0  0.39699  0.85463  0.99979  1.0000
  C   C372      1.0  0.38927  0.83470  0.00223  1.0000
  C   C373      1.0  0.38588  0.82108  0.02245  1.0000
  C   C374      1.0  0.39109  0.82708  0.04002  1.0000
  C   C375      1.0  0.39933  0.84672  0.03750  1.0000
  H   H650      1.0  0.14956  0.57349  0.04542  1.0000
  C   C376      1.0  0.46851  0.82479  0.15073  1.0000
  H   H651      1.0  0.38847  0.81662  0.05569  1.0000
  H   H652      1.0  0.40290  0.85136  0.05121  1.0000
  C   C377      1.0  0.46340  0.97477  0.03189  1.0000
  C   C378      1.0  0.44096  0.97765  0.03844  1.0000
  H   H653      1.0  0.46469  0.63424  0.01839  1.0000
  H   H654      1.0  0.30127  0.64546  0.02483  1.0000
  C   C379      1.0  0.43658  0.90350  0.17135  1.0000
  H   H655      1.0  0.46322  0.77927  0.13074  1.0000
  H   H656      1.0  0.43167  0.96495  0.03889  1.0000
  H   H657      1.0  0.45353  0.57302  0.99654  1.0000
  S   S112      1.0  0.06409  0.53385  0.05289  1.0000
  C   C380      1.0  0.42490  0.90488  0.15444  1.0000
  C   C381      1.0  0.43587  0.90179  0.13463  1.0000
  H   H658      1.0  0.40728  0.90838  0.15674  1.0000
  H   H659      1.0  0.12216  0.53995  0.10683  1.0000
  H   H660      1.0  0.45115  0.94289  0.12211  1.0000
  H   H661      1.0  0.15231  0.49409  0.04743  1.0000
  Fe  Fe55      1.0  0.07004  0.50081  0.04418  1.0000
  C   C382      1.0  0.34316  0.67418  0.00245  1.0000
  S   S113      1.0  0.41386  0.98836  0.18653  1.0000
  H   H662      1.0  0.32555  0.61844  0.04801  1.0000
  H   H663      1.0  0.43851  0.80778  0.13380  1.0000
  C   C383      1.0  0.27586  0.57668  0.03009  1.0000
  C   C384      1.0  0.12035  0.55563  0.03742  1.0000
  C   C385      1.0  0.00228  0.51782  0.05868  1.0000
  C   C386      1.0  0.45932  0.89836  0.16875  1.0000
  C   C387      1.0  0.46962  0.78567  0.99176  1.0000
  H   H664      1.0  0.28762  0.68470  0.00909  1.0000
  S   S114      1.0  0.28587  0.51356  0.06271  1.0000
  H   H665      1.0  0.44015  0.81932  0.17497  1.0000
  S   S115      1.0  0.37309  0.74745  0.00166  1.0000
  C   C388      1.0  0.31864  0.64771  0.02328  1.0000
  H   H666      1.0  0.46745  0.66131  0.00362  1.0000
  C   C389      1.0  0.31139  0.54426  0.04048  1.0000
  H   H667      1.0  0.15742  0.51930  0.06650  1.0000
  H   H668      1.0  0.42633  0.85698  0.11721  1.0000
  H   H669      1.0  0.09000  0.57517  0.04949  1.0000
  C   C390      1.0  0.42594  0.84199  0.13007  1.0000
  H   H670      1.0  0.16697  0.57102  0.07679  1.0000
  C   C391      1.0  0.47234  0.84621  0.11403  1.0000
  S   S116      1.0  0.47249  0.89837  0.07157  1.0000
  C   C392      1.0  0.47045  0.97001  0.08860  1.0000
  H   H671      1.0  0.42793  0.90578  0.18658  1.0000
  C   C393      1.0  0.13917  0.50838  0.04750  1.0000
  H   H672      1.0  0.09783  0.58247  0.02159  1.0000
  C   C394      1.0  0.46030  0.82101  0.00179  1.0000
  C   C395      1.0  0.06623  0.51197  0.09429  1.0000
  H   H673      1.0  0.48215  0.97923  0.07677  1.0000
  C   C396      1.0  0.03761  0.54474  0.11103  1.0000
  H   H674      1.0  0.13039  0.57588  0.06843  1.0000
  H   H675      1.0  0.41621  0.98360  0.08771  1.0000
  H   H676      1.0  0.32766  0.63774  0.01183  1.0000
  C   C397      1.0  0.31725  0.70841  0.02665  1.0000
  H   H677      1.0  0.42921  0.95614  0.09436  1.0000
  H   H678      1.0  0.23970  0.57495  0.99087  1.0000
  H   H679      1.0  0.16469  0.59003  0.99530  1.0000
  H   H680      1.0  0.30509  0.71751  0.01594  1.0000
  Fe  Fe56      1.0  0.46209  0.91904  0.21145  1.0000
  C   C398      1.0  0.45866  0.89750  0.13183  1.0000
  C   C399      1.0  0.42272  0.99356  0.12623  1.0000
  C   C400      1.0  0.99504  0.52853  0.03666  1.0000
  H   H681      1.0  0.36213  0.67123  0.02876  1.0000
  H   H682      1.0  0.16060  0.53263  0.03949  1.0000
  H   H683      1.0  0.29432  0.65458  0.99058  1.0000
  H   H684      1.0  0.40172  0.94841  0.12695  1.0000
  C   C401      1.0  0.31481  0.56468  0.02728  1.0000
  C   C402      1.0  0.44363  0.95669  0.12988  1.0000
  C   C403      1.0  0.45524  0.80966  0.16843  1.0000
  C   C404      1.0  0.29017  0.53971  0.04769  1.0000
  H   H685      1.0  0.13275  0.55857  0.02308  1.0000
  H   H686      1.0  0.99480  0.54651  0.03238  1.0000
  C   C405      1.0  0.16140  0.55634  0.07446  1.0000
  H   H687      1.0  0.39023  0.95805  0.10276  1.0000
  C   C406      1.0  0.45327  0.98640  0.09887  1.0000
  H   H688      1.0  0.44476  0.81586  0.01086  1.0000
  H   H689      1.0  0.22301  0.62366  0.99140  1.0000
  H   H690      1.0  0.46735  0.89602  0.11647  1.0000
  H   H691      1.0  0.01970  0.51964  0.05774  1.0000
  H   H692      1.0  0.01608  0.51834  0.09568  1.0000
  C   C407      1.0  0.45714  0.84618  0.99688  1.0000
  H   H693      1.0  0.47258  0.81587  0.01313  1.0000
  C   C408      1.0  0.17435  0.49640  0.99747  1.0000
  C   C409      1.0  0.29703  0.58085  0.02190  1.0000
  S   S117      1.0  0.24818  0.51344  0.02414  1.0000
  C   C410      1.0  0.05815  0.53125  0.08057  1.0000
  H   H694      1.0  0.46992  0.84741  0.09735  1.0000
  S   S118      1.0  0.04824  0.49436  0.02339  1.0000
  H   H695      1.0  0.12560  0.50257  0.05938  1.0000
  C   C411      1.0  0.45960  0.96002  0.14382  1.0000
  H   H696      1.0  0.46485  0.80286  0.18198  1.0000
  C   C412      1.0  0.43208  0.51979  0.99356  1.0000
  H   H697      1.0  0.11227  0.59082  0.03864  1.0000
  H   H698      1.0  0.26206  0.58935  0.02672  1.0000
  C   C413      1.0  0.10431  0.57727  0.03713  1.0000
  N   N28       1.0  0.32102  0.67164  0.01493  1.0000
  C   C414      1.0  0.30418  0.68207  1.00000  1.0000
  C   C415      1.0  0.31654  0.68348  0.03293  1.0000
  H   H699      1.0  0.33372  0.71215  0.01939  1.0000
  C   C416      1.0  0.47944  0.78301  0.13169  1.0000
  H   H700      1.0  0.49160  0.77155  0.12365  1.0000
  H   H701      1.0  0.16435  0.51293  0.99622  1.0000
  N   N29       1.0  0.43503  0.97673  0.11413  1.0000
  H   H702      1.0  0.32822  0.67652  0.04468  1.0000
  H   H703      1.0  0.30015  0.68121  0.04196  1.0000
  H   H704      1.0  0.15690  0.54631  0.09040  1.0000
  Fe  Fe57      1.0  0.21470  0.52916  0.03532  1.0000
  S   S119      1.0  0.46467  0.89132  0.02578  1.0000
  C   C417      1.0  0.27241  0.55597  0.04247  1.0000
  H   H705      1.0  0.34177  0.63877  0.04751  1.0000
  H   H706      1.0  0.11070  0.54383  0.03473  1.0000
  S   S120      1.0  0.03561  0.51918  0.15188  1.0000
  H   H707      1.0  0.42711  0.84613  0.14527  1.0000
  C   C418      1.0  0.14243  0.56389  0.06090  1.0000
  C   C419      1.0  0.12168  0.52796  0.09720  1.0000
  Fe  Fe58      1.0  0.47139  0.86993  0.05729  1.0000
  C   C420      1.0  0.42051  0.97011  0.10147  1.0000
  H   H708      1.0  0.44117  0.65199  0.00894  1.0000
  S   S121      1.0  0.47698  0.95011  0.02494  1.0000
  H   H709      1.0  0.03909  0.56345  0.07857  1.0000
  H   H710      1.0  0.43004  0.95013  0.14134  1.0000
  S   S122      1.0  0.99798  0.54090  0.19730  1.0000
  C   C421      1.0  0.11413  0.53977  0.07550  1.0000
  C   C422      1.0  0.48532  0.77595  0.00861  1.0000
  H   H711      1.0  0.10370  0.52959  0.07144  1.0000
  C   C423      1.0  0.14808  0.52699  0.05295  1.0000
  C   C424      1.0  0.04484  0.52487  0.12456  1.0000
  C   C425      1.0  0.39898  0.96296  0.11379  1.0000
  C   C426      1.0  0.05976  0.50887  0.11621  1.0000
  S   S123      1.0  0.47038  0.95248  0.19670  1.0000
  S   S124      1.0  0.42696  0.93100  0.22116  1.0000
  C   C427      1.0  0.44392  0.82331  0.12463  1.0000
  H   H712      1.0  0.02663  0.55745  0.11753  1.0000
  C   C428      1.0  0.47509  0.99182  0.03075  1.0000
  Fe  Fe59      1.0  0.43591  0.96449  0.20814  1.0000
  H   H713      1.0  0.21952  0.59992  0.01193  1.0000
  S   S125      1.0  0.19550  0.56120  0.02091  1.0000
  H   H714      1.0  0.00212  0.50000  0.06068  1.0000
  H   H715      1.0  0.32517  0.53185  0.04477  1.0000
  H   H716      1.0  0.43549  0.95537  0.99989  1.0000
  H   H717      1.0  0.48829  0.75779  0.01100  1.0000
  H   H718      1.0  0.48588  0.82046  0.15364  1.0000
  H   H719      1.0  0.40969  0.83709  0.13129  1.0000
  Fe  Fe60      1.0  0.25323  0.50755  0.05829  1.0000
  C   C429      1.0  0.99950  0.51422  0.09694  1.0000
  C   C430      1.0  0.47031  0.89528  0.14895  1.0000
  H   H720      1.0  0.36509  0.64639  0.01874  1.0000
  Fe  Fe61      1.0  0.37613  0.78297  0.99764  1.0000
  H   H721      1.0  0.29274  0.49448  0.00679  1.0000
  H   H722      1.0  0.13408  0.51327  0.03138  1.0000
  H   H723      1.0  0.30742  0.69864  0.99092  1.0000
  H   H724      1.0  0.31324  0.71511  0.04123  1.0000
  H   H725      1.0  0.44357  0.82302  0.10770  1.0000
  H   H726      1.0  0.00690  0.52187  0.02437  1.0000
  H   H727      1.0  0.48279  0.77928  0.14840  1.0000
  H   H728      1.0  0.44124  0.91956  0.99159  1.0000
  H   H729      1.0  0.07784  0.49954  0.08809  1.0000
  C   C431      1.0  0.18818  0.56050  0.99662  1.0000
  H   H730      1.0  0.47817  0.77966  0.02427  1.0000
  Fe  Fe62      1.0  0.47801  0.95290  0.22888  1.0000
  H   H731      1.0  0.38797  0.97645  0.11990  1.0000
  H   H732      1.0  0.47078  0.97168  0.13533  1.0000
  S   S126      1.0  0.20084  0.49812  0.04168  1.0000
  H   H733      1.0  0.36114  0.97055  0.23208  1.0000
  H   H734      1.0  0.47293  0.85226  0.99122  1.0000
  H   H735      1.0  0.13758  0.51721  0.09619  1.0000
  H   H736      1.0  0.30429  0.52511  0.00154  1.0000
  Fe  Fe63      1.0  0.00306  0.53667  0.16377  1.0000
  H   H737      1.0  0.42881  0.50338  0.00288  1.0000
  H   H738      1.0  0.37788  0.66914  0.00389  1.0000
  H   H739      1.0  0.48006  0.95824  0.10044  1.0000
  S   S127      1.0  0.47426  0.89509  0.19011  1.0000
  H   H740      1.0  0.43517  0.52880  0.00505  1.0000
  H   H741      1.0  0.49245  0.98973  0.02560  1.0000
  H   H742      1.0  0.33173  0.52917  0.00202  1.0000
  H   H743      1.0  0.46115  0.86029  0.11888  1.0000
  H   H744      1.0  0.10996  0.51682  0.10605  1.0000
  C   C432      1.0  0.45894  0.64722  0.00486  1.0000
  N   N30       1.0  0.46663  0.82485  0.12801  1.0000
  H   H745      1.0  0.42095  0.63391  0.99053  1.0000
  C   C433      1.0  0.22153  0.60608  0.99439  1.0000
  H   H746      1.0  0.19161  0.49894  0.99364  1.0000
  H   H747      1.0  0.25609  0.59429  0.99176  1.0000
  H   H748      1.0  0.45345  0.78062  0.99881  1.0000
  C   C434      1.0  0.32007  0.52758  0.99174  1.0000
  H   H749      1.0  0.34421  0.69178  0.99572  1.0000
  H   H750      1.0  0.00735  0.55300  0.07074  1.0000
  H   H751      1.0  0.41015  0.98649  0.13882  1.0000
  H   H752      1.0  0.48792  0.89155  0.14676  1.0000
  H   H753      1.0  0.20646  0.60441  0.98876  1.0000
  H   H754      1.0  0.27772  0.97653  0.40008  1.0000
  C   C435      1.0  0.14484  0.98739  0.45564  1.0000
  C   C436      1.0  0.04770  0.61515  0.30027  1.0000
  H   H755      1.0  0.36984  0.97307  0.30215  1.0000
  C   C437      1.0  0.12888  0.82711  0.38421  1.0000
  H   H756      1.0  0.47408  0.95194  0.35940  1.0000
  Fe  Fe64      1.0  0.21838  0.96731  0.34099  1.0000
  H   H757      1.0  0.04399  0.97053  0.40978  1.0000
  C   C438      1.0  0.21540  0.83034  0.42015  1.0000
  H   H758      1.0  0.43995  0.90740  0.36784  1.0000
  H   H759      1.0  0.11288  0.71734  0.47700  1.0000
  S   S128      1.0  0.10032  0.80361  0.47872  1.0000
  H   H760      1.0  0.32685  0.98427  0.47354  1.0000
  Fe  Fe65      1.0  0.08960  0.83950  0.46585  1.0000
  Fe  Fe66      1.0  0.17795  0.94490  0.35394  1.0000
  S   S129      1.0  0.21352  0.93224  0.34692  1.0000
  S   S130      1.0  0.15340  0.93601  0.33767  1.0000
  Fe  Fe67      1.0  0.21418  0.93197  0.38113  1.0000
  S   S131      1.0  0.23368  0.90460  0.40203  1.0000
  C   C439      1.0  0.07693  0.62838  0.33166  1.0000
  N   N31       1.0  0.06875  0.59005  0.33080  1.0000
  S   S132      1.0  0.17816  0.94195  0.38884  1.0000
  H   H761      1.0  0.00764  0.96945  0.47371  1.0000
  H   H762      1.0  0.08863  0.60208  0.30102  1.0000
  H   H763      1.0  0.02665  0.66337  0.45966  1.0000
  H   H764      1.0  0.13012  0.75902  0.37135  1.0000
  S   S133      1.0  0.09997  0.74347  0.41533  1.0000
  Fe  Fe68      1.0  0.08278  0.87306  0.42487  1.0000
  S   S134      1.0  0.08294  0.87813  0.38990  1.0000
  H   H765      1.0  0.05634  0.60757  0.28698  1.0000
  S   S135      1.0  0.06052  0.85270  0.44849  1.0000
  S   S136      1.0  0.47254  0.91817  0.24305  1.0000
  H   H766      1.0  0.18608  0.82431  0.45724  1.0000
  H   H767      1.0  0.10713  0.85297  0.32784  1.0000
  H   H768      1.0  0.04073  0.94665  0.38699  1.0000
  S   S137      1.0  0.00536  0.64857  0.32709  1.0000
  H   H769      1.0  0.03956  0.81212  0.42216  1.0000
  H   H770      1.0  0.17562  0.89478  0.41033  1.0000
  H   H771      1.0  0.34598  0.95911  0.27077  1.0000
  C   C440      1.0  0.13291  0.81802  0.40765  1.0000
  H   H772      1.0  0.02752  0.94673  0.48144  1.0000
  H   H773      1.0  0.20661  0.93576  0.42451  1.0000
  H   H774      1.0  0.16808  0.92048  0.46126  1.0000
  C   C441      1.0  0.09973  0.76057  0.43264  1.0000
  C   C442      1.0  0.08140  0.77597  0.43666  1.0000
  C   C443      1.0  0.08177  0.78989  0.45022  1.0000
  C   C444      1.0  0.10015  0.78777  0.46036  1.0000
  S   S138      1.0  0.41661  0.92424  0.28254  1.0000
  C   C445      1.0  0.11829  0.75893  0.44232  1.0000
  H   H775      1.0  0.06712  0.77733  0.42904  1.0000
  H   H776      1.0  0.06766  0.80185  0.45331  1.0000
  S   S139      1.0  0.34263  0.99070  0.36841  1.0000
  H   H777      1.0  0.13248  0.74704  0.43921  1.0000
  S   S140      1.0  0.05494  0.66246  0.39787  1.0000
  C   C446      1.0  0.13375  0.92042  0.35291  1.0000
  C   C447      1.0  0.11866  0.91491  0.34249  1.0000
  C   C448      1.0  0.10290  0.90224  0.35402  1.0000
  C   C449      1.0  0.10217  0.89493  0.37603  1.0000
  C   C450      1.0  0.11707  0.90064  0.38659  1.0000
  C   C451      1.0  0.13292  0.91335  0.37499  1.0000
  H   H778      1.0  0.11921  0.92046  0.32542  1.0000
  H   H779      1.0  0.09128  0.89808  0.34582  1.0000
  H   H780      1.0  0.11651  0.89521  0.40364  1.0000
  H   H781      1.0  0.14455  0.91759  0.38304  1.0000
  C   C452      1.0  0.23732  0.91400  0.42395  1.0000
  C   C453      1.0  0.25641  0.90619  0.43340  1.0000
  C   C454      1.0  0.22148  0.92978  0.43168  1.0000
  H   H782      1.0  0.26868  0.89404  0.42738  1.0000
  C   C455      1.0  0.01723  0.65304  0.34786  1.0000
  H   H783      1.0  0.00417  0.80710  0.41261  1.0000
  H   H784      1.0  0.07822  0.80770  0.36213  1.0000
  H   H785      1.0  0.11485  0.58942  0.32864  1.0000
  H   H786      1.0  0.04057  0.58438  0.31906  1.0000
  Fe  Fe69      1.0  0.04927  0.69366  0.40982  1.0000
  C   C456      1.0  0.18760  0.83957  0.46187  1.0000
  H   H787      1.0  0.00832  0.63148  0.46321  1.0000
  Fe  Fe70      1.0  0.43783  0.93373  0.25128  1.0000
  Fe  Fe71      1.0  0.06916  0.72904  0.41990  1.0000
  S   S141      1.0  0.03925  0.74065  0.44045  1.0000
  C   C457      1.0  0.40825  0.96690  0.33113  1.0000
  C   C458      1.0  0.42196  0.97176  0.31200  1.0000
  C   C459      1.0  0.42441  0.95888  0.29693  1.0000
  C   C460      1.0  0.39903  0.93653  0.31985  1.0000
  C   C461      1.0  0.39651  0.94945  0.33495  1.0000
  C   C462      1.0  0.24705  0.98611  0.42011  1.0000
  H   H788      1.0  0.43552  0.96240  0.28255  1.0000
  H   H789      1.0  0.38612  0.94542  0.34986  1.0000
  C   C463      1.0  0.11688  0.82388  0.35182  1.0000
  S   S142      1.0  0.07576  0.90158  0.44044  1.0000
  H   H790      1.0  0.10519  0.77594  0.36536  1.0000
  H   H791      1.0  0.09034  0.85212  0.35281  1.0000
  H   H792      1.0  0.00317  0.54346  0.47202  1.0000
  C   C464      1.0  0.00627  0.63945  0.47639  1.0000
  H   H793      1.0  0.26019  0.95625  0.40891  1.0000
  H   H794      1.0  0.48705  0.98213  0.31689  1.0000
  H   H795      1.0  0.19260  0.87417  0.39749  1.0000
  H   H796      1.0  0.03810  0.62562  0.39349  1.0000
  C   C465      1.0  0.46021  0.92309  0.34041  1.0000
  C   C466      1.0  0.47952  0.92669  0.29603  1.0000
  C   C467      1.0  0.09312  0.81655  0.38684  1.0000
  C   C468      1.0  0.21423  0.84978  0.43068  1.0000
  C   C469      1.0  0.19352  0.87841  0.44819  1.0000
  H   H797      1.0  0.43116  0.98516  0.30900  1.0000
  H   H798      1.0  0.08642  0.63484  0.34095  1.0000
  H   H799      1.0  0.21991  0.86345  0.41802  1.0000
  H   H800      1.0  0.46341  0.90785  0.33421  1.0000
  H   H801      1.0  0.19966  0.89040  0.43404  1.0000
  C   C470      1.0  0.16628  0.84478  0.47660  1.0000
  H   H802      1.0  0.31402  0.94044  0.48106  1.0000
  H   H803      1.0  0.27542  0.90960  0.45645  1.0000
  H   H804      1.0  0.09316  0.80883  0.40397  1.0000
  H   H805      1.0  0.00229  0.54771  0.26987  1.0000
  H   H806      1.0  0.13815  0.98345  0.47273  1.0000
  H   H807      1.0  0.10639  0.93835  0.43165  1.0000
  S   S143      1.0  0.11238  0.85729  0.44046  1.0000
  H   H808      1.0  0.21271  0.95022  0.45440  1.0000
  C   C471      1.0  0.03364  0.63913  0.38050  1.0000
  H   H809      1.0  0.07647  0.78888  0.38786  1.0000
  C   C472      1.0  0.35760  0.98535  0.29335  1.0000
  H   H810      1.0  0.02780  0.89147  0.43448  1.0000
  C   C473      1.0  0.03928  0.65971  0.37917  1.0000
  H   H811      1.0  0.00112  0.89793  0.40895  1.0000
  H   H812      1.0  0.28653  0.96714  0.48355  1.0000
  H   H813      1.0  0.14230  0.80121  0.41043  1.0000
  C   C474      1.0  0.08711  0.58676  0.31326  1.0000
  H   H814      1.0  0.10935  0.95589  0.40542  1.0000
  H   H815      1.0  0.11185  0.99292  0.39547  1.0000
  C   C475      1.0  0.07627  0.80635  0.37946  1.0000
  H   H816      1.0  0.44501  0.93269  0.33432  1.0000
  S   S144      1.0  0.01754  0.70257  0.42911  1.0000
  H   H817      1.0  0.13910  0.97124  0.41366  1.0000
  H   H818      1.0  0.46784  0.90304  0.37156  1.0000
  H   H819      1.0  0.13061  0.93422  0.41372  1.0000
  H   H820      1.0  0.33096  0.90815  0.46906  1.0000
  H   H821      1.0  0.02600  0.81959  0.44616  1.0000
  H   H822      1.0  0.49408  0.92157  0.37207  1.0000
  C   C476      1.0  0.32641  0.90621  0.48651  1.0000
  C   C477      1.0  0.12905  0.96228  0.42757  1.0000
  H   H823      1.0  0.15213  0.84069  0.47110  1.0000
  H   H824      1.0  0.10833  0.81501  0.34396  1.0000
  C   C478      1.0  0.22490  0.93791  0.44871  1.0000
  S   S145      1.0  0.06901  0.69347  0.43542  1.0000
  H   H825      1.0  0.37280  0.95083  0.27779  1.0000
  C   C479      1.0  0.17440  0.86104  0.42882  1.0000
  C   C480      1.0  0.07690  0.72282  0.47981  1.0000
  H   H826      1.0  0.12245  0.78222  0.39614  1.0000
  C   C481      1.0  0.11791  0.94700  0.41924  1.0000
  N   N32       1.0  0.11409  0.97789  0.43968  1.0000
  H   H827      1.0  0.14516  0.82827  0.37454  1.0000
  H   H828      1.0  0.04011  0.99020  0.44708  1.0000
  H   H829      1.0  0.00675  0.83446  0.41265  1.0000
  H   H830      1.0  0.03068  0.62112  0.29675  1.0000
  H   H831      1.0  0.17709  0.88663  0.45322  1.0000
  H   H832      1.0  0.36970  0.94246  0.24399  1.0000
  C   C482      1.0  0.37098  0.95958  0.24416  1.0000
  N   N33       1.0  0.47878  0.93611  0.33254  1.0000
  C   C483      1.0  0.01062  0.89562  0.43967  1.0000
  H   H833      1.0  0.06603  0.55555  0.33633  1.0000
  C   C484      1.0  0.02286  0.67367  0.34650  1.0000
  H   H834      1.0  0.27563  0.96069  0.42735  1.0000
  C   C485      1.0  0.00429  0.81830  0.42331  1.0000
  H   H835      1.0  0.08182  0.56152  0.35373  1.0000
  Fe  Fe72      1.0  0.05592  0.87997  0.46571  1.0000
  C   C486      1.0  0.07292  0.60514  0.34368  1.0000
  H   H836      1.0  0.10193  0.70732  0.45864  1.0000
  Fe  Fe73      1.0  0.18620  0.97614  0.37896  1.0000
  S   S146      1.0  0.22234  0.96594  0.37457  1.0000
  C   C487      1.0  0.13723  0.91165  0.47775  1.0000
  H   H837      1.0  0.11130  0.56138  0.33006  1.0000
  C   C488      1.0  0.10998  0.57833  0.32021  1.0000
  C   C489      1.0  0.20786  0.87676  0.46557  1.0000
  H   H838      1.0  0.11753  0.81836  0.41874  1.0000
  H   H839      1.0  0.07750  0.73896  0.46874  1.0000
  H   H840      1.0  0.46543  0.95725  0.30474  1.0000
  C   C490      1.0  0.47937  0.94415  0.30873  1.0000
  C   C491      1.0  0.17705  0.87803  0.40760  1.0000
  S   S147      1.0  0.18267  0.98006  0.34483  1.0000
  H   H841      1.0  0.23237  0.82632  0.41256  1.0000
  H   H842      1.0  0.20488  0.83450  0.40730  1.0000
  H   H843      1.0  0.09774  0.95185  0.46015  1.0000
  H   H844      1.0  0.03893  0.93163  0.41383  1.0000
  H   H845      1.0  0.20139  0.83434  0.47155  1.0000
  C   C492      1.0  0.41315  0.94110  0.30087  1.0000
  H   H846      1.0  0.04209  0.95423  0.44620  1.0000
  C   C493      1.0  0.03370  0.67708  0.36224  1.0000
  H   H847      1.0  0.12060  0.84433  0.38329  1.0000
  H   H848      1.0  0.08421  0.97672  0.42809  1.0000
  C   C494      1.0  0.10735  0.84836  0.34532  1.0000
  H   H849      1.0  0.28044  0.98769  0.44078  1.0000
  H   H850      1.0  0.22698  0.84492  0.44153  1.0000
  H   H851      1.0  0.45761  0.96521  0.33944  1.0000
  C   C495      1.0  0.12695  0.79069  0.37939  1.0000
  C   C496      1.0  0.12266  0.77624  0.36520  1.0000
  H   H852      1.0  0.49396  0.95215  0.30171  1.0000
  H   H853      1.0  0.13408  0.82185  0.34403  1.0000
  H   H854      1.0  0.14502  0.78969  0.37729  1.0000
  H   H855      1.0  0.13048  0.78119  0.34860  1.0000
  H   H856      1.0  0.08622  0.83392  0.38704  1.0000
  H   H857      1.0  0.22506  0.86997  0.46100  1.0000
  H   H858      1.0  0.45044  0.92934  0.37282  1.0000
  H   H859      1.0  0.21139  0.81534  0.43182  1.0000
  H   H860      1.0  0.48202  0.93442  0.27883  1.0000
  H   H861      1.0  0.12033  0.95589  0.46989  1.0000
  Fe  Fe74      1.0  0.03723  0.70493  0.45345  1.0000
  S   S148      1.0  0.05193  0.72854  0.39266  1.0000
  H   H862      1.0  0.08691  0.62894  0.31601  1.0000
  N   N34       1.0  0.11604  0.81436  0.37540  1.0000
  N   N35       1.0  0.19242  0.85719  0.44240  1.0000
  H   H863      1.0  0.33213  0.98162  0.32030  1.0000
  H   H864      1.0  0.06130  0.63969  0.32977  1.0000
  C   C497      1.0  0.11832  0.77216  0.45652  1.0000
  C   C498      1.0  0.26019  0.91497  0.44985  1.0000
  H   H865      1.0  0.12209  0.57777  0.30580  1.0000
  H   H866      1.0  0.23681  0.97754  0.43404  1.0000
  Fe  Fe75      1.0  0.10380  0.88426  0.45828  1.0000
  H   H867      1.0  0.16366  0.87830  0.39844  1.0000
  H   H868      1.0  0.10093  0.69226  0.48557  1.0000
  H   H869      1.0  0.46364  0.92066  0.29890  1.0000
  H   H870      1.0  0.20139  0.86713  0.48116  1.0000
  H   H871      1.0  0.03832  0.69292  0.36094  1.0000
  H   H872      1.0  0.11765  0.85895  0.34895  1.0000
  H   H873      1.0  0.03171  0.57203  0.35701  1.0000
  H   H874      1.0  0.00188  0.94201  0.47635  1.0000
  H   H875      1.0  0.15630  0.97312  0.45146  1.0000
  S   S149      1.0  0.25096  0.94358  0.47610  1.0000
  H   H876      1.0  0.23676  0.99034  0.40709  1.0000
  H   H877      1.0  0.01394  0.52328  0.28787  1.0000
  H   H878      1.0  0.17200  0.84545  0.42539  1.0000
  S   S150      1.0  0.44393  0.96841  0.23888  1.0000
  C   C499      1.0  0.06707  0.56786  0.34552  1.0000
  C   C500      1.0  0.47427  0.95614  0.34195  1.0000
  C   C501      1.0  0.26651  0.96918  0.41380  1.0000
  H   H879      1.0  0.14272  0.82867  0.41193  1.0000
  H   H880      1.0  0.14114  0.95143  0.43764  1.0000
  S   S151      1.0  0.40855  0.98059  0.35123  1.0000
  C   C502      1.0  0.24455  0.93103  0.45737  1.0000
  H   H881      1.0  0.25518  0.98809  0.45748  1.0000
  Fe  Fe76      1.0  0.02181  0.73741  0.41465  1.0000
  H   H882      1.0  0.05975  0.81548  0.38317  1.0000
  H   H883      1.0  0.02641  0.79234  0.44191  1.0000
  H   H884      1.0  0.39028  0.92275  0.32303  1.0000
  C   C503      1.0  0.09948  0.70905  0.47540  1.0000
  S   S152      1.0  0.18977  0.97570  0.48283  1.0000
  H   H885      1.0  0.29403  0.92398  0.48332  1.0000
  C   C504      1.0  0.09084  0.97824  0.47632  1.0000
  H   H886      1.0  0.08365  0.57505  0.30452  1.0000
  C   C505      1.0  0.01646  0.65774  0.47426  1.0000
  H   H887      1.0  0.08644  0.59757  0.35339  1.0000
  C   C506      1.0  0.36271  0.96343  0.26677  1.0000
  S   S153      1.0  0.00956  0.53762  0.34872  1.0000
  S   S154      1.0  0.13262  0.90087  0.45693  1.0000
  S   S155      1.0  0.02633  0.69164  0.48812  1.0000
  H   H888      1.0  0.01256  0.54975  0.29295  1.0000
  S   S156      1.0  0.02222  0.89335  0.47885  1.0000
  H   H889      1.0  0.48817  0.98451  0.34330  1.0000
  C   C507      1.0  0.10641  0.96505  0.46139  1.0000
  C   C508      1.0  0.99817  0.49665  0.35590  1.0000
  H   H890      1.0  0.04841  0.57677  0.37493  1.0000
  C   C509      1.0  0.02235  0.63591  0.36510  1.0000
  C   C510      1.0  0.04753  0.56693  0.36336  1.0000
  C   C511      1.0  0.04739  0.59829  0.32174  1.0000
  H   H891      1.0  0.03493  0.60569  0.33324  1.0000
  H   H892      1.0  0.26285  0.97974  0.34778  1.0000
  C   C512      1.0  0.45468  0.91553  0.36462  1.0000
  C   C513      1.0  0.02506  0.81008  0.43434  1.0000
  H   H893      1.0  0.01909  0.68697  0.33311  1.0000
  H   H894      1.0  0.04768  0.54967  0.37239  1.0000
  C   C514      1.0  0.00348  0.89755  0.46066  1.0000
  H   H895      1.0  0.05469  0.62978  0.30032  1.0000
  H   H896      1.0  0.39802  0.97671  0.26630  1.0000
  C   C515      1.0  0.38568  0.99150  0.26194  1.0000
  H   H897      1.0  0.99848  0.69476  0.38715  1.0000
  H   H898      1.0  0.01842  0.61992  0.36621  1.0000
  H   H899      1.0  0.05881  0.60772  0.35593  1.0000
  H   H900      1.0  0.04779  0.76259  0.47259  1.0000
  H   H901      1.0  0.32162  0.99118  0.29545  1.0000
  C   C516      1.0  0.33483  0.97984  0.30354  1.0000
  H   H902      1.0  0.20777  0.89353  0.46781  1.0000
  H   H903      1.0  0.06478  0.71523  0.47466  1.0000
  N   N36       1.0  0.01316  0.96865  0.43043  1.0000
  S   S157      1.0  0.08340  0.86511  0.48537  1.0000
  H   H904      1.0  0.15855  0.86697  0.43755  1.0000
  S   S158      1.0  0.23798  0.98523  0.31230  1.0000
  C   C517      1.0  0.09457  0.98889  0.42852  1.0000
  C   C518      1.0  0.02454  0.95270  0.44783  1.0000
  H   H905      1.0  0.49295  0.91278  0.29928  1.0000
  C   C519      1.0  0.00369  0.53962  0.28676  1.0000
  H   H906      1.0  0.38842  0.96126  0.23935  1.0000
  H   H907      1.0  0.33342  0.96262  0.30405  1.0000
  C   C520      1.0  0.26777  0.99306  0.33514  1.0000
  H   H908      1.0  0.13252  0.77045  0.46440  1.0000
  H   H909      1.0  0.16253  0.86207  0.47803  1.0000
  H   H910      1.0  0.01473  0.94101  0.40054  1.0000
  N   N37       1.0  0.36295  0.98616  0.26983  1.0000
  H   H911      1.0  0.07357  0.97846  0.47458  1.0000
  C   C521      1.0  0.15641  0.92056  0.47541  1.0000
  C   C522      1.0  0.02728  0.96739  0.40951  1.0000
  C   C523      1.0  0.01450  0.95294  0.47096  1.0000
  H   H912      1.0  0.02518  0.93558  0.44633  1.0000
  C   C524      1.0  0.01020  0.99209  0.43272  1.0000
  H   H913      1.0  0.02058  0.98039  0.39634  1.0000
  C   C525      1.0  0.49032  0.97262  0.33297  1.0000
  C   C526      1.0  0.03036  0.94531  0.40265  1.0000
  C   C527      1.0  0.99553  0.89942  0.42518  1.0000
  H   H914      1.0  0.99420  0.79345  0.46329  1.0000
  C   C528      1.0  0.25482  0.97794  0.55896  1.0000
  H   H915      1.0  0.17567  0.93621  0.48939  1.0000
  H   H916      1.0  0.29188  0.97226  0.61879  1.0000
  C   C529      1.0  0.01399  0.66824  0.49113  1.0000
  Fe  Fe77      1.0  0.17829  0.96389  0.51741  1.0000
  H   H917      1.0  0.02342  0.51463  0.71316  1.0000
  S   S159      1.0  0.14948  0.94563  0.52765  1.0000
  H   H918      1.0  0.00164  0.51785  0.73316  1.0000
  N   N38       1.0  0.30140  0.92616  0.51376  1.0000
  H   H919      1.0  0.04075  0.52787  0.73461  1.0000
  S   S160      1.0  0.21175  0.94975  0.52641  1.0000
  C   C530      1.0  0.29262  0.98281  0.54708  1.0000
  H   H920      1.0  0.31798  0.97869  0.60704  1.0000
  H   H921      1.0  0.05585  0.77218  0.49359  1.0000
  C   C531      1.0  0.30165  0.98584  0.61390  1.0000
  S   S161      1.0  0.42392  0.99258  0.56725  1.0000
  H   H922      1.0  0.33076  0.91018  0.52814  1.0000
  H   H923      1.0  0.03587  0.72992  0.49853  1.0000
  Fe  Fe78      1.0  0.34638  0.98474  0.55922  1.0000
  S   S162      1.0  0.32686  0.95696  0.56700  1.0000
  C   C532      1.0  0.42412  0.97071  0.70028  1.0000
  H   H924      1.0  0.37913  0.98127  0.69323  1.0000
  H   H925      1.0  0.39599  0.94309  0.70339  1.0000
  H   H926      1.0  0.10716  0.90568  0.49779  1.0000
  H   H927      1.0  0.27913  0.90347  0.51536  1.0000
  H   H928      1.0  0.00080  0.53418  0.50022  1.0000
  C   C533      1.0  0.16052  0.93012  0.49112  1.0000
  C   C534      1.0  0.29163  0.90566  0.52457  1.0000
  H   H929      1.0  0.40551  0.95352  0.72942  1.0000
  H   H930      1.0  0.10250  0.72630  0.50856  1.0000
  H   H931      1.0  0.26577  0.91729  0.54858  1.0000
  S   S163      1.0  0.44539  0.91591  0.64619  1.0000
  H   H932      1.0  0.00275  0.56402  0.67282  1.0000
  N   N39       1.0  0.99842  0.54262  0.70414  1.0000
  H   H933      1.0  0.49348  0.87071  0.61377  1.0000
  C   C535      1.0  0.42954  0.97150  0.58939  1.0000
  C   C536      1.0  0.41583  0.95570  0.59746  1.0000
  C   C537      1.0  0.42101  0.93848  0.61473  1.0000
  C   C538      1.0  0.43960  0.93731  0.62428  1.0000
  C   C539      1.0  0.45302  0.95341  0.61652  1.0000
  C   C540      1.0  0.44825  0.97023  0.59883  1.0000
  H   H934      1.0  0.40148  0.95649  0.59010  1.0000
  H   H935      1.0  0.41054  0.92607  0.62076  1.0000
  H   H936      1.0  0.46712  0.95289  0.62407  1.0000
  H   H937      1.0  0.27303  0.98018  0.50420  1.0000
  C   C541      1.0  0.47734  0.93318  0.56231  1.0000
  C   C542      1.0  0.01208  0.52746  0.72015  1.0000
  H   H938      1.0  0.45511  0.91079  0.56112  1.0000
  C   C543      1.0  0.29936  0.96465  0.56291  1.0000
  C   C544      1.0  0.28386  0.95269  0.57616  1.0000
  C   C545      1.0  0.26162  0.95944  0.57433  1.0000
  H   H939      1.0  0.49208  0.93690  0.59787  1.0000
  H   H940      1.0  0.39549  0.98272  0.72140  1.0000
  H   H941      1.0  0.28899  0.93858  0.58834  1.0000
  H   H942      1.0  0.24964  0.95060  0.58513  1.0000
  C   C546      1.0  0.14514  0.93173  0.50893  1.0000
  C   C547      1.0  0.12595  0.92266  0.51144  1.0000
  H   H943      1.0  0.43905  0.95511  0.66122  1.0000
  H   H944      1.0  0.01634  0.57015  0.69148  1.0000
  C   C548      1.0  0.08061  0.74359  0.52962  1.0000
  H   H945      1.0  0.08897  0.75183  0.49566  1.0000
  H   H946      1.0  0.11403  0.92374  0.52529  1.0000
  H   H947      1.0  0.05293  0.71113  0.54670  1.0000
  C   C549      1.0  0.30827  0.92521  0.49072  1.0000
  C   C550      1.0  0.46923  0.98444  0.71439  1.0000
  C   C551      1.0  0.48612  0.90045  0.58959  1.0000
  H   H948      1.0  0.37735  0.94896  0.67276  1.0000
  H   H949      1.0  0.45759  0.91333  0.72925  1.0000
  C   C552      1.0  0.12204  0.91246  0.49591  1.0000
  H   H950      1.0  0.39411  0.92266  0.67581  1.0000
  H   H951      1.0  0.04546  0.53798  0.68873  1.0000
  H   H952      1.0  0.30175  0.97338  0.50204  1.0000
  H   H953      1.0  0.06663  0.69085  0.50747  1.0000
  C   C553      1.0  0.48741  0.97251  0.70457  1.0000
  H   H954      1.0  0.26779  0.94206  0.51328  1.0000
  H   H955      1.0  0.43080  0.98619  0.69649  1.0000
  H   H956      1.0  0.04072  0.74006  0.51988  1.0000
  C   C554      1.0  0.28050  0.90467  0.54768  1.0000
  C   C555      1.0  0.02504  0.53860  0.73140  1.0000
  C   C556      1.0  0.04504  0.76220  0.48982  1.0000
  C   C557      1.0  0.32030  0.92653  0.52501  1.0000
  H   H957      1.0  0.99472  0.56272  0.48935  1.0000
  H   H958      1.0  0.47712  0.91298  0.53923  1.0000
  N   N40       1.0  0.41278  0.96881  0.68246  1.0000
  H   H959      1.0  0.41996  0.97334  0.73320  1.0000
  Fe  Fe79      1.0  0.22316  0.96385  0.49234  1.0000
  S   S164      1.0  0.49413  0.88077  0.67219  1.0000
  Fe  Fe80      1.0  0.21293  0.98313  0.53129  1.0000
  H   H960      1.0  0.47176  0.90728  0.59987  1.0000
  S   S165      1.0  0.22697  0.98815  0.55888  1.0000
  H   H961      1.0  0.09362  0.75228  0.53152  1.0000
  C   C558      1.0  0.46561  0.92198  0.55008  1.0000
  H   H962      1.0  0.46471  0.94003  0.57403  1.0000
  H   H963      1.0  0.05617  0.68277  0.54614  1.0000
  H   H964      1.0  0.30422  0.89077  0.52518  1.0000
  H   H965      1.0  0.99975  0.66793  0.52354  1.0000
  H   H966      1.0  0.29178  0.90613  0.55836  1.0000
  H   H967      1.0  0.45463  0.93477  0.54025  1.0000
  H   H968      1.0  0.43857  0.95761  0.70243  1.0000
  H   H969      1.0  0.42159  0.93337  0.69007  1.0000
  H   H970      1.0  0.45918  0.98216  0.59239  1.0000
  H   H971      1.0  0.40254  0.94475  0.65538  1.0000
  H   H972      1.0  0.03615  0.70171  0.53199  1.0000
  H   H973      1.0  0.31434  0.92936  0.54123  1.0000
  Fe  Fe81      1.0  0.47660  0.91431  0.65930  1.0000
  C   C559      1.0  0.39222  0.98521  0.67980  1.0000
  H   H974      1.0  0.08011  0.72914  0.54305  1.0000
  N   N41       1.0  0.06998  0.72532  0.50242  1.0000
  C   C560      1.0  0.44399  0.98783  0.65747  1.0000
  H   H975      1.0  0.27490  0.88850  0.55405  1.0000
  H   H976      1.0  0.06517  0.75522  0.53055  1.0000
  H   H977      1.0  0.04110  0.55475  0.66313  1.0000
  C   C561      1.0  0.05278  0.69973  0.53646  1.0000
  C   C562      1.0  0.03350  0.54358  0.67713  1.0000
  H   H978      1.0  0.35213  0.93708  0.51863  1.0000
  C   C563      1.0  0.01211  0.55616  0.68645  1.0000
  C   C564      1.0  0.40673  0.94604  0.68799  1.0000
  C   C565      1.0  0.33539  0.94379  0.51455  1.0000
  C   C566      1.0  0.28376  0.94553  0.51564  1.0000
  H   H979      1.0  0.32997  0.95899  0.52065  1.0000
  H   H980      1.0  0.47987  0.88976  0.58162  1.0000
  H   H981      1.0  0.28122  0.94843  0.53199  1.0000
  H   H982      1.0  0.25722  0.99124  0.62891  1.0000
  C   C567      1.0  0.41013  0.96993  0.72214  1.0000
  H   H983      1.0  0.09356  0.97060  0.49306  1.0000
  C   C568      1.0  0.39450  0.94059  0.67189  1.0000
  H   H984      1.0  0.45721  0.98192  0.66773  1.0000
  C   C569      1.0  0.00158  0.65999  0.51038  1.0000
  H   H985      1.0  0.03069  0.52936  0.67157  1.0000
  C   C570      1.0  0.28689  0.96761  0.50031  1.0000
  H   H986      1.0  0.49252  0.95547  0.71167  1.0000
  H   H987      1.0  0.02931  0.55447  0.72182  1.0000
  C   C571      1.0  0.08625  0.73680  0.50812  1.0000
  C   C572      1.0  0.42821  0.97096  0.66188  1.0000
  C   C573      1.0  0.06985  0.70248  0.51644  1.0000
  H   H988      1.0  0.08616  0.69551  0.52164  1.0000
  H   H989      1.0  0.30405  0.99143  0.62798  1.0000
  C   C574      1.0  0.04736  0.73852  0.50341  1.0000
  H   H990      1.0  0.41910  0.97482  0.64791  1.0000
  H   H991      1.0  0.02805  0.77043  0.49320  1.0000
  S   S166      1.0  0.47772  0.92719  0.68796  1.0000
  H   H992      1.0  0.34137  0.90632  0.49326  1.0000
  H   H993      1.0  0.46041  0.97658  0.72907  1.0000
  S   S167      1.0  0.37703  0.98628  0.53600  1.0000
  S   S168      1.0  0.49405  0.87727  0.73421  1.0000
  C   C575      1.0  0.27034  0.98944  0.54514  1.0000
  H   H994      1.0  0.25905  0.98588  0.60322  1.0000
  H   H995      1.0  0.45202  0.98965  0.64079  1.0000
  H   H996      1.0  0.48250  0.94785  0.55096  1.0000
  H   H997      1.0  0.33727  0.94804  0.49704  1.0000
  H   H998      1.0  0.32084  0.89004  0.49249  1.0000
  H   H999      1.0  0.16790  0.83513  0.49303  1.0000
  H   H1000     1.0  0.99980  0.51723  0.68693  1.0000
  H   H1001     1.0  0.38508  0.98413  0.66573  1.0000
  H   H1002     1.0  0.30455  0.99165  0.53630  1.0000
  H   H1003     1.0  0.22141  0.99268  0.62072  1.0000
  Fe  Fe82      1.0  0.47722  0.95140  0.84979  1.0000
  C   C576      1.0  0.99601  0.52157  0.79318  1.0000
  H   H1004     1.0  0.13774  0.57677  0.89657  1.0000
  Fe  Fe83      1.0  0.24191  0.54254  0.88866  1.0000
  S   S169      1.0  0.20753  0.54820  0.88075  1.0000
  S   S170      1.0  0.26574  0.56638  0.87611  1.0000
  Fe  Fe84      1.0  0.19823  0.54031  0.91604  1.0000
  S   S171      1.0  0.17027  0.56005  0.93238  1.0000
  Fe  Fe85      1.0  0.21228  0.51163  0.88424  1.0000
  H   H1005     1.0  0.46660  0.79220  0.88672  1.0000
  S   S172      1.0  0.23200  0.53761  0.92359  1.0000
  H   H1006     1.0  0.26242  0.55455  0.95071  1.0000
  H   H1007     1.0  0.43645  0.92701  0.93325  1.0000
  C   C577      1.0  0.41527  0.91937  0.96211  1.0000
  C   C578      1.0  0.45496  0.57653  0.97937  1.0000
  H   H1008     1.0  0.47593  0.72096  0.98679  1.0000
  S   S173      1.0  0.43109  0.71892  0.98356  1.0000
  S   S174      1.0  0.10797  0.53728  0.83461  1.0000
  Fe  Fe86      1.0  0.03443  0.52693  0.82531  1.0000
  H   H1009     1.0  0.40119  0.65239  0.97561  1.0000
  C   C579      1.0  0.47745  0.89208  0.75210  1.0000
  H   H1010     1.0  0.42033  0.90134  0.96517  1.0000
  H   H1011     1.0  0.42674  0.94961  0.94512  1.0000
  C   C580      1.0  0.09560  0.54505  0.94509  1.0000
  H   H1012     1.0  0.07358  0.52743  0.89204  1.0000
  S   S175      1.0  0.04770  0.53344  0.85243  1.0000
  S   S176      1.0  0.49202  0.92071  0.87128  1.0000
  C   C581      1.0  0.47098  0.82406  0.86491  1.0000
  C   C582      1.0  0.17236  0.57697  0.98736  1.0000
  C   C583      1.0  0.11153  0.55209  0.92487  1.0000
  H   H1013     1.0  0.47765  0.70185  0.93614  1.0000
  Fe  Fe87      1.0  0.38781  0.79084  0.94996  1.0000
  S   S177      1.0  0.38654  0.75594  0.94944  1.0000
  S   S178      1.0  0.39543  0.81378  0.91813  1.0000
  N   N42       1.0  0.45057  0.50930  0.95784  1.0000
  C   C584      1.0  0.45275  0.91629  0.78115  1.0000
  C   C585      1.0  0.48710  0.74185  0.95706  1.0000
  C   C586      1.0  0.47772  0.57963  0.94521  1.0000
  H   H1014     1.0  0.00834  0.50983  0.80119  1.0000
  C   C587      1.0  0.46106  0.90944  0.74544  1.0000
  C   C588      1.0  0.45035  0.93203  0.98046  1.0000
  H   H1015     1.0  0.47580  0.77673  0.97881  1.0000
  Fe  Fe88      1.0  0.34886  0.58214  0.94347  1.0000
  H   H1016     1.0  0.46097  0.96059  0.94260  1.0000
  S   S179      1.0  0.34227  0.55371  0.93171  1.0000
  Fe  Fe89      1.0  0.35401  0.62951  0.94105  1.0000
  C   C589      1.0  0.36323  0.69100  0.94509  1.0000
  S   S180      1.0  0.35502  0.66385  0.92136  1.0000
  Fe  Fe90      1.0  0.37998  0.59261  0.96930  1.0000
  H   H1017     1.0  0.44252  0.81185  0.88472  1.0000
  C   C590      1.0  0.48109  0.88660  0.77342  1.0000
  H   H1018     1.0  0.44640  0.83404  0.96211  1.0000
  S   S181      1.0  0.37789  0.60003  0.93432  1.0000
  S   S182      1.0  0.32481  0.61236  0.94660  1.0000
  H   H1019     1.0  0.43598  0.93478  0.75478  1.0000
  C   C591      1.0  0.46821  0.68836  0.93760  1.0000
  H   H1020     1.0  0.42377  0.58998  0.93914  1.0000
  C   C592      1.0  0.32664  0.69679  0.93595  1.0000
  C   C593      1.0  0.34769  0.68479  0.93567  1.0000
  H   H1021     1.0  0.32601  0.51611  0.96258  1.0000
  H   H1022     1.0  0.44506  0.85388  0.98571  1.0000
  H   H1023     1.0  0.06907  0.54829  0.90732  1.0000
  H   H1024     1.0  0.31470  0.69235  0.92834  1.0000
  H   H1025     1.0  0.48958  0.83442  0.93812  1.0000
  C   C594      1.0  0.44957  0.81623  0.96892  1.0000
  C   C595      1.0  0.42878  0.87375  0.91082  1.0000
  C   C596      1.0  0.42550  0.86694  0.89301  1.0000
  C   C597      1.0  0.41456  0.84903  0.89551  1.0000
  C   C598      1.0  0.40697  0.83760  0.91584  1.0000
  C   C599      1.0  0.40935  0.84499  0.93365  1.0000
  C   C600      1.0  0.42031  0.86298  0.93113  1.0000
  H   H1026     1.0  0.43139  0.87546  0.87728  1.0000
  H   H1027     1.0  0.41229  0.84379  0.88163  1.0000
  H   H1028     1.0  0.40320  0.83654  0.94938  1.0000
  H   H1029     1.0  0.42241  0.86841  0.94497  1.0000
  H   H1030     1.0  0.45123  0.69604  0.93529  1.0000
  C   C601      1.0  0.44671  0.74137  0.94512  1.0000
  H   H1031     1.0  0.43115  0.74131  0.94042  1.0000
  C   C602      1.0  0.45170  0.73000  0.96526  1.0000
  H   H1032     1.0  0.44742  0.96810  0.97432  1.0000
  C   C603      1.0  0.43343  0.66194  0.96718  1.0000
  H   H1033     1.0  0.48771  0.95206  0.91316  1.0000
  C   C604      1.0  0.48889  0.81590  0.97127  1.0000
  C   C605      1.0  0.14135  0.56520  0.88579  1.0000
  H   H1034     1.0  0.37113  0.49699  0.85044  1.0000
  H   H1035     1.0  0.45195  0.78706  0.95567  1.0000
  C   C606      1.0  0.14066  0.54119  0.89793  1.0000
  C   C607      1.0  0.44648  0.99049  0.79646  1.0000
  H   H1036     1.0  0.10354  0.53114  0.95661  1.0000
  H   H1037     1.0  0.10820  0.50800  0.93352  1.0000
  H   H1038     1.0  0.46039  0.58805  0.91792  1.0000
  H   H1039     1.0  0.13477  0.51189  0.93494  1.0000
  H   H1040     1.0  0.44805  0.54205  0.93794  1.0000
  H   H1041     1.0  0.12835  0.50627  0.75663  1.0000
  N   N43       1.0  0.46729  0.81020  0.98311  1.0000
  H   H1042     1.0  0.48122  0.84588  0.81839  1.0000
  Fe  Fe91      1.0  0.35625  0.75887  0.97247  1.0000
  C   C608      1.0  0.48931  0.51841  0.94231  1.0000
  H   H1043     1.0  0.47442  0.85055  0.95651  1.0000
  N   N44       1.0  0.11910  0.53612  0.91046  1.0000
  C   C609      1.0  0.08018  0.53345  0.90387  1.0000
  H   H1044     1.0  0.36972  0.71375  0.96204  1.0000
  S   S183      1.0  0.46634  0.89355  0.84815  1.0000
  S   S184      1.0  0.44347  0.94283  0.85569  1.0000
  H   H1045     1.0  0.36428  0.74342  0.88177  1.0000
  H   H1046     1.0  0.39888  0.86544  0.98423  1.0000
  C   C610      1.0  0.14888  0.51859  0.78612  1.0000
  H   H1047     1.0  0.25786  0.65105  0.95434  1.0000
  H   H1048     1.0  0.42372  0.97208  0.81929  1.0000
  C   C611      1.0  0.44866  0.92144  0.75996  1.0000
  H   H1049     1.0  0.42915  0.67310  0.97847  1.0000
  C   C612      1.0  0.13797  0.49898  0.79957  1.0000
  H   H1050     1.0  0.10380  0.56816  0.91590  1.0000
  H   H1051     1.0  0.47242  0.89478  0.80403  1.0000
  C   C613      1.0  0.14945  0.53726  0.84138  1.0000
  C   C614      1.0  0.16969  0.52765  0.84829  1.0000
  H   H1052     1.0  0.13043  0.57048  0.87326  1.0000
  C   C615      1.0  0.13230  0.49496  0.91088  1.0000
  H   H1053     1.0  0.14636  0.55472  0.83475  1.0000
  H   H1054     1.0  0.18214  0.53768  0.84695  1.0000
  C   C616      1.0  0.17666  0.55986  0.95737  1.0000
  C   C617      1.0  0.19231  0.54330  0.96679  1.0000
  H   H1055     1.0  0.46234  0.81489  0.89982  1.0000
  H   H1056     1.0  0.45815  0.98450  0.80842  1.0000
  H   H1057     1.0  0.46513  0.89945  0.94421  1.0000
  C   C618      1.0  0.16651  0.57658  0.96776  1.0000
  H   H1058     1.0  0.19976  0.53001  0.95912  1.0000
  H   H1059     1.0  0.41736  0.52913  0.98669  1.0000
  H   H1060     1.0  0.22802  0.57254  0.95970  1.0000
  H   H1061     1.0  0.15441  0.58941  0.96047  1.0000
  C   C619      1.0  0.28601  0.56336  0.89259  1.0000
  C   C620      1.0  0.29188  0.54326  0.90639  1.0000
  C   C621      1.0  0.30918  0.54051  0.91826  1.0000
  C   C622      1.0  0.32009  0.55810  0.91718  1.0000
  C   C623      1.0  0.31356  0.57850  0.90414  1.0000
  C   C624      1.0  0.29681  0.58101  0.89159  1.0000
  H   H1062     1.0  0.28337  0.52971  0.90753  1.0000
  H   H1063     1.0  0.31396  0.52481  0.92848  1.0000
  H   H1064     1.0  0.32195  0.59213  0.90313  1.0000
  H   H1065     1.0  0.29229  0.59661  0.88097  1.0000
  C   C625      1.0  0.46452  0.63808  0.98451  1.0000
  H   H1066     1.0  0.48982  0.63075  0.92428  1.0000
  H   H1067     1.0  0.15239  0.52804  0.79703  1.0000
  H   H1068     1.0  0.26825  0.55423  0.97705  1.0000
  H   H1069     1.0  0.28866  0.51629  0.96919  1.0000
  H   H1070     1.0  0.49220  0.52391  0.95628  1.0000
  H   H1071     1.0  0.42835  0.67225  0.95192  1.0000
  H   H1072     1.0  0.21912  0.58573  0.92347  1.0000
  C   C626      1.0  0.32097  0.71456  0.94596  1.0000
  C   C627      1.0  0.28656  0.49890  0.97486  1.0000
  H   H1073     1.0  0.15813  0.56653  0.87758  1.0000
  C   C628      1.0  0.24193  0.59243  0.98466  1.0000
  C   C629      1.0  0.13316  0.52444  0.84319  1.0000
  C   C630      1.0  0.46166  0.75322  0.93108  1.0000
  H   H1074     1.0  0.37965  0.68206  0.94453  1.0000
  H   H1075     1.0  0.45735  0.76253  0.91577  1.0000
  H   H1076     1.0  0.22887  0.63089  0.95444  1.0000
  H   H1077     1.0  0.28943  0.55481  0.95528  1.0000
  C   C631      1.0  0.46908  0.89889  0.78779  1.0000
  S   S185      1.0  0.35569  0.79483  0.97073  1.0000
  Fe  Fe92      1.0  0.45868  0.91081  0.87519  1.0000
  H   H1078     1.0  0.09058  0.55893  0.95324  1.0000
  C   C632      1.0  0.48720  0.63338  0.94074  1.0000
  H   H1079     1.0  0.48923  0.94247  0.76986  1.0000
  H   H1080     1.0  0.14597  0.53114  0.88584  1.0000
  H   H1081     1.0  0.47003  0.80593  0.94088  1.0000
  H   H1082     1.0  0.08053  0.54083  0.94174  1.0000
  S   S186      1.0  0.35305  0.57227  0.97804  1.0000
  H   H1083     1.0  0.45564  0.65105  0.93229  1.0000
  C   C633      1.0  0.45891  0.58481  0.93508  1.0000
  H   H1084     1.0  0.46336  0.94203  0.91242  1.0000
  H   H1085     1.0  0.48998  0.57086  0.97540  1.0000
  C   C634      1.0  0.35768  0.70914  0.95472  1.0000
  C   C635      1.0  0.43351  0.93184  0.94879  1.0000
  S   S187      1.0  0.40807  0.78101  0.97672  1.0000
  C   C636      1.0  0.19811  0.54363  0.98642  1.0000
  H   H1086     1.0  0.41262  0.54968  0.95355  1.0000
  C   C637      1.0  0.10324  0.53872  0.89482  1.0000
  Fe  Fe93      1.0  0.45433  0.92624  0.82822  1.0000
  N   N45       1.0  0.45758  0.65366  0.96458  1.0000
  H   H1087     1.0  0.40938  0.92449  0.97735  1.0000
  H   H1088     1.0  0.01940  0.50051  0.94541  1.0000
  C   C638      1.0  0.45377  0.80458  0.95016  1.0000
  H   H1089     1.0  0.29181  0.67993  0.97156  1.0000
  H   H1090     1.0  0.30459  0.72360  0.94626  1.0000
  H   H1091     1.0  0.25055  0.62555  0.93446  1.0000
  C   C639      1.0  0.33645  0.72087  0.95531  1.0000
  H   H1092     1.0  0.44160  0.81192  0.93907  1.0000
  H   H1093     1.0  0.16469  0.51329  0.77710  1.0000
  C   C640      1.0  0.46283  0.64151  0.94686  1.0000
  C   C641      1.0  0.41842  0.64420  0.97455  1.0000
  H   H1094     1.0  0.07968  0.52018  0.91824  1.0000
  H   H1095     1.0  0.12571  0.55564  0.93086  1.0000
  H   H1096     1.0  0.47563  0.67985  0.92463  1.0000
  N   N46       1.0  0.24652  0.59769  0.96073  1.0000
  C   C642      1.0  0.26902  0.58627  0.95432  1.0000
  C   C643      1.0  0.24579  0.62200  0.95198  1.0000
  C   C644      1.0  0.22941  0.58997  0.95204  1.0000
  C   C645      1.0  0.43794  0.95483  0.98279  1.0000
  C   C646      1.0  0.46477  0.90424  0.95954  1.0000
  C   C647      1.0  0.26096  0.63306  0.96081  1.0000
  C   C648      1.0  0.23261  0.59213  0.92774  1.0000
  S   S188      1.0  0.20009  0.50431  0.91914  1.0000
  H   H1097     1.0  0.27425  0.59171  0.93697  1.0000
  H   H1098     1.0  0.31675  0.54364  0.98047  1.0000
  H   H1099     1.0  0.25834  0.63042  0.97837  1.0000
  H   H1100     1.0  0.21299  0.59922  0.95595  1.0000
  C   C649      1.0  0.46950  0.67310  0.95980  1.0000
  S   S189      1.0  0.32862  0.74326  0.96779  1.0000
  H   H1101     1.0  0.40110  0.92307  0.95308  1.0000
  S   S190      1.0  0.48681  0.93698  0.82104  1.0000
  C   C650      1.0  0.13725  0.50188  0.85171  1.0000
  C   C651      1.0  0.12315  0.51298  0.92348  1.0000
  H   H1102     1.0  0.45478  0.89313  0.97147  1.0000
  S   S191      1.0  0.41062  0.58157  0.98504  1.0000
  H   H1103     1.0  0.23177  0.60942  0.91885  1.0000
  C   C652      1.0  0.43616  0.58166  0.96928  1.0000
  H   H1104     1.0  0.46323  0.68354  0.97151  1.0000
  H   H1105     1.0  0.46589  0.81947  0.85133  1.0000
  C   C653      1.0  0.17385  0.50510  0.85672  1.0000
  S   S192      1.0  0.48579  0.98560  0.84125  1.0000
  H   H1106     1.0  0.27832  0.62748  0.95562  1.0000
  C   C654      1.0  0.48811  0.89799  0.96576  1.0000
  H   H1107     1.0  0.12331  0.50591  0.80933  1.0000
  H   H1108     1.0  0.46321  0.84144  0.86405  1.0000
  Fe  Fe94      1.0  0.40339  0.74658  0.97853  1.0000
  N   N47       1.0  0.34992  0.78390  0.89604  1.0000
  C   C655      1.0  0.34400  0.79809  0.91221  1.0000
  C   C656      1.0  0.37301  0.78616  0.88590  1.0000
  C   C657      1.0  0.34835  0.76040  0.90776  1.0000
  C   C658      1.0  0.33397  0.79175  0.88003  1.0000
  C   C659      1.0  0.32115  0.79746  0.92521  1.0000
  C   C660      1.0  0.37680  0.80904  0.87237  1.0000
  C   C661      1.0  0.36405  0.74194  0.89898  1.0000
  C   C662      1.0  0.33818  0.78022  0.86133  1.0000
  H   H1109     1.0  0.35606  0.79343  0.92380  1.0000
  H   H1110     1.0  0.34459  0.81564  0.90468  1.0000
  H   H1111     1.0  0.37926  0.77483  0.87507  1.0000
  H   H1112     1.0  0.38419  0.78140  0.89835  1.0000
  H   H1113     1.0  0.35161  0.75762  0.92448  1.0000
  H   H1114     1.0  0.33148  0.75680  0.90914  1.0000
  H   H1115     1.0  0.31715  0.78956  0.88775  1.0000
  H   H1116     1.0  0.33329  0.80969  0.87335  1.0000
  H   H1117     1.0  0.31799  0.78058  0.93280  1.0000
  H   H1118     1.0  0.31989  0.80618  0.93824  1.0000
  H   H1119     1.0  0.30810  0.80614  0.91536  1.0000
  H   H1120     1.0  0.37248  0.82208  0.88151  1.0000
  H   H1121     1.0  0.39447  0.80848  0.86654  1.0000
  H   H1122     1.0  0.36811  0.81382  0.85816  1.0000
  H   H1123     1.0  0.35892  0.72592  0.90717  1.0000
  H   H1124     1.0  0.38088  0.74122  0.90241  1.0000
  H   H1125     1.0  0.30523  0.49636  0.85076  1.0000
  H   H1126     1.0  0.35451  0.78157  0.85212  1.0000
  H   H1127     1.0  0.32602  0.78817  0.85021  1.0000
  H   H1128     1.0  0.33600  0.76277  0.86681  1.0000
  Fe  Fe95      1.0  0.08015  0.51838  0.83815  1.0000
  H   H1129     1.0  0.47323  0.49584  0.93355  1.0000
  H   H1130     1.0  0.46087  0.98599  0.88358  1.0000
  S   S193      1.0  0.06723  0.51483  0.80944  1.0000
  H   H1131     1.0  0.24803  0.58238  0.92207  1.0000
  C   C663      1.0  0.47707  0.93975  0.92174  1.0000
  S   S194      1.0  0.43770  0.93189  0.79908  1.0000
  H   H1132     1.0  0.15372  0.53665  0.90845  1.0000
  H   H1133     1.0  0.47438  0.85036  0.89172  1.0000
  S   S195      1.0  0.44376  0.89529  0.90817  1.0000
  H   H1134     1.0  0.48684  0.92335  0.92161  1.0000
  C   C664      1.0  0.43815  0.58598  0.94708  1.0000
  H   H1135     1.0  0.28131  0.59072  0.96224  1.0000
  C   C665      1.0  0.27204  0.56104  0.95978  1.0000
  C   C666      1.0  0.49229  0.84892  0.88739  1.0000
  H   H1136     1.0  0.10997  0.52918  0.88243  1.0000
  C   C667      1.0  0.45243  0.51796  0.97689  1.0000
  H   H1137     1.0  0.14913  0.49638  0.90293  1.0000
  H   H1138     1.0  0.10069  0.55589  0.88544  1.0000
  H   H1139     1.0  0.02476  0.49614  0.75872  1.0000
  H   H1140     1.0  0.45733  0.53454  0.97170  1.0000
  H   H1141     1.0  0.01565  0.54137  0.74675  1.0000
  H   H1142     1.0  0.46558  0.50737  0.98587  1.0000
  C   C668      1.0  0.46030  0.80988  0.88529  1.0000
  H   H1143     1.0  0.40592  0.52282  0.95571  1.0000
  H   H1144     1.0  0.34794  0.50933  0.97721  1.0000
  H   H1145     1.0  0.48381  0.53289  0.92997  1.0000
  C   C669      1.0  0.47566  0.57548  0.96739  1.0000
  H   H1146     1.0  0.42154  0.95819  0.97763  1.0000
  H   H1147     1.0  0.10743  0.51235  0.77712  1.0000
  H   H1148     1.0  0.09477  0.49919  0.74942  1.0000
  H   H1149     1.0  0.41147  0.98986  0.79765  1.0000
  H   H1150     1.0  0.45503  0.62648  0.95130  1.0000
  H   H1151     1.0  0.12155  0.49473  0.89920  1.0000
  H   H1152     1.0  0.46597  0.93031  0.98693  1.0000
  S   S196      1.0  0.35794  0.62314  0.97544  1.0000
  C   C670      1.0  0.44007  0.52723  0.94115  1.0000
  H   H1153     1.0  0.04391  0.49516  0.97303  1.0000
  C   C671      1.0  0.41544  0.53545  0.94590  1.0000
  C   C672      1.0  0.47212  0.72967  0.97112  1.0000
  Fe  Fe96      1.0  0.04357  0.49895  0.86900  1.0000
  Fe  Fe97      1.0  0.23499  0.50228  0.92315  1.0000
  C   C673      1.0  0.46925  0.94330  0.94451  1.0000
  H   H1154     1.0  0.44300  0.52264  0.92543  1.0000
  H   H1155     1.0  0.48889  0.90061  0.98171  1.0000
  C   C674      1.0  0.48842  0.83765  0.95418  1.0000
  S   S197      1.0  0.01082  0.55291  0.80706  1.0000
  H   H1156     1.0  0.45759  0.62259  0.98763  1.0000
  H   H1157     1.0  0.40825  0.54093  0.93073  1.0000
  H   H1158     1.0  0.48699  0.66794  0.96188  1.0000
  N   N48       1.0  0.45448  0.92787  0.95831  1.0000
  C   C675      1.0  0.48154  0.75400  0.93727  1.0000
  H   H1159     1.0  0.48251  0.63284  0.98258  1.0000
  H   H1160     1.0  0.29852  0.50106  0.88724  1.0000
  H   H1161     1.0  0.26899  0.49849  0.98074  1.0000
  C   C676      1.0  0.47342  0.50144  0.94832  1.0000
  C   C677      1.0  0.42348  0.98862  0.80866  1.0000
  C   C678      1.0  0.11790  0.49847  0.77091  1.0000
  S   S198      1.0  0.24779  0.50662  0.88861  1.0000
  H   H1162     1.0  0.42018  0.63357  0.96306  1.0000
  H   H1163     1.0  0.17216  0.49467  0.96541  1.0000
  H   H1164     1.0  0.31815  0.66412  0.97430  1.0000
  Fe  Fe98      1.0  0.33074  0.60352  0.98066  1.0000
  H   H1165     1.0  0.44955  0.97796  0.78657  1.0000
  C   C679      1.0  0.30229  0.66924  0.98329  1.0000
  H   H1166     1.0  0.33186  0.50917  0.86528  1.0000
  H   H1167     1.0  0.43373  0.81265  0.97837  1.0000
  H   H1168     1.0  0.13805  0.53018  0.77527  1.0000
  C   C680      1.0  0.33002  0.50974  0.97910  1.0000
  H   H1169     1.0  0.48393  0.94255  0.95221  1.0000
  H   H1170     1.0  0.34591  0.66656  0.98851  1.0000
  H   H1171     1.0  0.48813  0.97840  0.78260  1.0000
  H   H1172     1.0  0.49276  0.61778  0.95175  1.0000
  H   H1173     1.0  0.49367  0.88024  0.96644  1.0000
  H   H1174     1.0  0.49350  0.87302  0.77879  1.0000
  H   H1175     1.0  0.38516  0.83027  0.98863  1.0000
  C   C681      1.0  0.94592  0.46073  0.23010  1.0000
  C   C682      1.0  0.53014  0.01540  0.13018  1.0000
  C   C683      1.0  0.60626  0.22573  0.01262  1.0000
  Fe  Fe99      1.0  0.71799  0.45805  0.05265  1.0000
  S   S199      1.0  0.68143  0.46528  0.05393  1.0000
  S   S200      1.0  0.73449  0.45163  0.08203  1.0000
  Fe  Fe100     1.0  0.68577  0.44199  0.03221  1.0000
  S   S201      1.0  0.66590  0.41494  0.03599  1.0000
  H   H1176     1.0  0.95251  0.43466  0.05207  1.0000
  S   S202      1.0  0.72171  0.43220  0.03391  1.0000
  Fe  Fe101     1.0  0.68804  0.49051  0.02390  1.0000
  Fe  Fe102     1.0  0.87256  0.43195  0.07734  1.0000
  S   S203      1.0  0.90376  0.44396  0.06225  1.0000
  S   S204      1.0  0.87153  0.39580  0.08732  1.0000
  H   H1177     1.0  0.86146  0.45093  0.14761  1.0000
  C   C684      1.0  0.56546  0.46551  0.08070  1.0000
  C   C685      1.0  0.75585  0.46621  0.08116  1.0000
  C   C686      1.0  0.70761  0.39374  0.99850  1.0000
  S   S205      1.0  0.92167  0.46965  0.10177  1.0000
  C   C687      1.0  0.81073  0.43373  0.12322  1.0000
  S   S206      1.0  0.91948  0.38230  0.21127  1.0000
  S   S207      1.0  0.85263  0.45459  0.05305  1.0000
  S   S208      1.0  0.72425  0.48518  0.02435  1.0000
  Fe  Fe103     1.0  0.97350  0.39324  0.17432  1.0000
  C   C688      1.0  0.94411  0.48624  0.04084  1.0000
  H   H1178     1.0  0.68749  0.42469  0.99040  1.0000
  H   H1179     1.0  0.56514  0.44768  0.08268  1.0000
  Fe  Fe104     1.0  0.92930  0.41412  0.19278  1.0000
  H   H1180     1.0  0.97706  0.44770  0.09202  1.0000
  S   S209      1.0  0.91900  0.34857  0.16790  1.0000
  H   H1181     1.0  0.94837  0.33579  0.12711  1.0000
  C   C689      1.0  0.96676  0.47443  0.03338  1.0000
  H   H1182     1.0  0.91280  0.49050  0.18354  1.0000
  Fe  Fe105     1.0  0.72504  0.45988  0.00570  1.0000
  H   H1183     1.0  0.53319  0.03020  0.11759  1.0000
  H   H1184     1.0  0.79346  0.43685  0.13021  1.0000
  H   H1185     1.0  0.77808  0.48641  0.11485  1.0000
  S   S210      1.0  0.89672  0.47907  0.00544  1.0000
  S   S211      1.0  0.86494  0.45388  0.10036  1.0000
  C   C690      1.0  0.50941  0.07674  0.21455  1.0000
  C   C691      1.0  0.60852  0.44097  0.06585  1.0000
  C   C692      1.0  0.64146  0.42160  0.02466  1.0000
  C   C693      1.0  0.63459  0.44293  0.01370  1.0000
  H   H1186     1.0  0.83405  0.39071  0.11886  1.0000
  C   C694      1.0  0.81144  0.40042  0.08101  1.0000
  C   C695      1.0  0.81998  0.36379  0.11647  1.0000
  C   C696      1.0  0.62895  0.40511  0.02617  1.0000
  S   S212      1.0  0.49560  0.11201  0.00630  1.0000
  Fe  Fe106     1.0  0.88344  0.46881  0.03995  1.0000
  H   H1187     1.0  0.83834  0.45879  0.16624  1.0000
  H   H1188     1.0  0.63427  0.38853  0.03455  1.0000
  H   H1189     1.0  0.61113  0.47179  0.04321  1.0000
  C   C697      1.0  0.90414  0.36208  0.14671  1.0000
  C   C698      1.0  0.89979  0.38499  0.14098  1.0000
  C   C699      1.0  0.88970  0.39545  0.12281  1.0000
  C   C700      1.0  0.88348  0.38306  0.11055  1.0000
  C   C701      1.0  0.88699  0.36016  0.11677  1.0000
  C   C702      1.0  0.89736  0.34970  0.13477  1.0000
  H   H1190     1.0  0.90420  0.39469  0.15049  1.0000
  H   H1191     1.0  0.88703  0.41309  0.11827  1.0000
  H   H1192     1.0  0.88209  0.35047  0.10744  1.0000
  H   H1193     1.0  0.90050  0.33197  0.13924  1.0000
  N   N49       1.0  0.80543  0.40526  0.10291  1.0000
  C   C703      1.0  0.95721  0.42896  0.03702  1.0000
  H   H1194     1.0  0.59947  0.39742  0.01891  1.0000
  H   H1195     1.0  0.80469  0.41089  0.04822  1.0000
  C   C704      1.0  0.94620  0.48297  0.22126  1.0000
  H   H1196     1.0  0.83210  0.36125  0.10249  1.0000
  H   H1197     1.0  0.62309  0.21675  0.01384  1.0000
  C   C705      1.0  0.51828  0.17803  0.99727  1.0000
  H   H1198     1.0  0.93644  0.45549  0.01911  1.0000
  C   C706      1.0  0.77135  0.47023  0.06313  1.0000
  H   H1199     1.0  0.98523  0.33848  0.10087  1.0000
  H   H1200     1.0  0.98626  0.48315  0.10306  1.0000
  H   H1201     1.0  0.60313  0.43245  0.05527  1.0000
  H   H1202     1.0  0.54134  0.27336  0.99557  1.0000
  H   H1203     1.0  0.76951  0.46555  0.04880  1.0000
  H   H1204     1.0  0.98891  0.47058  0.18678  1.0000
  H   H1205     1.0  0.61022  0.47263  0.06996  1.0000
  S   S213      1.0  0.57580  0.43933  0.99941  1.0000
  C   C707      1.0  0.50380  0.14660  0.02085  1.0000
  H   H1206     1.0  0.55493  0.09078  0.19788  1.0000
  H   H1207     1.0  0.55942  0.06115  0.20238  1.0000
  C   C708      1.0  0.57218  0.46912  0.10100  1.0000
  H   H1208     1.0  0.97813  0.48645  0.03080  1.0000
  H   H1209     1.0  0.50791  0.17536  0.03078  1.0000
  H   H1210     1.0  0.92667  0.41650  0.09843  1.0000
  C   C709      1.0  0.86712  0.47482  0.16450  1.0000
  H   H1211     1.0  0.97764  0.46715  0.15464  1.0000
  N   N50       1.0  0.96887  0.37131  0.10362  1.0000
  H   H1212     1.0  0.54796  0.47283  0.08088  1.0000
  C   C710      1.0  0.93348  0.44923  0.22222  1.0000
  H   H1213     1.0  0.83062  0.42593  0.09510  1.0000
  H   H1214     1.0  0.71356  0.40035  0.01030  1.0000
  H   H1215     1.0  0.87050  0.44450  0.01130  1.0000
  H   H1216     1.0  0.93573  0.34342  0.10297  1.0000
  H   H1217     1.0  0.59509  0.21436  0.02222  1.0000
  H   H1218     1.0  0.82042  0.42180  0.13489  1.0000
  C   C711      1.0  0.78116  0.40813  0.10971  1.0000
  H   H1219     1.0  0.77737  0.41034  0.12634  1.0000
  H   H1220     1.0  0.80769  0.38427  0.08052  1.0000
  C   C712      1.0  0.95119  0.33648  0.10979  1.0000
  H   H1221     1.0  0.75183  0.39631  0.10713  1.0000
  H   H1222     1.0  0.94614  0.38622  0.08060  1.0000
  N   N51       1.0  0.96847  0.46523  0.01390  1.0000
  H   H1223     1.0  0.77950  0.47320  0.00403  1.0000
  C   C713      1.0  0.96948  0.36940  0.12698  1.0000
  S   S214      1.0  0.68951  0.46784  0.00217  1.0000
  H   H1224     1.0  0.83790  0.47907  0.01137  1.0000
  H   H1225     1.0  0.50185  0.03608  0.18438  1.0000
  C   C714      1.0  0.96968  0.34950  0.09809  1.0000
  S   S215      1.0  0.96250  0.40762  0.20295  1.0000
  H   H1226     1.0  0.95549  0.31932  0.10771  1.0000
  C   C715      1.0  0.61493  0.44790  0.00494  1.0000
  H   H1227     1.0  0.93355  0.37785  0.10702  1.0000
  H   H1228     1.0  0.95286  0.36843  0.13590  1.0000
  S   S216      1.0  0.94116  0.40333  0.16225  1.0000
  Fe  Fe107     1.0  0.93405  0.37053  0.18159  1.0000
  C   C716      1.0  0.94377  0.40908  0.10063  1.0000
  H   H1229     1.0  0.65952  0.40663  0.99133  1.0000
  C   C717      1.0  0.60241  0.46613  0.05939  1.0000
  H   H1230     1.0  0.81702  0.44953  0.12016  1.0000
  H   H1231     1.0  0.78255  0.42006  0.06649  1.0000
  H   H1232     1.0  0.76949  0.37671  0.12426  1.0000
  C   C718      1.0  0.58552  0.27917  0.00107  1.0000
  C   C719      1.0  0.77634  0.48186  0.10041  1.0000
  C   C720      1.0  0.81313  0.42658  0.10193  1.0000
  H   H1233     1.0  0.56292  0.02016  0.18297  1.0000
  H   H1234     1.0  0.95615  0.44061  0.00350  1.0000
  C   C721      1.0  0.60243  0.23208  0.98908  1.0000
  H   H1235     1.0  0.77273  0.42365  0.10058  1.0000
  H   H1236     1.0  0.64420  0.45567  0.01234  1.0000
  C   C722      1.0  0.57050  0.46773  0.04243  1.0000
  H   H1237     1.0  0.74666  0.46877  0.11376  1.0000
  H   H1238     1.0  0.94327  0.47352  0.13531  1.0000
  C   C723      1.0  0.51008  0.16733  0.01763  1.0000
  C   C724      1.0  0.54063  0.25588  0.99657  1.0000
  H   H1239     1.0  0.60465  0.24008  0.01974  1.0000
  H   H1240     1.0  0.60254  0.27710  0.00448  1.0000
  C   C725      1.0  0.80058  0.41727  0.06299  1.0000
  H   H1241     1.0  0.82663  0.35258  0.13062  1.0000
  H   H1242     1.0  0.60211  0.43437  0.08259  1.0000
  C   C726      1.0  0.60941  0.41004  0.01711  1.0000
  H   H1243     1.0  0.86724  0.47405  0.18154  1.0000
  S   S217      1.0  0.90699  0.44540  0.19486  1.0000
  H   H1244     1.0  0.97209  0.46143  0.04709  1.0000
  S   S218      1.0  0.96733  0.35948  0.19196  1.0000
  C   C727      1.0  0.76912  0.38938  0.10919  1.0000
  C   C728      1.0  0.92133  0.46003  0.20558  1.0000
  H   H1245     1.0  0.58996  0.46805  0.10048  1.0000
  H   H1246     1.0  0.77519  0.38162  0.09555  1.0000
  H   H1247     1.0  0.56548  0.24087  0.01626  1.0000
  H   H1248     1.0  0.97358  0.42648  0.12940  1.0000
  H   H1249     1.0  0.49711  0.13864  0.03649  1.0000
  C   C729      1.0  0.56301  0.07529  0.20740  1.0000
  H   H1250     1.0  0.51642  0.03963  0.14861  1.0000
  H   H1251     1.0  0.58089  0.47261  0.02703  1.0000
  H   H1252     1.0  0.80415  0.44032  0.09118  1.0000
  C   C730      1.0  0.49940  0.01886  0.18621  1.0000
  H   H1253     1.0  0.80690  0.43306  0.05932  1.0000
  H   H1254     1.0  0.97489  0.33740  0.14926  1.0000
  H   H1255     1.0  0.80904  0.38792  0.13549  1.0000
  C   C731      1.0  0.94770  0.38530  0.09753  1.0000
  H   H1256     1.0  0.80448  0.35881  0.11520  1.0000
  C   C732      1.0  0.81718  0.38763  0.11904  1.0000
  Fe  Fe108     1.0  0.95356  0.37484  0.21982  1.0000
  Fe  Fe109     1.0  0.84765  0.47772  0.07486  1.0000
  H   H1257     1.0  0.82938  0.39910  0.07632  1.0000
  H   H1258     1.0  0.93336  0.43200  0.22901  1.0000
  C   C733      1.0  0.92145  0.48232  0.19693  1.0000
  H   H1259     1.0  0.57531  0.27149  0.01535  1.0000
  C   C734      1.0  0.54673  0.02503  0.17718  1.0000
  C   C735      1.0  0.50591  0.13648  0.00373  1.0000
  H   H1260     1.0  0.98607  0.39919  0.09267  1.0000
  C   C736      1.0  0.60217  0.43157  0.00682  1.0000
  H   H1261     1.0  0.50221  0.01070  0.20287  1.0000
  H   H1262     1.0  0.98611  0.38447  0.07295  1.0000
  H   H1263     1.0  0.69506  0.38366  0.00742  1.0000
  H   H1264     1.0  0.96917  0.35183  0.08071  1.0000
  H   H1265     1.0  0.94587  0.40992  0.11680  1.0000
  H   H1266     1.0  0.79886  0.44977  0.00015  1.0000
  C   C737      1.0  0.85634  0.45544  0.16324  1.0000
  H   H1267     1.0  0.58094  0.07466  0.20327  1.0000
  H   H1268     1.0  0.95422  0.41960  0.08877  1.0000
  H   H1269     1.0  0.86206  0.44080  0.17539  1.0000
  H   H1270     1.0  0.57181  0.44959  0.04554  1.0000
  H   H1271     1.0  0.53630  0.03499  0.18783  1.0000
  H   H1272     1.0  0.97413  0.38449  0.12950  1.0000
  H   H1273     1.0  0.81859  0.48214  0.18909  1.0000
  H   H1274     1.0  0.56385  0.48514  0.10440  1.0000
  H   H1275     1.0  0.88472  0.47109  0.15822  1.0000
  C   C738      1.0  0.98721  0.38244  0.09016  1.0000
  H   H1276     1.0  0.54924  0.03520  0.16082  1.0000
  H   H1277     1.0  0.80563  0.46823  0.01373  1.0000
  C   C739      1.0  0.92209  0.49237  0.11249  1.0000
  C   C740      1.0  0.75852  0.47194  0.09978  1.0000
  S   S219      1.0  0.53720  0.39989  0.98885  1.0000
  H   H1278     1.0  0.54641  0.00742  0.13449  1.0000
  H   H1279     1.0  0.52243  0.07822  0.20095  1.0000
  H   H1280     1.0  0.56062  0.22401  0.00051  1.0000
  C   C741      1.0  0.56275  0.24116  0.99992  1.0000
  C   C742      1.0  0.51432  0.02265  0.14873  1.0000
  H   H1281     1.0  0.56755  0.45581  0.11466  1.0000
  H   H1282     1.0  0.98482  0.44004  0.16982  1.0000
  Fe  Fe110     1.0  0.89491  0.46786  0.08357  1.0000
  H   H1283     1.0  0.52841  0.25059  0.01037  1.0000
  C   C743      1.0  0.54674  0.47701  0.03826  1.0000
  H   H1284     1.0  0.60938  0.46452  0.99698  1.0000
  H   H1285     1.0  0.62656  0.43672  0.06459  1.0000
  N   N52       1.0  0.51531  0.00781  0.17050  1.0000
  H   H1286     1.0  0.87605  0.48992  0.12368  1.0000
  C   C744      1.0  0.98465  0.34957  0.13860  1.0000
  H   H1287     1.0  0.94639  0.41694  0.03738  1.0000
  C   C745      1.0  0.79722  0.46736  0.00055  1.0000
  H   H1288     1.0  0.50300  0.06114  0.21676  1.0000
  H   H1289     1.0  0.54341  0.47089  0.02479  1.0000
  N   N53       1.0  0.57833  0.47479  0.05993  1.0000
  C   C746      1.0  0.78977  0.47941  0.06405  1.0000
  H   H1290     1.0  0.72183  0.38331  0.99164  1.0000
  S   S220      1.0  0.52295  0.20525  0.99248  1.0000
  H   H1291     1.0  0.97416  0.42013  0.03633  1.0000
  C   C747      1.0  0.79223  0.48525  0.08275  1.0000
  C   C748      1.0  0.99179  0.45470  0.00909  1.0000
  H   H1292     1.0  0.53478  0.47128  0.05205  1.0000
  H   H1293     1.0  0.64425  0.49387  0.01329  1.0000
  H   H1294     1.0  0.80203  0.48195  0.05039  1.0000
  C   C749      1.0  0.98940  0.42622  0.11993  1.0000
  H   H1295     1.0  0.57877  0.29696  0.99840  1.0000
  C   C750      1.0  0.93474  0.48963  0.12889  1.0000
  C   C751      1.0  0.53756  0.00412  0.17753  1.0000
  C   C752      1.0  0.95389  0.44808  0.01758  1.0000
  H   H1296     1.0  0.53676  0.04141  0.22263  1.0000
  H   H1297     1.0  0.93107  0.47632  0.04259  1.0000
  C   C753      1.0  0.99149  0.45501  0.16084  1.0000
  C   C754      1.0  0.87333  0.45189  0.99455  1.0000
  C   C755      1.0  0.55692  0.07445  0.23139  1.0000
  H   H1298     1.0  0.52301  0.00454  0.12319  1.0000
  H   H1299     1.0  0.84882  0.48459  0.12796  1.0000
  H   H1300     1.0  0.51749  0.09645  0.23368  1.0000
  H   H1301     1.0  0.55496  0.09172  0.23301  1.0000
  H   H1302     1.0  0.99324  0.35528  0.14920  1.0000
  H   H1303     1.0  0.94427  0.48944  0.05674  1.0000
  H   H1304     1.0  0.49780  0.02483  0.14396  1.0000
  C   C756      1.0  0.96144  0.48355  0.99575  1.0000
  H   H1305     1.0  0.94402  0.49062  0.99943  1.0000
  C   C757      1.0  0.99142  0.43829  0.09876  1.0000
  C   C758      1.0  0.51642  0.07883  0.23537  1.0000
  H   H1306     1.0  0.55002  0.99471  0.16772  1.0000
  H   H1307     1.0  0.57354  0.03072  0.23679  1.0000
  H   H1308     1.0  0.49582  0.09018  0.21012  1.0000
  H   H1309     1.0  0.99322  0.44317  0.99844  1.0000
  C   C759      1.0  0.93385  0.49381  0.20480  1.0000
  H   H1310     1.0  0.95302  0.34332  0.47668  1.0000
  S   S221      1.0  0.87785  0.27484  0.42883  1.0000
  H   H1311     1.0  0.82801  0.03595  0.35756  1.0000
  Fe  Fe111     1.0  0.86786  0.30615  0.44037  1.0000
  S   S222      1.0  0.84623  0.33478  0.42283  1.0000
  Fe  Fe112     1.0  0.91028  0.27605  0.43746  1.0000
  S   S223      1.0  0.94118  0.26648  0.41715  1.0000
  C   C760      1.0  0.87512  0.21136  0.43893  1.0000
  S   S224      1.0  0.94613  0.38714  0.35675  1.0000
  H   H1312     1.0  0.98646  0.29547  0.40055  1.0000
  Fe  Fe113     1.0  0.85896  0.08485  0.41467  1.0000
  S   S225      1.0  0.85818  0.06141  0.44638  1.0000
  S   S226      1.0  0.85569  0.07495  0.38477  1.0000
  H   H1313     1.0  0.64929  0.08177  0.43595  1.0000
  H   H1314     1.0  0.97580  0.31731  0.44177  1.0000
  Fe  Fe114     1.0  0.88773  0.07404  0.45019  1.0000
  H   H1315     1.0  0.92912  0.31657  0.47687  1.0000
  H   H1316     1.0  0.63108  0.06261  0.44637  1.0000
  S   S227      1.0  0.89053  0.09472  0.41726  1.0000
  H   H1317     1.0  0.89570  0.32055  0.39161  1.0000
  C   C761      1.0  0.89760  0.31069  0.37940  1.0000
  H   H1318     1.0  0.95907  0.10978  0.46413  1.0000
  C   C762      1.0  0.98407  0.40976  0.47136  1.0000
  C   C763      1.0  0.97680  0.24189  0.43493  1.0000
  C   C764      1.0  0.69782  0.01217  0.44542  1.0000
  H   H1319     1.0  0.51920  0.99719  0.25253  1.0000
  C   C765      1.0  0.73262  0.12042  0.44812  1.0000
  C   C766      1.0  0.81929  0.02172  0.36062  1.0000
  C   C767      1.0  0.89879  0.38153  0.27310  1.0000
  Fe  Fe115     1.0  0.74881  0.04390  0.36782  1.0000
  S   S228      1.0  0.74240  0.03465  0.40329  1.0000
  S   S229      1.0  0.76800  0.07130  0.35203  1.0000
  Fe  Fe116     1.0  0.70801  0.03596  0.39771  1.0000
  C   C768      1.0  0.86017  0.17086  0.45418  1.0000
  S   S230      1.0  0.71373  0.04762  0.36242  1.0000
  S   S231      1.0  0.95092  0.46492  0.39410  1.0000
  H   H1320     1.0  0.93878  0.35013  0.33525  1.0000
  H   H1321     1.0  0.87437  0.34942  0.45339  1.0000
  C   C769      1.0  0.97983  0.11291  0.40141  1.0000
  C   C770      1.0  0.60020  0.05852  0.36263  1.0000
  H   H1322     1.0  0.79250  0.12051  0.41101  1.0000
  Fe  Fe117     1.0  0.53655  0.02033  0.33886  1.0000
  C   C771      1.0  0.93618  0.30244  0.32896  1.0000
  Fe  Fe118     1.0  0.74824  0.00023  0.39859  1.0000
  H   H1323     1.0  0.90339  0.29346  0.38752  1.0000
  H   H1324     1.0  0.86420  0.30439  0.38923  1.0000
  S   S232      1.0  0.67746  0.04611  0.41846  1.0000
  H   H1325     1.0  0.88946  0.34774  0.41652  1.0000
  S   S233      1.0  0.56333  0.02269  0.35622  1.0000
  S   S234      1.0  0.96034  0.35682  0.41308  1.0000
  Fe  Fe119     1.0  0.95160  0.43710  0.37840  1.0000
  S   S235      1.0  0.93946  0.44127  0.34719  1.0000
  N   N54       1.0  0.74359  0.09870  0.41818  1.0000
  H   H1326     1.0  0.96991  0.09691  0.37908  1.0000
  C   C772      1.0  0.96760  0.48470  0.38128  1.0000
  H   H1327     1.0  0.66819  0.04997  0.35793  1.0000
  Fe  Fe120     1.0  0.92026  0.41441  0.36400  1.0000
  S   S236      1.0  0.88621  0.41366  0.35896  1.0000
  H   H1328     1.0  0.58932  0.03129  0.38651  1.0000
  S   S237      1.0  0.92959  0.41287  0.39574  1.0000
  C   C773      1.0  0.60599  0.04410  0.48192  1.0000
  H   H1329     1.0  0.51117  0.01141  0.31342  1.0000
  H   H1330     1.0  0.86970  0.40672  0.29649  1.0000
  H   H1331     1.0  0.64301  0.02282  0.44491  1.0000
  H   H1332     1.0  0.64112  0.06378  0.35692  1.0000
  S   S238      1.0  0.83841  0.11355  0.42612  1.0000
  Fe  Fe121     1.0  0.58578  0.01134  0.32931  1.0000
  H   H1333     1.0  0.89066  0.34431  0.34506  1.0000
  H   H1334     1.0  0.91739  0.37224  0.33256  1.0000
  C   C774      1.0  0.95235  0.17156  0.47888  1.0000
  C   C775      1.0  0.79747  0.06478  0.47812  1.0000
  H   H1335     1.0  0.71875  0.08520  0.40818  1.0000
  H   H1336     1.0  0.76224  0.06603  0.42484  1.0000
  C   C776      1.0  0.63755  0.07607  0.45002  1.0000
  H   H1337     1.0  0.75726  0.12774  0.40029  1.0000
  H   H1338     1.0  0.86608  0.32870  0.36937  1.0000
  S   S239      1.0  0.90406  0.25681  0.47101  1.0000
  H   H1339     1.0  0.94479  0.21661  0.42497  1.0000
  S   S240      1.0  0.88289  0.15395  0.42034  1.0000
  C   C777      1.0  0.88117  0.19489  0.42723  1.0000
  C   C778      1.0  0.93760  0.16622  0.39811  1.0000
  H   H1340     1.0  0.88905  0.40634  0.31286  1.0000
  H   H1341     1.0  0.93365  0.29413  0.31669  1.0000
  H   H1342     1.0  0.71259  0.01876  0.43833  1.0000
  C   C779      1.0  0.85122  0.01788  0.39352  1.0000
  S   S241      1.0  0.85546  0.22708  0.47437  1.0000
  H   H1343     1.0  0.55121  0.01708  0.40286  1.0000
  H   H1344     1.0  0.95611  0.16053  0.46745  1.0000
  H   H1345     1.0  0.94654  0.13956  0.43711  1.0000
  H   H1346     1.0  0.81285  0.06712  0.44588  1.0000
  C   C780      1.0  0.61895  0.04888  0.40482  1.0000
  C   C781      1.0  0.93178  0.20584  0.45815  1.0000
  H   H1347     1.0  0.54711  0.03953  0.42979  1.0000
  H   H1348     1.0  0.58267  0.06201  0.36047  1.0000
  H   H1349     1.0  0.98044  0.23445  0.42131  1.0000
  C   C782      1.0  0.86504  0.00236  0.47346  1.0000
  H   H1350     1.0  0.90132  0.31113  0.33473  1.0000
  C   C783      1.0  0.90633  0.34231  0.35148  1.0000
  C   C784      1.0  0.63935  0.01948  0.32430  1.0000
  S   S242      1.0  0.90111  0.30873  0.44624  1.0000
  C   C785      1.0  0.60503  0.03559  0.37726  1.0000
  C   C786      1.0  0.82972  0.07661  0.37737  1.0000
  C   C787      1.0  0.82675  0.08521  0.35606  1.0000
  C   C788      1.0  0.80741  0.08417  0.34879  1.0000
  C   C789      1.0  0.79127  0.07350  0.36248  1.0000
  C   C790      1.0  0.79417  0.06474  0.38386  1.0000
  C   C791      1.0  0.81310  0.06690  0.39146  1.0000
  H   H1351     1.0  0.83960  0.09250  0.34503  1.0000
  H   H1352     1.0  0.80534  0.09091  0.33225  1.0000
  H   H1353     1.0  0.78201  0.05608  0.39441  1.0000
  H   H1354     1.0  0.81535  0.06008  0.40792  1.0000
  H   H1355     1.0  0.53161  0.08030  0.29114  1.0000
  C   C792      1.0  0.87330  0.01251  0.40225  1.0000
  H   H1356     1.0  0.97535  0.09457  0.44624  1.0000
  H   H1357     1.0  0.96050  0.05445  0.39572  1.0000
  C   C793      1.0  0.98026  0.05153  0.42040  1.0000
  H   H1358     1.0  0.94974  0.29194  0.33726  1.0000
  H   H1359     1.0  0.97244  0.37369  0.32035  1.0000
  H   H1360     1.0  0.87728  0.01106  0.47693  1.0000
  S   S243      1.0  0.50765  0.04690  0.33421  1.0000
  C   C794      1.0  0.94081  0.05186  0.44791  1.0000
  H   H1361     1.0  0.94614  0.48867  0.29955  1.0000
  C   C795      1.0  0.94083  0.05365  0.42618  1.0000
  H   H1362     1.0  0.95415  0.32465  0.38901  1.0000
  H   H1363     1.0  0.92566  0.05509  0.41995  1.0000
  C   C796      1.0  0.94006  0.20138  0.43582  1.0000
  H   H1364     1.0  0.79089  0.09257  0.42316  1.0000
  H   H1365     1.0  0.82410  0.99751  0.47282  1.0000
  C   C797      1.0  0.87383  0.17457  0.43488  1.0000
  H   H1366     1.0  0.60282  0.07225  0.36889  1.0000
  C   C798      1.0  0.97233  0.18347  0.47525  1.0000
  H   H1367     1.0  0.91900  0.35158  0.31760  1.0000
  C   C799      1.0  0.84103  0.39257  0.44799  1.0000
  C   C800      1.0  0.73255  0.06518  0.44688  1.0000
  H   H1368     1.0  0.90205  0.35198  0.36395  1.0000
  C   C801      1.0  0.95925  0.25886  0.43606  1.0000
  C   C802      1.0  0.95433  0.26815  0.45386  1.0000
  C   C803      1.0  0.85789  0.35670  0.40565  1.0000
  C   C804      1.0  0.84511  0.37192  0.39154  1.0000
  C   C805      1.0  0.85385  0.38946  0.37735  1.0000
  C   C806      1.0  0.87534  0.39210  0.37744  1.0000
  C   C807      1.0  0.88806  0.37717  0.39185  1.0000
  C   C808      1.0  0.87942  0.35933  0.40577  1.0000
  H   H1369     1.0  0.82843  0.37002  0.39143  1.0000
  H   H1370     1.0  0.84392  0.40100  0.36632  1.0000
  H   H1371     1.0  0.90473  0.37901  0.39194  1.0000
  S   S244      1.0  0.98039  0.41154  0.37250  1.0000
  N   N55       1.0  0.84134  0.99902  0.39105  1.0000
  H   H1372     1.0  0.76052  0.08007  0.44510  1.0000
  H   H1373     1.0  0.92483  0.40068  0.26349  1.0000
  N   N56       1.0  0.91400  0.31844  0.36065  1.0000
  H   H1374     1.0  0.90933  0.38142  0.43240  1.0000
  C   C809      1.0  0.93576  0.31471  0.36874  1.0000
  H   H1375     1.0  0.63907  0.02856  0.48593  1.0000
  C   C810      1.0  0.93689  0.32664  0.38628  1.0000
  S   S245      1.0  0.71322  0.00071  0.39652  1.0000
  H   H1376     1.0  0.87523  0.99721  0.41458  1.0000
  C   C811      1.0  0.86749  0.43722  0.30501  1.0000
  H   H1377     1.0  0.94895  0.31948  0.35586  1.0000
  H   H1378     1.0  0.83772  0.37693  0.44551  1.0000
  S   S246      1.0  0.86909  0.10139  0.46507  1.0000
  C   C812      1.0  0.65525  0.03318  0.32052  1.0000
  H   H1379     1.0  0.97315  0.40228  0.24278  1.0000
  C   C813      1.0  0.59709  0.05091  0.41940  1.0000
  H   H1380     1.0  0.52379  0.05239  0.27505  1.0000
  H   H1381     1.0  0.80218  0.02833  0.35771  1.0000
  H   H1382     1.0  0.65529  0.06221  0.37932  1.0000
  C   C814      1.0  0.88737  0.42993  0.25940  1.0000
  C   C815      1.0  0.53785  0.04153  0.23926  1.0000
  N   N57       1.0  0.98621  0.40574  0.44928  1.0000
  N   N58       1.0  0.95931  0.12716  0.40861  1.0000
  C   C816      1.0  0.96044  0.12807  0.43129  1.0000
  C   C817      1.0  0.95922  0.15031  0.39556  1.0000
  C   C818      1.0  0.91544  0.17259  0.47085  1.0000
  C   C819      1.0  0.93923  0.11780  0.40802  1.0000
  C   C820      1.0  0.96013  0.10630  0.44814  1.0000
  H   H1383     1.0  0.51465  0.09305  0.27100  1.0000
  C   C821      1.0  0.93136  0.12138  0.38604  1.0000
  N   N59       1.0  0.53703  0.06438  0.24241  1.0000
  H   H1384     1.0  0.84315  0.33716  0.46903  1.0000
  H   H1385     1.0  0.60835  0.08608  0.48334  1.0000
  H   H1386     1.0  0.98904  0.26922  0.39455  1.0000
  H   H1387     1.0  0.90188  0.14221  0.48042  1.0000
  H   H1388     1.0  0.94174  0.09980  0.41470  1.0000
  H   H1389     1.0  0.92523  0.12456  0.41865  1.0000
  C   C822      1.0  0.97221  0.38011  0.30351  1.0000
  H   H1390     1.0  0.89075  0.38763  0.25849  1.0000
  H   H1391     1.0  0.55892  0.02119  0.26284  1.0000
  C   C823      1.0  0.96666  0.37544  0.26905  1.0000
  S   S247      1.0  0.55805  0.02940  0.47226  1.0000
  H   H1392     1.0  0.92682  0.19718  0.42911  1.0000
  H   H1393     1.0  0.97543  0.13451  0.43230  1.0000
  H   H1394     1.0  0.93111  0.10529  0.38237  1.0000
  H   H1395     1.0  0.94118  0.13080  0.37257  1.0000
  H   H1396     1.0  0.91429  0.13010  0.38645  1.0000
  H   H1397     1.0  0.92976  0.36934  0.44918  1.0000
  H   H1398     1.0  0.93008  0.16513  0.41477  1.0000
  C   C824      1.0  0.98029  0.04964  0.44213  1.0000
  H   H1399     1.0  0.79801  0.03580  0.44072  1.0000
  H   H1400     1.0  0.71083  0.10731  0.43383  1.0000
  S   S248      1.0  0.85743  0.28914  0.47395  1.0000
  H   H1401     1.0  0.96219  0.35145  0.29834  1.0000
  H   H1402     1.0  0.52327  0.03451  0.24846  1.0000
  H   H1403     1.0  0.60489  0.00909  0.41601  1.0000
  C   C825      1.0  0.76280  0.11010  0.40714  1.0000
  H   H1404     1.0  0.88110  0.22683  0.43305  1.0000
  H   H1405     1.0  0.96828  0.40588  0.48067  1.0000
  H   H1406     1.0  0.71384  0.12414  0.38773  1.0000
  H   H1407     1.0  0.80968  0.99476  0.38517  1.0000
  H   H1408     1.0  0.85707  0.01377  0.46010  1.0000
  H   H1409     1.0  0.87402  0.38703  0.43486  1.0000
  H   H1410     1.0  0.93245  0.41097  0.30594  1.0000
  H   H1411     1.0  0.80933  0.01895  0.39404  1.0000
  Fe  Fe122     1.0  0.89168  0.28952  0.47913  1.0000
  H   H1412     1.0  0.92180  0.16725  0.45572  1.0000
  Fe  Fe123     1.0  0.72158  0.01192  0.36154  1.0000
  H   H1413     1.0  0.82829  0.00496  0.43389  1.0000
  H   H1414     1.0  0.65942  0.08083  0.46974  1.0000
  H   H1415     1.0  0.72267  0.05998  0.43710  1.0000
  H   H1416     1.0  0.92795  0.31934  0.40171  1.0000
  S   S249      1.0  0.80967  0.08572  0.48218  1.0000
  H   H1417     1.0  0.71752  0.12462  0.45877  1.0000
  H   H1418     1.0  0.83980  0.02798  0.40351  1.0000
  C   C826      1.0  0.80245  0.05841  0.45869  1.0000
  H   H1419     1.0  0.91169  0.43094  0.31608  1.0000
  H   H1420     1.0  0.99213  0.29328  0.37343  1.0000
  H   H1421     1.0  0.55760  0.00929  0.24131  1.0000
  H   H1422     1.0  0.94082  0.29686  0.37517  1.0000
  N   N60       1.0  0.89826  0.42036  0.27932  1.0000
  H   H1423     1.0  0.65162  0.05016  0.31235  1.0000
  C   C827      1.0  0.65234  0.05322  0.36780  1.0000
  H   H1424     1.0  0.94123  0.31833  0.32047  1.0000
  C   C828      1.0  0.92137  0.35436  0.33310  1.0000
  C   C829      1.0  0.72707  0.11164  0.38258  1.0000
  H   H1425     1.0  0.60983  0.05906  0.34668  1.0000
  H   H1426     1.0  0.91270  0.28758  0.35268  1.0000
  H   H1427     1.0  0.88677  0.37610  0.28696  1.0000
  Fe  Fe124     1.0  0.96646  0.41366  0.34235  1.0000
  H   H1428     1.0  0.65747  0.02227  0.38955  1.0000
  C   C830      1.0  0.97821  0.40072  0.29405  1.0000
  H   H1429     1.0  0.74528  0.08020  0.39414  1.0000
  H   H1430     1.0  0.91055  0.36667  0.27073  1.0000
  H   H1431     1.0  0.87650  0.45117  0.30227  1.0000
  H   H1432     1.0  0.64623  0.02156  0.36669  1.0000
  C   C831      1.0  0.67588  0.02501  0.32721  1.0000
  H   H1433     1.0  0.94122  0.28165  0.45458  1.0000
  H   H1434     1.0  0.74254  0.10702  0.45830  1.0000
  C   C832      1.0  0.96056  0.05318  0.41251  1.0000
  C   C833      1.0  0.88095  0.45508  0.25318  1.0000
  H   H1435     1.0  0.93103  0.34447  0.38188  1.0000
  C   C834      1.0  0.79411  0.04065  0.45581  1.0000
  C   C835      1.0  0.98897  0.23384  0.45203  1.0000
  C   C836      1.0  0.98153  0.38290  0.45123  1.0000
  C   C837      1.0  0.72653  0.11388  0.42893  1.0000
  H   H1436     1.0  0.62464  0.09031  0.45125  1.0000
  C   C838      1.0  0.87427  0.31159  0.37444  1.0000
  H   H1437     1.0  0.80539  0.99643  0.42621  1.0000
  N   N61       1.0  0.87396  0.37571  0.46896  1.0000
  C   C839      1.0  0.94612  0.42296  0.44598  1.0000
  H   H1438     1.0  0.60933  0.02401  0.36639  1.0000
  C   C840      1.0  0.75089  0.07756  0.43348  1.0000
  H   H1439     1.0  0.94215  0.21685  0.46087  1.0000
  H   H1440     1.0  0.94066  0.18334  0.39148  1.0000
  C   C841      1.0  0.65868  0.01442  0.44915  1.0000
  H   H1441     1.0  0.87382  0.30197  0.36258  1.0000
  H   H1442     1.0  0.97237  0.15773  0.39933  1.0000
  C   C842      1.0  0.50052  0.02526  0.30547  1.0000
  H   H1443     1.0  0.94576  0.09846  0.44847  1.0000
  H   H1444     1.0  0.98000  0.12263  0.36626  1.0000
  C   C843      1.0  0.91144  0.39842  0.27699  1.0000
  Fe  Fe125     1.0  0.83948  0.09069  0.45828  1.0000
  C   C844      1.0  0.91411  0.43453  0.28141  1.0000
  H   H1445     1.0  0.91536  0.21603  0.45716  1.0000
  H   H1446     1.0  0.60181  0.06002  0.47102  1.0000
  C   C845      1.0  0.53626  0.06248  0.26600  1.0000
  C   C846      1.0  0.92411  0.42811  0.30244  1.0000
  Fe  Fe126     1.0  0.86999  0.12159  0.43169  1.0000
  H   H1447     1.0  0.97354  0.44580  0.46495  1.0000
  H   H1448     1.0  0.96171  0.26665  0.48506  1.0000
  C   C847      1.0  0.88153  0.41662  0.29871  1.0000
  H   H1449     1.0  0.90667  0.45195  0.28000  1.0000
  H   H1450     1.0  0.85279  0.44238  0.29667  1.0000
  C   C848      1.0  0.55392  0.02232  0.43361  1.0000
  S   S250      1.0  0.61366  0.03035  0.31571  1.0000
  H   H1451     1.0  0.68812  0.03563  0.32406  1.0000
  H   H1452     1.0  0.88345  0.34060  0.47873  1.0000
  C   C849      1.0  0.96061  0.04946  0.45591  1.0000
  C   C850      1.0  0.53124  0.08419  0.27367  1.0000
  H   H1453     1.0  0.91957  0.39017  0.29126  1.0000
  H   H1454     1.0  0.77533  0.11405  0.43563  1.0000
  C   C851      1.0  0.96656  0.36747  0.29102  1.0000
  C   C852      1.0  0.62136  0.00982  0.40676  1.0000
  C   C853      1.0  0.73366  0.09271  0.40133  1.0000
  H   H1455     1.0  0.96935  0.46875  0.30343  1.0000
  H   H1456     1.0  0.62037  0.06549  0.39499  1.0000
  H   H1457     1.0  0.97443  0.43878  0.43255  1.0000
  H   H1458     1.0  0.89161  0.19789  0.41223  1.0000
  H   H1459     1.0  0.90070  0.39362  0.46671  1.0000
  H   H1460     1.0  0.97124  0.41804  0.42034  1.0000
  H   H1461     1.0  0.83529  0.35897  0.48226  1.0000
  H   H1462     1.0  0.96065  0.04794  0.47274  1.0000
  H   H1463     1.0  0.92541  0.16347  0.38907  1.0000
  Fe  Fe127     1.0  0.87076  0.25789  0.46296  1.0000
  C   C854      1.0  0.78079  0.02909  0.47237  1.0000
  H   H1464     1.0  0.86172  0.00007  0.36065  1.0000
  H   H1465     1.0  0.98470  0.17329  0.48532  1.0000
  H   H1466     1.0  0.91097  0.35293  0.44650  1.0000
  C   C855      1.0  0.86528  0.39140  0.44981  1.0000
  C   C856      1.0  0.56018  0.01281  0.45385  1.0000
  C   C857      1.0  0.87109  0.35252  0.46971  1.0000
  H   H1467     1.0  0.74127  0.13487  0.44284  1.0000
  H   H1468     1.0  0.83002  0.39746  0.46167  1.0000
  S   S251      1.0  0.95840  0.35954  0.25411  1.0000
  C   C858      1.0  0.78115  0.10918  0.42031  1.0000
  H   H1469     1.0  0.59631  0.03648  0.43288  1.0000
  C   C859      1.0  0.97026  0.42192  0.43620  1.0000
  H   H1470     1.0  0.72074  0.10475  0.37118  1.0000
  C   C860      1.0  0.85405  0.18737  0.46586  1.0000
  S   S252      1.0  0.55885  0.01220  0.31043  1.0000
  H   H1471     1.0  0.77108  0.10313  0.39328  1.0000
  H   H1472     1.0  0.83060  0.02952  0.48383  1.0000
  H   H1473     1.0  0.59548  0.06537  0.42650  1.0000
  H   H1474     1.0  0.93662  0.43865  0.30129  1.0000
  H   H1475     1.0  0.72214  0.12962  0.41751  1.0000
  C   C861      1.0  0.86162  0.20760  0.45836  1.0000
  H   H1476     1.0  0.86814  0.40835  0.44902  1.0000
  C   C862      1.0  0.91496  0.30475  0.34453  1.0000
  H   H1477     1.0  0.74115  0.11947  0.37354  1.0000
  C   C863      1.0  0.84866  0.34559  0.47970  1.0000
  C   C864      1.0  0.97276  0.39602  0.25962  1.0000
  Fe  Fe128     1.0  0.95722  0.38746  0.38736  1.0000
  C   C865      1.0  0.81925  0.00818  0.38373  1.0000
  H   H1478     1.0  0.63287  0.00693  0.41868  1.0000
  C   C866      1.0  0.98601  0.43313  0.47284  1.0000
  C   C867      1.0  0.67772  0.02306  0.43948  1.0000
  C   C868      1.0  0.64993  0.06779  0.46955  1.0000
  C   C869      1.0  0.98160  0.10783  0.37927  1.0000
  H   H1479     1.0  0.96346  0.15089  0.37833  1.0000
  C   C870      1.0  0.91244  0.36968  0.44754  1.0000
  S   S253      1.0  0.77143  0.00660  0.46805  1.0000
  H   H1480     1.0  0.55195  0.05376  0.27170  1.0000
  H   H1481     1.0  0.93598  0.43512  0.43482  1.0000
  C   C871      1.0  0.55630  0.00966  0.41831  1.0000
  H   H1482     1.0  0.84365  0.18434  0.48090  1.0000
  H   H1483     1.0  0.85442  0.15524  0.46018  1.0000
  H   H1484     1.0  0.98189  0.09658  0.41239  1.0000
  S   S254      1.0  0.91626  0.05269  0.46524  1.0000
  H   H1485     1.0  0.83686  0.40522  0.43360  1.0000
  H   H1486     1.0  0.50223  0.07540  0.24772  1.0000
  H   H1487     1.0  0.92783  0.43462  0.26824  1.0000
  H   H1488     1.0  0.87233  0.42276  0.26043  1.0000
  C   C872      1.0  0.97868  0.40854  0.27205  1.0000
  H   H1489     1.0  0.63220  0.04549  0.41493  1.0000
  H   H1490     1.0  0.99327  0.34814  0.46162  1.0000
  H   H1491     1.0  0.94301  0.42850  0.46114  1.0000
  H   H1492     1.0  0.74003  0.04987  0.45713  1.0000
  C   C873      1.0  0.64482  0.03109  0.37907  1.0000
  C   C874      1.0  0.89800  0.37675  0.46697  1.0000
  H   H1493     1.0  0.87045  0.46203  0.26598  1.0000
  H   H1494     1.0  0.95440  0.18831  0.43566  1.0000
  H   H1495     1.0  0.54355  0.09508  0.26636  1.0000
  H   H1496     1.0  0.60758  0.03125  0.47268  1.0000
  N   N62       1.0  0.62236  0.03188  0.39162  1.0000
  H   H1497     1.0  0.86211  0.43348  0.32241  1.0000
  C   C875      1.0  0.96595  0.25968  0.47115  1.0000
  H   H1498     1.0  0.87463  0.02562  0.41029  1.0000
  H   H1499     1.0  0.72183  0.07485  0.45766  1.0000
  S   S255      1.0  0.75746  0.00913  0.36333  1.0000
  H   H1500     1.0  0.58299  0.05345  0.41052  1.0000
  C   C876      1.0  0.98485  0.48057  0.36551  1.0000
  C   C877      1.0  0.98304  0.24237  0.47036  1.0000
  H   H1501     1.0  0.98045  0.18495  0.45864  1.0000
  N   N63       1.0  0.93052  0.18581  0.47606  1.0000
  H   H1502     1.0  0.90517  0.36598  0.48100  1.0000
  H   H1503     1.0  0.66214  0.05369  0.46589  1.0000
  H   H1504     1.0  0.96894  0.19967  0.47934  1.0000
  H   H1505     1.0  0.85384  0.02960  0.37798  1.0000
  H   H1506     1.0  0.94039  0.40702  0.44835  1.0000
  H   H1507     1.0  0.89940  0.18284  0.46833  1.0000
  H   H1508     1.0  0.88700  0.01202  0.38915  1.0000
  H   H1509     1.0  0.95578  0.45231  0.24257  1.0000
  H   H1510     1.0  0.89804  0.42543  0.24520  1.0000
  C   C878      1.0  0.68083  0.00298  0.33740  1.0000
  H   H1511     1.0  0.57160  0.06644  0.23937  1.0000
  H   H1512     1.0  0.82613  0.01157  0.34880  1.0000
  H   H1513     1.0  0.96632  0.38006  0.46220  1.0000
  H   H1514     1.0  0.96608  0.48458  0.27692  1.0000
  C   C879      1.0  0.55827  0.02502  0.24549  1.0000
  C   C880      1.0  0.98664  0.34215  0.41517  1.0000
  C   C881      1.0  0.64421  0.99751  0.33477  1.0000
  S   S256      1.0  0.98487  0.41710  0.30938  1.0000
  C   C882      1.0  0.96372  0.48533  0.29395  1.0000
  H   H1515     1.0  0.98806  0.46495  0.36092  1.0000
  H   H1516     1.0  0.89551  0.46343  0.24788  1.0000
  H   H1517     1.0  0.98344  0.42441  0.26464  1.0000
  C   C883      1.0  0.98967  0.32300  0.43108  1.0000
  H   H1518     1.0  0.97808  0.38065  0.43589  1.0000
  C   C884      1.0  0.66003  0.99443  0.46428  1.0000
  C   C885      1.0  0.91085  0.15156  0.48746  1.0000
  H   H1519     1.0  0.87173  0.45924  0.23930  1.0000
  C   C886      1.0  0.49572  0.04473  0.31271  1.0000
  H   H1520     1.0  0.86650  0.40056  0.48760  1.0000
  H   H1521     1.0  0.49564  0.00881  0.28197  1.0000
  C   C887      1.0  0.96530  0.29534  0.56483  1.0000
  H   H1522     1.0  0.97249  0.32526  0.61381  1.0000
  S   S257      1.0  0.89687  0.29711  0.50980  1.0000
  Fe  Fe129     1.0  0.96146  0.44996  0.70402  1.0000
  H   H1523     1.0  0.91745  0.17872  0.50951  1.0000
  H   H1524     1.0  0.86403  0.03798  0.49297  1.0000
  H   H1525     1.0  0.68442  0.04541  0.49087  1.0000
  H   H1526     1.0  0.59173  0.04143  0.49425  1.0000
  C   C888      1.0  0.64456  0.00305  0.54683  1.0000
  H   H1527     1.0  0.98348  0.47961  0.58036  1.0000
  H   H1528     1.0  0.67268  0.02124  0.58658  1.0000
  H   H1529     1.0  0.88736  0.37209  0.51178  1.0000
  H   H1530     1.0  0.99030  0.26808  0.57048  1.0000
  H   H1531     1.0  0.95186  0.16065  0.49507  1.0000
  H   H1532     1.0  0.59690  0.06232  0.51943  1.0000
  H   H1533     1.0  0.96884  0.30549  0.57502  1.0000
  C   C889      1.0  0.96035  0.38268  0.65381  1.0000
  C   C890      1.0  0.89451  0.48463  0.68561  1.0000
  N   N64       1.0  0.84836  0.99691  0.49273  1.0000
  H   H1534     1.0  0.63683  0.99817  0.53557  1.0000
  C   C891      1.0  0.98145  0.44612  0.64247  1.0000
  C   C892      1.0  0.95789  0.48716  0.61670  1.0000
  C   C893      1.0  0.49563  0.06723  0.58865  1.0000
  S   S258      1.0  0.95886  0.41457  0.71764  1.0000
  C   C894      1.0  0.77539  0.03561  0.49175  1.0000
  N   N65       1.0  0.98695  0.27364  0.53719  1.0000
  C   C895      1.0  0.96315  0.46187  0.53192  1.0000
  H   H1535     1.0  0.87129  0.35159  0.51129  1.0000
  H   H1536     1.0  0.94356  0.37994  0.65762  1.0000
  C   C896      1.0  0.62687  0.04104  0.49253  1.0000
  H   H1537     1.0  0.90001  0.15539  0.50173  1.0000
  S   S259      1.0  0.60507  0.02802  0.55753  1.0000
  H   H1538     1.0  0.59273  0.09113  0.51778  1.0000
  H   H1539     1.0  0.68106  0.03508  0.51882  1.0000
  C   C897      1.0  0.98525  0.46311  0.53074  1.0000
  C   C898      1.0  0.93263  0.20677  0.50491  1.0000
  C   C899      1.0  0.50325  0.04991  0.57817  1.0000
  H   H1540     1.0  0.49967  0.01194  0.66077  1.0000
  H   H1541     1.0  0.61491  0.07443  0.53046  1.0000
  H   H1542     1.0  0.63353  0.03431  0.58382  1.0000
  H   H1543     1.0  0.54797  0.02290  0.59097  1.0000
  H   H1544     1.0  0.97986  0.43200  0.65619  1.0000
  H   H1545     1.0  0.82272  0.01670  0.51006  1.0000
  H   H1546     1.0  0.96431  0.29994  0.52051  1.0000
  S   S260      1.0  0.95812  0.36584  0.50787  1.0000
  C   C900      1.0  0.99136  0.48264  0.53234  1.0000
  C   C901      1.0  0.96391  0.44737  0.62824  1.0000
  H   H1547     1.0  0.97135  0.48930  0.62464  1.0000
  H   H1548     1.0  0.84104  0.04571  0.51084  1.0000
  H   H1549     1.0  0.65785  0.07134  0.50860  1.0000
  H   H1550     1.0  0.85960  0.37413  0.52343  1.0000
  S   S261      1.0  0.95600  0.38155  0.61300  1.0000
  Fe  Fe130     1.0  0.53649  0.00597  0.55119  1.0000
  C   C902      1.0  0.91489  0.31525  0.50940  1.0000
  C   C903      1.0  0.91503  0.32274  0.52783  1.0000
  C   C904      1.0  0.92866  0.33785  0.52781  1.0000
  C   C905      1.0  0.94225  0.34547  0.50932  1.0000
  H   H1551     1.0  0.96678  0.43125  0.62384  1.0000
  C   C906      1.0  0.87100  0.36935  0.50983  1.0000
  H   H1552     1.0  0.90426  0.31711  0.54208  1.0000
  H   H1553     1.0  0.92830  0.34396  0.54192  1.0000
  H   H1554     1.0  0.93674  0.22171  0.49322  1.0000
  S   S262      1.0  0.96670  0.45628  0.73494  1.0000
  S   S263      1.0  0.55412  0.03269  0.53082  1.0000
  C   C907      1.0  0.98094  0.32414  0.62770  1.0000
  H   H1555     1.0  0.54258  0.06799  0.58905  1.0000
  N   N66       1.0  0.56019  0.01941  0.62080  1.0000
  H   H1556     1.0  0.98906  0.32320  0.49910  1.0000
  H   H1557     1.0  0.92922  0.47423  0.60297  1.0000
  C   C908      1.0  0.54873  0.00017  0.63202  1.0000
  H   H1558     1.0  0.93807  0.25177  0.54370  1.0000
  C   C909      1.0  0.53892  0.04666  0.64344  1.0000
  Fe  Fe131     1.0  0.56120  0.01193  0.50636  1.0000
  H   H1559     1.0  0.95827  0.44712  0.53018  1.0000
  S   S264      1.0  0.96100  0.40180  0.54960  1.0000
  C   C910      1.0  0.54789  0.03271  0.60289  1.0000
  C   C911      1.0  0.91427  0.47978  0.69417  1.0000
  C   C912      1.0  0.78366  0.05357  0.49458  1.0000
  H   H1560     1.0  0.98052  0.30731  0.63736  1.0000
  H   H1561     1.0  0.62260  0.03305  0.50953  1.0000
  H   H1562     1.0  0.95425  0.43086  0.59246  1.0000
  H   H1563     1.0  0.89374  0.48028  0.67082  1.0000
  S   S265      1.0  0.93803  0.46786  0.68067  1.0000
  N   N67       1.0  0.63668  0.06131  0.49096  1.0000
  H   H1564     1.0  0.59183  0.02619  0.60435  1.0000
  C   C913      1.0  0.65204  0.05620  0.50757  1.0000
  H   H1565     1.0  0.94601  0.27159  0.52071  1.0000
  H   H1566     1.0  0.97147  0.33589  0.63719  1.0000
  C   C914      1.0  0.93980  0.44258  0.59665  1.0000
  H   H1567     1.0  0.77982  0.05844  0.50968  1.0000
  N   N68       1.0  0.96309  0.46606  0.60891  1.0000
  H   H1568     1.0  0.92847  0.44451  0.58479  1.0000
  C   C915      1.0  0.61982  0.08050  0.49531  1.0000
  H   H1569     1.0  0.54089  0.05407  0.65656  1.0000
  Fe  Fe132     1.0  0.58427  0.01209  0.54310  1.0000
  C   C916      1.0  0.83725  0.01845  0.49802  1.0000
  H   H1570     1.0  0.93023  0.47899  0.53533  1.0000
  H   H1571     1.0  0.53387  0.06043  0.63024  1.0000
  C   C917      1.0  0.66489  0.01611  0.57550  1.0000
  C   C918      1.0  0.67253  0.03904  0.50449  1.0000
  C   C919      1.0  0.59759  0.99615  0.62751  1.0000
  H   H1572     1.0  0.94753  0.19673  0.51114  1.0000
  Fe  Fe133     1.0  0.97282  0.38027  0.57966  1.0000
  H   H1573     1.0  0.93039  0.48195  0.71979  1.0000
  C   C920      1.0  0.91520  0.48515  0.71335  1.0000
  H   H1574     1.0  0.96391  0.38191  0.68629  1.0000
  C   C921      1.0  0.85158  0.03129  0.50579  1.0000
  C   C922      1.0  0.92005  0.19306  0.49623  1.0000
  H   H1575     1.0  0.93996  0.27852  0.54641  1.0000
  H   H1576     1.0  0.66852  0.02345  0.50264  1.0000
  S   S266      1.0  0.71584  0.99570  0.50486  1.0000
  H   H1577     1.0  0.94826  0.47414  0.57973  1.0000
  H   H1578     1.0  0.58331  0.00399  0.59824  1.0000
  H   H1579     1.0  0.76500  0.02674  0.50455  1.0000
  H   H1580     1.0  0.52563  0.03671  0.64938  1.0000
  H   H1581     1.0  0.57306  0.04401  0.63109  1.0000
  H   H1582     1.0  0.95369  0.28443  0.57436  1.0000
  C   C923      1.0  0.63251  0.01697  0.55967  1.0000
  C   C924      1.0  0.49828  0.02893  0.58777  1.0000
  H   H1583     1.0  0.56612  0.02189  0.65174  1.0000
  C   C925      1.0  0.60548  0.07656  0.51705  1.0000
  H   H1584     1.0  0.53037  0.03680  0.60884  1.0000
  H   H1585     1.0  0.49902  0.08357  0.58099  1.0000
  H   H1586     1.0  0.90351  0.20274  0.49406  1.0000
  H   H1587     1.0  0.95751  0.30722  0.55188  1.0000
  H   H1588     1.0  0.64360  0.04990  0.52365  1.0000
  H   H1589     1.0  0.97924  0.46068  0.64943  1.0000
  C   C926      1.0  0.66700  0.99614  0.54801  1.0000
  C   C927      1.0  0.64272  0.02343  0.57397  1.0000
  C   C928      1.0  0.58316  0.01192  0.61162  1.0000
  H   H1590     1.0  0.98376  0.44232  0.57577  1.0000
  H   H1591     1.0  0.56344  0.05260  0.57395  1.0000
  C   C929      1.0  0.98146  0.29190  0.51833  1.0000
  H   H1592     1.0  0.85957  0.02140  0.51964  1.0000
  H   H1593     1.0  0.98292  0.28513  0.50388  1.0000
  H   H1594     1.0  0.94322  0.48688  0.62896  1.0000
  C   C930      1.0  0.97182  0.38391  0.67006  1.0000
  H   H1595     1.0  0.51246  0.05288  0.56248  1.0000
  H   H1596     1.0  0.93144  0.43510  0.61238  1.0000
  H   H1597     1.0  0.97172  0.24672  0.55778  1.0000
  Fe  Fe134     1.0  0.97172  0.37201  0.53543  1.0000
  C   C931      1.0  0.97059  0.38451  0.63280  1.0000
  C   C932      1.0  0.94766  0.26549  0.53787  1.0000
  H   H1598     1.0  0.62783  0.09500  0.49415  1.0000
  C   C933      1.0  0.94501  0.46536  0.59662  1.0000
  C   C934      1.0  0.98466  0.46613  0.59480  1.0000
  C   C935      1.0  0.55634  0.05415  0.59035  1.0000
  H   H1599     1.0  0.53143  0.00591  0.63752  1.0000
  C   C936      1.0  0.56074  0.03275  0.63680  1.0000
  H   H1600     1.0  0.85020  0.33331  0.49494  1.0000
  H   H1601     1.0  0.56885  0.05889  0.59754  1.0000
  C   C937      1.0  0.67717  0.00270  0.56238  1.0000
  S   S267      1.0  0.97952  0.34969  0.56655  1.0000
  C   C938      1.0  0.94728  0.48002  0.53465  1.0000
  C   C939      1.0  0.97171  0.25688  0.54130  1.0000
  H   H1602     1.0  0.92216  0.21251  0.51855  1.0000
  C   C940      1.0  0.98675  0.28200  0.55685  1.0000
  H   H1603     1.0  0.94785  0.44808  0.63852  1.0000
  H   H1604     1.0  0.59897  0.00344  0.64087  1.0000
  S   S268      1.0  0.50566  0.00742  0.57438  1.0000
  H   H1605     1.0  0.97741  0.24509  0.53071  1.0000
  C   C941      1.0  0.99221  0.38836  0.62814  1.0000
  H   H1606     1.0  0.99377  0.31904  0.52596  1.0000
  H   H1607     1.0  0.92595  0.14058  0.49210  1.0000
  C   C942      1.0  0.99369  0.38693  0.66544  1.0000
  C   C943      1.0  0.94243  0.33762  0.49102  1.0000
  C   C944      1.0  0.92885  0.32250  0.49106  1.0000
  S   S269      1.0  0.70513  0.99453  0.56434  1.0000
  H   H1608     1.0  0.98331  0.43394  0.48989  1.0000
  H   H1609     1.0  0.84547  0.38524  0.49077  1.0000
  C   C945      1.0  0.86343  0.38359  0.48879  1.0000
  C   C946      1.0  0.99404  0.44516  0.58663  1.0000
  C   C947      1.0  0.89295  0.44553  0.76796  1.0000
  H   H1610     1.0  0.79884  0.46035  0.88713  1.0000
  H   H1611     1.0  0.62224  0.47677  0.92732  1.0000
  C   C948      1.0  0.89417  0.42319  0.76231  1.0000
  S   S270      1.0  0.68107  0.44198  0.89487  1.0000
  H   H1612     1.0  0.84520  0.44903  0.80307  1.0000
  H   H1613     1.0  0.71618  0.46079  0.95206  1.0000
  Fe  Fe135     1.0  0.96750  0.42020  0.74764  1.0000
  C   C949      1.0  0.66616  0.39799  0.97836  1.0000
  N   N69       1.0  0.68612  0.40727  0.96608  1.0000
  S   S271      1.0  0.50080  0.20905  0.93975  1.0000
  C   C950      1.0  0.58848  0.47565  0.94346  1.0000
  H   H1614     1.0  0.56389  0.16340  0.78396  1.0000
  C   C951      1.0  0.74032  0.47792  0.95741  1.0000
  C   C952      1.0  0.94755  0.44538  0.79341  1.0000
  H   H1615     1.0  0.63460  0.41483  0.96797  1.0000
  S   S272      1.0  0.87262  0.44269  0.88024  1.0000
  H   H1616     1.0  0.50880  0.12807  0.92393  1.0000
  S   S273      1.0  0.72062  0.48679  0.87377  1.0000
  S   S274      1.0  0.92684  0.46604  0.84815  1.0000
  C   C953      1.0  0.80671  0.48006  0.97869  1.0000
  H   H1617     1.0  0.88479  0.42442  0.74908  1.0000
  H   H1618     1.0  0.76780  0.46644  0.80175  1.0000
  Fe  Fe136     1.0  0.56359  0.42093  0.97931  1.0000
  Fe  Fe137     1.0  0.53488  0.25614  0.92081  1.0000
  S   S275      1.0  0.55010  0.22108  0.93254  1.0000
  S   S276      1.0  0.55443  0.28420  0.91086  1.0000
  Fe  Fe138     1.0  0.52817  0.21227  0.91314  1.0000
  S   S277      1.0  0.53660  0.18343  0.89720  1.0000
  Fe  Fe139     1.0  0.56452  0.42309  0.93234  1.0000
  C   C954      1.0  0.76990  0.47880  0.90058  1.0000
  S   S278      1.0  0.57965  0.44231  0.90132  1.0000
  Fe  Fe140     1.0  0.52102  0.42177  0.96156  1.0000
  H   H1619     1.0  0.90013  0.49053  0.96008  1.0000
  Fe  Fe141     1.0  0.55576  0.38162  0.96423  1.0000
  H   H1620     1.0  0.61602  0.45033  0.93883  1.0000
  S   S279      1.0  0.54575  0.44432  0.95397  1.0000
  S   S280      1.0  0.53797  0.40240  0.93738  1.0000
  H   H1621     1.0  0.85640  0.42617  0.79250  1.0000
  C   C955      1.0  0.78245  0.45718  0.89524  1.0000
  H   H1622     1.0  0.58526  0.47144  0.85763  1.0000
  H   H1623     1.0  0.67048  0.38043  0.98628  1.0000
  H   H1624     1.0  0.73561  0.41935  0.91649  1.0000
  C   C956      1.0  0.74537  0.43284  0.90981  1.0000
  C   C957      1.0  0.79176  0.48456  0.84435  1.0000
  C   C958      1.0  0.55277  0.30295  0.92725  1.0000
  C   C959      1.0  0.53965  0.30089  0.94694  1.0000
  C   C960      1.0  0.54016  0.31482  0.96046  1.0000
  C   C961      1.0  0.55375  0.33096  0.95440  1.0000
  C   C962      1.0  0.56613  0.33372  0.93433  1.0000
  C   C963      1.0  0.56568  0.31970  0.92084  1.0000
  H   H1625     1.0  0.52968  0.28814  0.95211  1.0000
  C   C964      1.0  0.57813  0.48728  0.84810  1.0000
  H   H1626     1.0  0.57677  0.34603  0.92957  1.0000
  H   H1627     1.0  0.57581  0.32151  0.90560  1.0000
  H   H1628     1.0  0.64346  0.45357  0.81285  1.0000
  C   C965      1.0  0.52030  0.12336  0.79690  1.0000
  H   H1629     1.0  0.52802  0.14585  0.88460  1.0000
  C   C966      1.0  0.86758  0.45423  0.95812  1.0000
  H   H1630     1.0  0.56862  0.48415  0.83667  1.0000
  C   C967      1.0  0.79379  0.45980  0.82112  1.0000
  C   C968      1.0  0.61312  0.46731  0.94139  1.0000
  C   C969      1.0  0.54590  0.16669  0.78806  1.0000
  H   H1631     1.0  0.77973  0.48646  0.90841  1.0000
  C   C970      1.0  0.88085  0.47054  0.95106  1.0000
  H   H1632     1.0  0.65349  0.44332  0.96974  1.0000
  C   C971      1.0  0.71560  0.49270  0.93101  1.0000
  H   H1633     1.0  0.67814  0.45534  0.96503  1.0000
  H   H1634     1.0  0.89183  0.42739  0.80997  1.0000
  H   H1635     1.0  0.63339  0.48112  0.84712  1.0000
  C   C972      1.0  0.64660  0.39995  0.96618  1.0000
  C   C973      1.0  0.83317  0.47336  0.76444  1.0000
  H   H1636     1.0  0.71724  0.39642  0.94918  1.0000
  H   H1637     1.0  0.85276  0.44403  0.75744  1.0000
  H   H1638     1.0  0.52863  0.17510  0.96486  1.0000
  H   H1639     1.0  0.65080  0.39948  0.94926  1.0000
  C   C974      1.0  0.80067  0.42631  0.94968  1.0000
  C   C975      1.0  0.80249  0.46623  0.83650  1.0000
  H   H1640     1.0  0.86369  0.46824  0.74447  1.0000
  H   H1641     1.0  0.75526  0.44128  0.93599  1.0000
  H   H1642     1.0  0.61089  0.23783  0.94647  1.0000
  H   H1643     1.0  0.66150  0.46046  0.94441  1.0000
  H   H1644     1.0  0.79091  0.42334  0.87419  1.0000
  C   C976      1.0  0.65298  0.44163  0.89655  1.0000
  C   C977      1.0  0.64418  0.42231  0.90577  1.0000
  C   C978      1.0  0.62159  0.42240  0.90768  1.0000
  C   C979      1.0  0.60787  0.44167  0.89973  1.0000
  C   C980      1.0  0.61679  0.46079  0.89013  1.0000
  C   C981      1.0  0.63919  0.46084  0.88882  1.0000
  H   H1645     1.0  0.65478  0.40722  0.91122  1.0000
  H   H1646     1.0  0.61486  0.40745  0.91477  1.0000
  H   H1647     1.0  0.60640  0.47573  0.88395  1.0000
  H   H1648     1.0  0.64574  0.47582  0.88169  1.0000
  C   C982      1.0  0.51671  0.18034  0.88263  1.0000
  N   N70       1.0  0.78458  0.43783  0.91385  1.0000
  Fe  Fe142     1.0  0.52138  0.22060  0.95791  1.0000
  C   C983      1.0  0.92650  0.42903  0.83387  1.0000
  H   H1649     1.0  0.51774  0.13869  0.97050  1.0000
  C   C984      1.0  0.51621  0.15976  0.87860  1.0000
  C   C985      1.0  0.79511  0.44440  0.92998  1.0000
  C   C986      1.0  0.93140  0.45038  0.82871  1.0000
  H   H1650     1.0  0.91860  0.42255  0.84958  1.0000
  H   H1651     1.0  0.81641  0.42379  0.90060  1.0000
  C   C987      1.0  0.85586  0.45973  0.76006  1.0000
  H   H1652     1.0  0.65880  0.47479  0.81359  1.0000
  H   H1653     1.0  0.87100  0.49079  0.76699  1.0000
  H   H1654     1.0  0.97596  0.41187  0.87283  1.0000
  H   H1655     1.0  0.59010  0.24565  0.92949  1.0000
  C   C988      1.0  0.86100  0.44064  0.79638  1.0000
  H   H1656     1.0  0.80568  0.43394  0.96130  1.0000
  H   H1657     1.0  0.97375  0.38450  0.87277  1.0000
  S   S281      1.0  0.50743  0.25599  0.94748  1.0000
  H   H1658     1.0  0.53329  0.10244  0.82486  1.0000
  H   H1659     1.0  0.70265  0.49083  0.92300  1.0000
  C   C989      1.0  0.51284  0.13089  0.75197  1.0000
  H   H1660     1.0  0.52929  0.13452  0.74460  1.0000
  S   S282      1.0  0.82604  0.45016  0.84631  1.0000
  H   H1661     1.0  0.80648  0.39772  0.88426  1.0000
  C   C990      1.0  0.96289  0.47718  0.97417  1.0000
  H   H1662     1.0  0.91142  0.41727  0.75668  1.0000
  H   H1663     1.0  0.58112  0.46882  0.93278  1.0000
  C   C991      1.0  0.51080  0.08663  0.96252  1.0000
  H   H1664     1.0  0.97363  0.40419  0.83653  1.0000
  C   C992      1.0  0.94204  0.45847  0.80849  1.0000
  C   C993      1.0  0.51540  0.14664  0.98369  1.0000
  C   C994      1.0  0.87445  0.43233  0.81510  1.0000
  H   H1665     1.0  0.88897  0.41059  0.77633  1.0000
  C   C995      1.0  0.50163  0.19833  0.87460  1.0000
  H   H1666     1.0  0.54857  0.12391  0.81233  1.0000
  C   C996      1.0  0.98469  0.39711  0.86718  1.0000
  C   C997      1.0  0.59531  0.24888  0.94368  1.0000
  H   H1667     1.0  0.81050  0.45081  0.92244  1.0000
  H   H1668     1.0  0.81479  0.41402  0.94564  1.0000
  Fe  Fe143     1.0  0.86111  0.46226  0.90545  1.0000
  H   H1669     1.0  0.71208  0.42178  0.97276  1.0000
  H   H1670     1.0  0.77845  0.40249  0.89463  1.0000
  H   H1671     1.0  0.53433  0.25407  0.98240  1.0000
  C   C998      1.0  0.89015  0.47766  0.96567  1.0000
  H   H1672     1.0  0.49784  0.16245  0.75706  1.0000
  H   H1673     1.0  0.79579  0.47895  0.96741  1.0000
  C   C999      1.0  0.52146  0.16738  0.98045  1.0000
  H   H1674     1.0  0.57214  0.28248  0.97205  1.0000
  H   H1675     1.0  0.54769  0.14361  0.76821  1.0000
  H   H1676     1.0  0.51555  0.10234  0.96309  1.0000
  H   H1677     1.0  0.52607  0.07566  0.95847  1.0000
  H   H1678     1.0  0.77453  0.45405  0.88268  1.0000
  C   C1000     1.0  0.53509  0.15623  0.77426  1.0000
  S   S283      1.0  0.51602  0.24743  0.89848  1.0000
  H   H1679     1.0  0.85389  0.43202  0.98548  1.0000
  S   S284      1.0  0.85436  0.44618  0.94027  1.0000
  H   H1680     1.0  0.67942  0.37483  0.94345  1.0000
  H   H1681     1.0  0.99005  0.47587  0.83084  1.0000
  H   H1682     1.0  0.54253  0.16061  0.80542  1.0000
  H   H1683     1.0  0.50534  0.11555  0.80209  1.0000
  H   H1684     1.0  0.90686  0.47974  0.77807  1.0000
  H   H1685     1.0  0.68987  0.39785  0.92421  1.0000
  C   C1001     1.0  0.79989  0.41908  0.90650  1.0000
  H   H1686     1.0  0.87240  0.44465  0.82497  1.0000
  H   H1687     1.0  0.61705  0.23896  0.97983  1.0000
  H   H1688     1.0  0.56238  0.25596  0.95740  1.0000
  H   H1689     1.0  0.89611  0.46629  0.80447  1.0000
  S   S285      1.0  0.88319  0.48726  0.89103  1.0000
  C   C1002     1.0  0.94307  0.42387  0.79863  1.0000
  H   H1690     1.0  0.59788  0.26628  0.93933  1.0000
  H   H1691     1.0  0.76536  0.41385  0.93391  1.0000
  H   H1692     1.0  0.95586  0.45183  0.77802  1.0000
  C   C1003     1.0  0.64786  0.46320  0.82308  1.0000
  S   S286      1.0  0.95054  0.40665  0.78037  1.0000
  C   C1004     1.0  0.69828  0.41309  0.98143  1.0000
  C   C1005     1.0  0.62749  0.47468  0.83512  1.0000
  H   H1693     1.0  0.75156  0.43163  0.89326  1.0000
  H   H1694     1.0  0.53057  0.31262  0.97597  1.0000
  H   H1695     1.0  0.59799  0.46793  0.81484  1.0000
  C   C1006     1.0  0.87190  0.47748  0.78163  1.0000
  S   S287      1.0  0.58393  0.40078  0.95722  1.0000
  H   H1696     1.0  0.53132  0.11311  0.78672  1.0000
  H   H1697     1.0  0.53147  0.16943  0.76001  1.0000
  H   H1698     1.0  0.61825  0.46138  0.84427  1.0000
  N   N71       1.0  0.58180  0.24751  0.98361  1.0000
  C   C1007     1.0  0.76293  0.43101  0.92439  1.0000
  H   H1699     1.0  0.96672  0.49126  0.96101  1.0000
  H   H1700     1.0  0.70675  0.37218  0.93093  1.0000
  H   H1701     1.0  0.94617  0.47487  0.80441  1.0000
  H   H1702     1.0  0.61985  0.46710  0.95604  1.0000
  H   H1703     1.0  0.51368  0.11326  0.75989  1.0000
  N   N72       1.0  0.61329  0.49286  0.82173  1.0000
  H   H1704     1.0  0.78649  0.41820  0.95783  1.0000
  H   H1705     1.0  0.97258  0.44212  0.83566  1.0000
  H   H1706     1.0  0.73352  0.44816  0.90992  1.0000
  H   H1707     1.0  0.75433  0.47623  0.91065  1.0000
  C   C1008     1.0  0.93259  0.41573  0.81894  1.0000
  H   H1708     1.0  0.82258  0.47029  0.97393  1.0000
  H   H1709     1.0  0.80213  0.40456  0.91988  1.0000
  C   C1009     1.0  0.68063  0.42785  0.94948  1.0000
  C   C1010     1.0  0.70140  0.39047  0.95571  1.0000
  N   N73       1.0  0.87075  0.45564  0.77692  1.0000
  Fe  Fe144     1.0  0.68797  0.47592  0.87895  1.0000
  C   C1011     1.0  0.66764  0.44772  0.95793  1.0000
  C   C1012     1.0  0.69349  0.38378  0.93759  1.0000
  S   S288      1.0  0.75006  0.45673  0.97765  1.0000
  C   C1013     1.0  0.50026  0.15708  0.86714  1.0000
  H   H1710     1.0  0.80196  0.44560  0.81506  1.0000
  H   H1711     1.0  0.67099  0.42506  0.93809  1.0000
  H   H1712     1.0  0.69576  0.43312  0.93964  1.0000
  H   H1713     1.0  0.58223  0.46686  0.95947  1.0000
  C   C1014     1.0  0.86402  0.44477  0.97990  1.0000
  H   H1714     1.0  0.92910  0.39909  0.82312  1.0000
  H   H1715     1.0  0.86896  0.41711  0.82528  1.0000
  H   H1716     1.0  0.78437  0.45795  0.93639  1.0000
  H   H1717     1.0  0.50216  0.21431  0.87728  1.0000
  Fe  Fe145     1.0  0.84578  0.46475  0.86321  1.0000
  C   C1015     1.0  0.79315  0.41050  0.88889  1.0000
  H   H1718     1.0  0.82410  0.47536  0.75076  1.0000
  H   H1719     1.0  0.60011  0.27440  0.97037  1.0000
  H   H1720     1.0  0.85761  0.48221  0.79305  1.0000
  C   C1016     1.0  0.72323  0.47571  0.94740  1.0000
  H   H1721     1.0  0.65747  0.45133  0.83494  1.0000
  C   C1017     1.0  0.88616  0.46859  0.98747  1.0000
  H   H1722     1.0  0.50273  0.13360  0.73892  1.0000
  H   H1723     1.0  0.50784  0.16148  0.81224  1.0000
  S   S289      1.0  0.86651  0.48989  0.84523  1.0000
  H   H1724     1.0  0.70522  0.37489  0.96756  1.0000
  H   H1725     1.0  0.57370  0.22778  0.96423  1.0000
  H   H1726     1.0  0.94714  0.47276  0.97241  1.0000
  H   H1727     1.0  0.99271  0.46548  0.80748  1.0000
  H   H1728     1.0  0.90527  0.44309  0.77888  1.0000
  C   C1018     1.0  0.53174  0.12007  0.81671  1.0000
  H   H1729     1.0  0.97597  0.46338  0.97185  1.0000
  Fe  Fe146     1.0  0.89236  0.46946  0.86441  1.0000
  C   C1019     1.0  0.50180  0.14585  0.76733  1.0000
  C   C1020     1.0  0.60479  0.48318  0.80649  1.0000
  S   S290      1.0  0.83261  0.48209  0.88959  1.0000
  H   H1730     1.0  0.49976  0.31428  0.91511  1.0000
  H   H1731     1.0  0.55147  0.47933  0.97622  1.0000
  H   H1732     1.0  0.61839  0.47745  0.79493  1.0000
  C   C1021     1.0  0.77441  0.47150  0.81367  1.0000
  S   S291      1.0  0.55776  0.34468  0.97346  1.0000
  H   H1733     1.0  0.54149  0.18484  0.78414  1.0000
  H   H1734     1.0  0.89935  0.45687  0.75336  1.0000
  C   C1022     1.0  0.57718  0.24468  0.96262  1.0000
  H   H1735     1.0  0.82248  0.48830  0.93736  1.0000
  H   H1736     1.0  0.88377  0.47792  0.93441  1.0000
  H   H1737     1.0  0.50360  0.07859  0.97854  1.0000
  H   H1738     1.0  0.57685  0.48836  0.78935  1.0000
  C   C1023     1.0  0.89243  0.47946  0.79049  1.0000
  N   N74       1.0  0.51471  0.14660  0.78455  1.0000
  C   C1024     1.0  0.49465  0.13939  0.92941  1.0000
  H   H1739     1.0  0.82328  0.46509  0.77876  1.0000
  H   H1740     1.0  0.50367  0.19229  0.77714  1.0000
  H   H1741     1.0  0.79865  0.48999  0.85583  1.0000
  C   C1025     1.0  0.58475  0.27104  0.98091  1.0000
  C   C1026     1.0  0.49994  0.16008  0.79888  1.0000
  H   H1742     1.0  0.83424  0.49012  0.76580  1.0000
  H   H1743     1.0  0.50193  0.15133  0.93484  1.0000
  H   H1744     1.0  0.52237  0.12924  0.82856  1.0000
  H   H1745     1.0  0.63759  0.38600  0.97373  1.0000
  H   H1746     1.0  0.57418  0.49115  0.90277  1.0000
  H   H1747     1.0  0.98715  0.42728  0.80311  1.0000
  H   H1748     1.0  0.50577  0.09400  0.93003  1.0000
  H   H1749     1.0  0.49980  0.14116  0.86431  1.0000
  C   C1027     1.0  0.76303  0.48906  0.82231  1.0000
  S   S292      1.0  0.68097  0.49053  0.84558  1.0000
  H   H1750     1.0  0.76605  0.49080  0.88572  1.0000
  C   C1028     1.0  0.99003  0.44064  0.83726  1.0000
  H   H1751     1.0  0.99003  0.44102  0.85410  1.0000
  H   H1752     1.0  0.49761  0.00326  0.78343  1.0000
  C   C1029     1.0  0.98959  0.40120  0.84280  1.0000
  C   C1030     1.0  0.49560  0.08963  0.94554  1.0000
  H   H1753     1.0  0.60297  0.21621  0.98446  1.0000
  H   H1754     1.0  0.93990  0.50237  0.02999  1.0000
  Fe  Fe147     1.0  0.97500  0.57131  0.18561  1.0000
  C   C1031     1.0  0.50914  0.83500  0.03550  1.0000
  S   S293      1.0  0.98243  0.56869  0.15119  1.0000
  Fe  Fe148     1.0  0.96905  0.52433  0.20152  1.0000
  S   S294      1.0  0.97584  0.51729  0.16907  1.0000
  C   C1032     1.0  0.87059  0.51832  0.17631  1.0000
  H   H1755     1.0  0.53733  0.99373  0.19401  1.0000
  H   H1756     1.0  0.81917  0.50265  0.01769  1.0000
  Fe  Fe149     1.0  0.95448  0.54918  0.15916  1.0000
  S   S295      1.0  0.92922  0.55185  0.13720  1.0000
  H   H1757     1.0  0.97917  0.52426  0.03537  1.0000
  S   S296      1.0  0.94529  0.55485  0.19241  1.0000
  N   N75       1.0  0.98896  0.52616  0.07731  1.0000
  H   H1758     1.0  0.87521  0.50335  0.18843  1.0000
  H   H1759     1.0  0.63570  0.56209  0.01446  1.0000
  H   H1760     1.0  0.51778  0.95407  0.16359  1.0000
  H   H1761     1.0  0.49695  0.86779  0.10506  1.0000
  C   C1033     1.0  0.51660  0.81418  0.03105  1.0000
  C   C1034     1.0  0.52806  0.81217  0.01103  1.0000
  H   H1762     1.0  0.93990  0.55002  0.07675  1.0000
  C   C1035     1.0  0.52499  0.85170  0.00024  1.0000
  C   C1036     1.0  0.51355  0.85370  0.02012  1.0000
  C   C1037     1.0  0.83350  0.49713  0.00697  1.0000
  H   H1763     1.0  0.53389  0.79615  0.00758  1.0000
  C   C1038     1.0  0.64269  0.52775  0.01384  1.0000
  S   S297      1.0  0.96325  0.49691  0.22947  1.0000
  C   C1039     1.0  0.61271  0.51256  0.00722  1.0000
  H   H1764     1.0  0.81403  0.51014  0.19014  1.0000
  S   S298      1.0  0.66987  0.52505  0.01824  1.0000
  H   H1765     1.0  0.53789  0.96139  0.17541  1.0000
  H   H1766     1.0  0.58945  0.50532  0.08133  1.0000
  C   C1040     1.0  0.50846  0.98614  0.17127  1.0000
  H   H1767     1.0  0.85111  0.51441  0.09859  1.0000
  C   C1041     1.0  0.97944  0.56059  0.09328  1.0000
  H   H1768     1.0  0.95893  0.52068  0.09725  1.0000
  C   C1042     1.0  0.59980  0.53330  0.00460  1.0000
  H   H1769     1.0  0.60614  0.49869  0.00560  1.0000
  C   C1043     1.0  0.62949  0.54832  0.01198  1.0000
  C   C1044     1.0  0.85166  0.51798  0.11425  1.0000
  C   C1045     1.0  0.60821  0.55118  0.00701  1.0000
  C   C1046     1.0  0.92579  0.52854  0.12873  1.0000
  C   C1047     1.0  0.93644  0.50757  0.13710  1.0000
  S   S299      1.0  0.97768  0.60000  0.19893  1.0000
  H   H1770     1.0  0.78824  0.50642  0.00658  1.0000
  C   C1048     1.0  0.91081  0.51315  0.10454  1.0000
  C   C1049     1.0  0.91262  0.53117  0.11269  1.0000
  H   H1771     1.0  0.94603  0.50508  0.14985  1.0000
  H   H1772     1.0  0.85450  0.52718  0.18170  1.0000
  H   H1773     1.0  0.90114  0.51544  0.09177  1.0000
  H   H1774     1.0  0.90423  0.54731  0.10620  1.0000
  H   H1775     1.0  0.96294  0.55643  0.09949  1.0000
  H   H1776     1.0  0.98256  0.56037  0.06031  1.0000
  H   H1777     1.0  0.83505  0.52584  0.11952  1.0000
  C   C1050     1.0  0.87100  0.51371  0.15423  1.0000
  H   H1778     1.0  0.51342  0.79965  0.04301  1.0000
  H   H1779     1.0  0.95644  0.54778  0.05185  1.0000
  H   H1780     1.0  0.99207  0.61060  0.23406  1.0000
  H   H1781     1.0  0.93407  0.51101  0.19787  1.0000
  C   C1051     1.0  0.52589  0.96802  0.16390  1.0000
  H   H1782     1.0  0.50795  0.84016  0.10460  1.0000
  C   C1052     1.0  0.85905  0.49628  0.12980  1.0000
  C   C1053     1.0  0.99008  0.55021  0.07430  1.0000
  H   H1783     1.0  0.58273  0.52903  0.06099  1.0000
  H   H1784     1.0  0.53445  0.97330  0.14780  1.0000
  S   S300      1.0  0.57289  0.53631  0.99934  1.0000
  C   C1054     1.0  0.58904  0.51116  0.06403  1.0000
  C   C1055     1.0  0.82666  0.49696  0.18519  1.0000
  H   H1785     1.0  0.59810  0.56709  0.00566  1.0000
  C   C1056     1.0  0.57430  0.49960  0.05528  1.0000
  H   H1786     1.0  0.50136  0.78158  0.00359  1.0000
  H   H1787     1.0  0.60589  0.50951  0.05550  1.0000
  H   H1788     1.0  0.93738  0.52960  0.06366  1.0000
  C   C1057     1.0  0.53208  0.83101  0.99555  1.0000
  S   S301      1.0  0.81513  0.49633  0.08483  1.0000
  H   H1789     1.0  0.50260  0.97856  0.18791  1.0000
  H   H1790     1.0  0.57630  0.50639  0.03790  1.0000
  H   H1791     1.0  0.83971  0.49435  0.19526  1.0000
  C   C1058     1.0  0.63422  0.50981  0.01161  1.0000
  H   H1792     1.0  0.99014  0.51933  0.11142  1.0000
  C   C1059     1.0  0.96592  0.52147  0.08040  1.0000
  C   C1060     1.0  0.94948  0.53838  0.06721  1.0000
  H   H1793     1.0  0.88277  0.52927  0.17513  1.0000
  C   C1061     1.0  0.96598  0.59826  0.22564  1.0000
  H   H1794     1.0  0.80557  0.54139  0.99439  1.0000
  H   H1795     1.0  0.93738  0.58634  0.22210  1.0000
  H   H1796     1.0  0.49952  0.80777  0.12193  1.0000
  H   H1797     1.0  0.86597  0.53002  0.14402  1.0000
  H   H1798     1.0  0.86336  0.52970  0.11132  1.0000
  H   H1799     1.0  0.82888  0.52183  0.15593  1.0000
  H   H1800     1.0  0.97785  0.57874  0.08819  1.0000
  C   C1062     1.0  0.94581  0.59111  0.23289  1.0000
  H   H1801     1.0  0.88834  0.50844  0.14831  1.0000
  H   H1802     1.0  0.98971  0.55561  0.10638  1.0000
  S   S302      1.0  0.50663  0.96895  0.23073  1.0000
  H   H1803     1.0  0.96569  0.50500  0.07751  1.0000
  H   H1804     1.0  0.50864  0.86973  0.02370  1.0000
  H   H1805     1.0  0.77658  0.54499  0.00017  1.0000
  H   H1806     1.0  0.50003  0.84878  0.12976  1.0000
  H   H1807     1.0  0.55711  0.50588  0.06089  1.0000
  H   H1808     1.0  0.84686  0.50456  0.01016  1.0000
  C   C1063     1.0  0.83366  0.50373  0.16092  1.0000
  N   N76       1.0  0.85733  0.49717  0.15289  1.0000
  H   H1809     1.0  0.97025  0.49771  0.99350  1.0000
  H   H1810     1.0  0.82308  0.49641  0.15342  1.0000
  C   C1064     1.0  0.49571  0.85063  0.11362  1.0000
  H   H1811     1.0  0.54388  0.49518  0.03343  1.0000
  C   C1065     1.0  0.79010  0.51488  0.98955  1.0000
  C   C1066     1.0  0.79055  0.53914  0.98903  1.0000
  S   S303      1.0  0.49415  0.83769  0.06020  1.0000
  H   H1812     1.0  0.49447  0.98856  0.16213  1.0000
  S   S304      1.0  0.87703  0.49394  0.06002  1.0000
  C   C1067     1.0  0.50032  0.92192  0.33701  1.0000
  H   H1813     1.0  0.92029  0.58591  0.25923  1.0000
  S   S305      1.0  0.99188  0.76173  0.40714  1.0000
  H   H1814     1.0  0.93809  0.54661  0.30532  1.0000
  H   H1815     1.0  0.89426  0.65233  0.29335  1.0000
  S   S306      1.0  0.87967  0.73827  0.43442  1.0000
  H   H1816     1.0  0.94267  0.72584  0.39827  1.0000
  Fe  Fe150     1.0  0.86991  0.70784  0.43011  1.0000
  S   S307      1.0  0.87918  0.70047  0.39759  1.0000
  C   C1068     1.0  0.96069  0.84866  0.45907  1.0000
  H   H1817     1.0  0.92945  0.59571  0.45096  1.0000
  H   H1818     1.0  0.96557  0.68046  0.45839  1.0000
  C   C1069     1.0  0.85511  0.98778  0.37435  1.0000
  H   H1819     1.0  0.61431  0.99007  0.38587  1.0000
  S   S308      1.0  0.56859  0.97104  0.40431  1.0000
  S   S309      1.0  0.89107  0.92968  0.42848  1.0000
  C   C1070     1.0  0.62638  0.98967  0.39654  1.0000
  S   S310      1.0  0.85247  0.91473  0.39436  1.0000
  Fe  Fe151     1.0  0.95076  0.60088  0.36468  1.0000
  H   H1820     1.0  0.98384  0.55494  0.44405  1.0000
  S   S311      1.0  0.92774  0.60440  0.39455  1.0000
  Fe  Fe152     1.0  0.95572  0.59869  0.31795  1.0000
  H   H1821     1.0  0.95686  0.80426  0.47919  1.0000
  S   S312      1.0  0.93451  0.59626  0.29438  1.0000
  C   C1071     1.0  0.96358  0.50491  0.38723  1.0000
  C   C1072     1.0  0.68037  0.98352  0.46993  1.0000
  C   C1073     1.0  0.96613  0.90715  0.45260  1.0000
  S   S313      1.0  0.90162  0.83068  0.46435  1.0000
  S   S314      1.0  0.95216  0.57342  0.34837  1.0000
  S   S315      1.0  0.95146  0.62653  0.33433  1.0000
  C   C1074     1.0  0.78776  0.95528  0.41410  1.0000
  H   H1822     1.0  0.97146  0.70174  0.42585  1.0000
  H   H1823     1.0  0.89924  0.78503  0.47318  1.0000
  C   C1075     1.0  0.57113  0.97784  0.44347  1.0000
  C   C1076     1.0  0.86891  0.78250  0.46375  1.0000
  H   H1824     1.0  0.93780  0.52092  0.46575  1.0000
  H   H1825     1.0  0.97339  0.64485  0.38225  1.0000
  H   H1826     1.0  0.81016  0.82506  0.48299  1.0000
  H   H1827     1.0  0.92786  0.52208  0.33989  1.0000
  Fe  Fe153     1.0  0.55800  0.97726  0.32803  1.0000
  C   C1077     1.0  0.95984  0.79471  0.46666  1.0000
  C   C1078     1.0  0.80245  0.87392  0.48495  1.0000
  H   H1828     1.0  0.91237  0.52819  0.48115  1.0000
  S   S316      1.0  0.76456  0.97272  0.42228  1.0000
  C   C1079     1.0  0.88107  0.81687  0.46181  1.0000
  C   C1080     1.0  0.93401  0.55240  0.47582  1.0000
  C   C1081     1.0  0.97653  0.52111  0.37729  1.0000
  H   H1829     1.0  0.51376  0.92857  0.32535  1.0000
  H   H1830     1.0  0.70928  0.90104  0.40455  1.0000
  H   H1831     1.0  0.52216  0.92807  0.25949  1.0000
  H   H1832     1.0  0.97323  0.53671  0.38190  1.0000
  H   H1833     1.0  0.64310  0.98772  0.38790  1.0000
  H   H1834     1.0  0.89115  0.98914  0.45166  1.0000
  H   H1835     1.0  0.93048  0.70935  0.38558  1.0000
  H   H1836     1.0  0.78512  0.96569  0.38062  1.0000
  H   H1837     1.0  0.73047  0.89259  0.44563  1.0000
  H   H1838     1.0  0.73908  0.92554  0.45584  1.0000
  H   H1839     1.0  0.96882  0.64933  0.43863  1.0000
  H   H1840     1.0  0.71498  0.98418  0.46459  1.0000
  H   H1841     1.0  0.83089  0.96895  0.40903  1.0000
  H   H1842     1.0  0.57780  0.96059  0.44734  1.0000
  C   C1082     1.0  0.96933  0.54346  0.48845  1.0000
  C   C1083     1.0  0.94479  0.52878  0.30767  1.0000
  H   H1843     1.0  0.93972  0.56416  0.43238  1.0000
  C   C1084     1.0  0.96846  0.54799  0.45021  1.0000
  H   H1844     1.0  0.73672  0.95117  0.36163  1.0000
  H   H1845     1.0  0.50752  0.96450  0.33217  1.0000
  H   H1846     1.0  0.73655  0.90293  0.40692  1.0000
  H   H1847     1.0  0.95026  0.50812  0.39942  1.0000
  H   H1848     1.0  0.93957  0.65856  0.40477  1.0000
  C   C1085     1.0  0.93360  0.74833  0.43926  1.0000
  C   C1086     1.0  0.94957  0.75748  0.42373  1.0000
  C   C1087     1.0  0.97139  0.75261  0.42725  1.0000
  H   H1849     1.0  0.98236  0.49570  0.31366  1.0000
  C   C1088     1.0  0.96116  0.73023  0.46203  1.0000
  H   H1850     1.0  0.91683  0.75226  0.43657  1.0000
  H   H1851     1.0  0.94514  0.76773  0.40880  1.0000
  C   C1089     1.0  0.73768  0.94087  0.37794  1.0000
  H   H1852     1.0  0.95599  0.65571  0.47259  1.0000
  C   C1090     1.0  0.89222  0.67363  0.39714  1.0000
  C   C1091     1.0  0.89030  0.65639  0.41502  1.0000
  C   C1092     1.0  0.90116  0.63512  0.41412  1.0000
  C   C1093     1.0  0.91420  0.63111  0.39546  1.0000
  C   C1094     1.0  0.91615  0.64846  0.37773  1.0000
  C   C1095     1.0  0.90505  0.66957  0.37848  1.0000
  H   H1853     1.0  0.88012  0.65933  0.42939  1.0000
  H   H1854     1.0  0.89941  0.62180  0.42790  1.0000
  H   H1855     1.0  0.92631  0.64583  0.36346  1.0000
  H   H1856     1.0  0.90672  0.68288  0.36466  1.0000
  C   C1096     1.0  0.71937  0.90638  0.41421  1.0000
  H   H1857     1.0  0.98664  0.96865  0.41308  1.0000
  C   C1097     1.0  0.54047  0.95525  0.29049  1.0000
  C   C1098     1.0  0.53617  0.93773  0.28312  1.0000
  C   C1099     1.0  0.52528  0.94167  0.26513  1.0000
  C   C1100     1.0  0.51894  0.96319  0.25420  1.0000
  H   H1858     1.0  0.74912  0.94749  0.38494  1.0000
  C   C1101     1.0  0.53424  0.97673  0.27944  1.0000
  H   H1859     1.0  0.54119  0.92104  0.29141  1.0000
  H   H1860     1.0  0.80541  0.88514  0.46914  1.0000
  H   H1861     1.0  0.66885  0.97208  0.34865  1.0000
  Fe  Fe154     1.0  0.84971  0.69592  0.47535  1.0000
  C   C1102     1.0  0.97160  0.97073  0.44429  1.0000
  C   C1103     1.0  0.79997  0.94152  0.42959  1.0000
  C   C1104     1.0  0.81954  0.92856  0.42362  1.0000
  C   C1105     1.0  0.82684  0.92904  0.40213  1.0000
  C   C1106     1.0  0.81412  0.94207  0.38665  1.0000
  C   C1107     1.0  0.79461  0.95527  0.39262  1.0000
  H   H1862     1.0  0.96493  0.55276  0.26649  1.0000
  H   H1863     1.0  0.88586  0.97587  0.38894  1.0000
  H   H1864     1.0  0.81967  0.94245  0.37001  1.0000
  S   S317      1.0  0.55302  0.94968  0.31384  1.0000
  N   N77       1.0  0.88340  0.81681  0.38998  1.0000
  C   C1108     1.0  0.89713  0.80304  0.40678  1.0000
  C   C1109     1.0  0.86396  0.80557  0.39144  1.0000
  C   C1110     1.0  0.87624  0.83937  0.39479  1.0000
  C   C1111     1.0  0.89733  0.81824  0.36873  1.0000
  C   C1112     1.0  0.91626  0.81305  0.41051  1.0000
  C   C1113     1.0  0.86894  0.78314  0.38517  1.0000
  C   C1114     1.0  0.85494  0.85281  0.38695  1.0000
  C   C1115     1.0  0.88606  0.83026  0.34901  1.0000
  H   H1865     1.0  0.88683  0.79925  0.42237  1.0000
  H   H1866     1.0  0.90445  0.78687  0.40309  1.0000
  H   H1867     1.0  0.85170  0.81563  0.38129  1.0000
  H   H1868     1.0  0.85507  0.80320  0.40789  1.0000
  H   H1869     1.0  0.87362  0.83826  0.41220  1.0000
  H   H1870     1.0  0.88925  0.84982  0.38847  1.0000
  H   H1871     1.0  0.91118  0.82703  0.36804  1.0000
  H   H1872     1.0  0.90556  0.80175  0.36633  1.0000
  H   H1873     1.0  0.92406  0.80179  0.42398  1.0000
  H   H1874     1.0  0.92897  0.81475  0.39651  1.0000
  H   H1875     1.0  0.91089  0.82899  0.41525  1.0000
  H   H1876     1.0  0.88043  0.77104  0.39482  1.0000
  H   H1877     1.0  0.85357  0.77611  0.38799  1.0000
  H   H1878     1.0  0.87520  0.78474  0.36805  1.0000
  H   H1879     1.0  0.85464  0.85458  0.36979  1.0000
  H   H1880     1.0  0.85315  0.86962  0.38973  1.0000
  H   H1881     1.0  0.84051  0.84570  0.39623  1.0000
  H   H1882     1.0  0.88616  0.84822  0.34580  1.0000
  H   H1883     1.0  0.86920  0.82714  0.35016  1.0000
  H   H1884     1.0  0.89491  0.82400  0.33498  1.0000
  N   N78       1.0  0.87837  0.62708  0.33636  1.0000
  C   C1116     1.0  0.88578  0.64924  0.32807  1.0000
  C   C1117     1.0  0.85886  0.62986  0.35292  1.0000
  C   C1118     1.0  0.87204  0.62033  0.31791  1.0000
  C   C1119     1.0  0.89718  0.61113  0.34544  1.0000
  C   C1120     1.0  0.90214  0.65171  0.30746  1.0000
  C   C1121     1.0  0.86318  0.63660  0.37274  1.0000
  C   C1122     1.0  0.85705  0.60267  0.32314  1.0000
  C   C1123     1.0  0.89288  0.58796  0.35751  1.0000
  H   H1885     1.0  0.87160  0.66247  0.32481  1.0000
  H   H1886     1.0  0.89359  0.65362  0.34016  1.0000
  H   H1887     1.0  0.85139  0.61475  0.35892  1.0000
  H   H1888     1.0  0.84566  0.64238  0.34576  1.0000
  H   H1889     1.0  0.86323  0.63477  0.30750  1.0000
  H   H1890     1.0  0.88686  0.61437  0.30765  1.0000
  H   H1891     1.0  0.91073  0.60856  0.33264  1.0000
  H   H1892     1.0  0.90466  0.61800  0.35606  1.0000
  H   H1893     1.0  0.90851  0.66743  0.30465  1.0000
  H   H1894     1.0  0.83048  0.93319  0.47198  1.0000
  C   C1124     1.0  0.96419  0.53486  0.27077  1.0000
  H   H1895     1.0  0.57361  0.98303  0.47434  1.0000
  H   H1896     1.0  0.94844  0.61319  0.45034  1.0000
  H   H1897     1.0  0.95762  0.96273  0.44353  1.0000
  H   H1898     1.0  0.86352  0.58739  0.33389  1.0000
  H   H1899     1.0  0.85553  0.59819  0.30814  1.0000
  H   H1900     1.0  0.84032  0.60901  0.32978  1.0000
  H   H1901     1.0  0.89686  0.57642  0.34665  1.0000
  H   H1902     1.0  0.87621  0.58724  0.36585  1.0000
  H   H1903     1.0  0.53745  0.99032  0.28495  1.0000
  H   H1904     1.0  0.62516  0.97464  0.40934  1.0000
  H   H1905     1.0  0.67860  0.92950  0.41336  1.0000
  H   H1906     1.0  0.94468  0.53839  0.24544  1.0000
  C   C1125     1.0  0.98124  0.90349  0.46705  1.0000
  S   S318      1.0  0.95460  0.90917  0.41341  1.0000
  H   H1907     1.0  0.71087  0.92404  0.45721  1.0000
  C   C1126     1.0  0.88439  0.79398  0.46708  1.0000
  H   H1908     1.0  0.94572  0.79818  0.45765  1.0000
  C   C1127     1.0  0.50742  0.91971  0.35905  1.0000
  Fe  Fe155     1.0  0.98835  0.57048  0.34602  1.0000
  C   C1128     1.0  0.98156  0.79792  0.45233  1.0000
  H   H1909     1.0  0.92344  0.56237  0.46397  1.0000
  S   S319      1.0  0.92056  0.72027  0.47683  1.0000
  H   H1910     1.0  0.90354  0.58184  0.37031  1.0000
  H   H1911     1.0  0.84787  0.63764  0.38396  1.0000
  H   H1912     1.0  0.87541  0.62429  0.38139  1.0000
  H   H1913     1.0  0.93654  0.67899  0.46380  1.0000
  C   C1129     1.0  0.99334  0.54636  0.48706  1.0000
  Fe  Fe156     1.0  0.87448  0.90531  0.41993  1.0000
  H   H1914     1.0  0.83601  0.85918  0.48081  1.0000
  H   H1915     1.0  0.91440  0.72470  0.40332  1.0000
  H   H1916     1.0  0.97139  0.70354  0.38037  1.0000
  S   S320      1.0  0.85772  0.72494  0.48431  1.0000
  Fe  Fe157     1.0  0.92070  0.90372  0.42855  1.0000
  C   C1130     1.0  0.72760  0.93861  0.42477  1.0000
  H   H1917     1.0  0.96584  0.71947  0.47669  1.0000
  H   H1918     1.0  0.51891  0.93133  0.35798  1.0000
  C   C1131     1.0  0.94480  0.51939  0.33177  1.0000
  H   H1919     1.0  0.98500  0.78512  0.44277  1.0000
  Fe  Fe158     1.0  0.88240  0.91147  0.46192  1.0000
  C   C1132     1.0  0.84630  0.81677  0.45057  1.0000
  C   C1133     1.0  0.96591  0.84735  0.40648  1.0000
  H   H1920     1.0  0.72258  0.87345  0.43390  1.0000
  H   H1921     1.0  0.97577  0.58307  0.46383  1.0000
  H   H1922     1.0  0.98480  0.53116  0.31699  1.0000
  N   N79       1.0  0.98301  0.82024  0.43789  1.0000
  C   C1134     1.0  0.94709  0.59634  0.44940  1.0000
  C   C1135     1.0  0.93057  0.71469  0.40041  1.0000
  H   H1923     1.0  0.74450  0.92403  0.37597  1.0000
  H   H1924     1.0  0.85320  0.97466  0.41819  1.0000
  Fe  Fe159     1.0  0.98764  0.61946  0.33432  1.0000
  C   C1136     1.0  0.95295  0.67016  0.45933  1.0000
  C   C1137     1.0  0.93950  0.73412  0.45814  1.0000
  H   H1925     1.0  0.86824  0.65303  0.36882  1.0000
  H   H1926     1.0  0.97311  0.55552  0.30017  1.0000
  C   C1138     1.0  0.56499  0.98738  0.42318  1.0000
  H   H1927     1.0  0.95179  0.58533  0.48236  1.0000
  H   H1928     1.0  0.93980  0.65299  0.44118  1.0000
  H   H1929     1.0  0.93259  0.70324  0.43340  1.0000
  S   S321      1.0  0.88332  0.68653  0.45924  1.0000
  H   H1930     1.0  0.94860  0.82844  0.43354  1.0000
  C   C1139     1.0  0.99143  0.96241  0.42940  1.0000
  S   S322      1.0  0.90498  0.88094  0.41681  1.0000
  H   H1931     1.0  0.72671  0.95666  0.41918  1.0000
  S   S323      1.0  0.58722  0.97552  0.34441  1.0000
  C   C1140     1.0  0.56873  0.99050  0.45878  1.0000
  H   H1932     1.0  0.99254  0.94426  0.43260  1.0000
  C   C1141     1.0  0.97409  0.68989  0.41532  1.0000
  H   H1933     1.0  0.95164  0.67854  0.38545  1.0000
  C   C1142     1.0  0.72372  0.93398  0.44936  1.0000
  H   H1934     1.0  0.83985  0.97118  0.48067  1.0000
  H   H1935     1.0  0.95157  0.53714  0.42875  1.0000
  H   H1936     1.0  0.91632  0.63847  0.30830  1.0000
  H   H1937     1.0  0.91909  0.68700  0.42282  1.0000
  C   C1143     1.0  0.52386  0.98061  0.26116  1.0000
  H   H1938     1.0  0.51698  0.90314  0.36385  1.0000
  C   C1144     1.0  0.97412  0.65008  0.39708  1.0000
  H   H1939     1.0  0.87206  0.76487  0.46730  1.0000
  N   N80       1.0  0.95420  0.67905  0.41825  1.0000
  C   C1145     1.0  0.95393  0.66193  0.43887  1.0000
  C   C1146     1.0  0.95392  0.66725  0.40097  1.0000
  C   C1147     1.0  0.93362  0.69543  0.41977  1.0000
  C   C1148     1.0  0.96720  0.60406  0.26088  1.0000
  H   H1940     1.0  0.63215  0.98677  0.33759  1.0000
  H   H1941     1.0  0.93233  0.52138  0.30299  1.0000
  Fe  Fe160     1.0  0.56303  0.98698  0.37037  1.0000
  N   N81       1.0  0.96651  0.52554  0.29405  1.0000
  H   H1942     1.0  0.96944  0.86109  0.41231  1.0000
  H   H1943     1.0  0.99247  0.83003  0.46419  1.0000
  C   C1149     1.0  0.69916  0.99249  0.46051  1.0000
  C   C1150     1.0  0.96490  0.82627  0.42411  1.0000
  S   S324      1.0  0.91342  0.88766  0.46286  1.0000
  S   S325      1.0  0.98679  0.59521  0.36564  1.0000
  C   C1151     1.0  0.97657  0.60487  0.23966  1.0000
  H   H1944     1.0  0.97549  0.60919  0.27153  1.0000
  C   C1152     1.0  0.93017  0.52846  0.47930  1.0000
  H   H1945     1.0  0.50069  0.90514  0.33461  1.0000
  H   H1946     1.0  0.95454  0.52781  0.33886  1.0000
  H   H1947     1.0  0.88732  0.97061  0.47672  1.0000
  H   H1948     1.0  0.95522  0.59435  0.43344  1.0000
  H   H1949     1.0  0.82914  0.91866  0.43568  1.0000
  C   C1153     1.0  0.86188  0.82831  0.45382  1.0000
  H   H1950     1.0  0.79434  0.86087  0.48273  1.0000
  H   H1951     1.0  0.67735  0.96933  0.40753  1.0000
  Fe  Fe161     1.0  0.88996  0.71780  0.46499  1.0000
  C   C1154     1.0  0.95859  0.58004  0.46725  1.0000
  H   H1952     1.0  0.70178  0.89170  0.44536  1.0000
  H   H1953     1.0  0.70388  0.93674  0.38174  1.0000
  N   N82       1.0  0.95745  0.55606  0.46983  1.0000
  H   H1954     1.0  0.69000  0.96630  0.43117  1.0000
  C   C1155     1.0  0.97324  0.90498  0.43167  1.0000
  H   H1955     1.0  0.68554  0.92519  0.43904  1.0000
  H   H1956     1.0  0.92883  0.54337  0.26948  1.0000
  C   C1156     1.0  0.94310  0.53268  0.26302  1.0000
  H   H1957     1.0  0.96512  0.55992  0.41637  1.0000
  S   S326      1.0  0.83158  0.77931  0.44931  1.0000
  H   H1958     1.0  0.85933  0.84599  0.44952  1.0000
  S   S327      1.0  0.83566  0.71546  0.44576  1.0000
  C   C1157     1.0  0.95515  0.55269  0.43125  1.0000
  C   C1158     1.0  0.67973  0.95899  0.42353  1.0000
  H   H1959     1.0  0.79466  0.94149  0.44623  1.0000
  C   C1159     1.0  0.68898  0.93489  0.42270  1.0000
  C   C1160     1.0  0.97702  0.73955  0.44668  1.0000
  H   H1960     1.0  0.70872  0.96023  0.38887  1.0000
  H   H1961     1.0  0.66341  0.95967  0.43319  1.0000
  Fe  Fe162     1.0  0.84694  0.74388  0.45321  1.0000
  H   H1962     1.0  0.94904  0.91200  0.45758  1.0000
  H   H1963     1.0  0.97362  0.52987  0.45434  1.0000
  C   C1161     1.0  0.99388  0.51699  0.36167  1.0000
  H   H1964     1.0  0.74493  0.93185  0.42018  1.0000
  H   H1965     1.0  0.96470  0.81261  0.41625  1.0000
  H   H1966     1.0  0.64542  0.98760  0.47178  1.0000
  H   H1967     1.0  0.84491  0.97911  0.36780  1.0000
  C   C1162     1.0  0.93611  0.59100  0.25389  1.0000
  S   S328      1.0  0.86346  0.88913  0.45354  1.0000
  C   C1163     1.0  0.94686  0.59728  0.26798  1.0000
  N   N83       1.0  0.71270  0.93052  0.41369  1.0000
  C   C1164     1.0  0.83778  0.98261  0.41177  1.0000
  C   C1165     1.0  0.98184  0.70242  0.39261  1.0000
  H   H1968     1.0  0.71966  0.94970  0.45462  1.0000
  H   H1969     1.0  0.88385  0.96458  0.36714  1.0000
  H   H1970     1.0  0.94994  0.85272  0.40030  1.0000
  H   H1971     1.0  0.97569  0.90524  0.48321  1.0000
  C   C1166     1.0  0.71457  0.94243  0.39055  1.0000
  C   C1167     1.0  0.84992  0.79380  0.45532  1.0000
  Fe  Fe163     1.0  0.89542  0.86689  0.45123  1.0000
  H   H1972     1.0  0.82179  0.97784  0.44431  1.0000
  H   H1973     1.0  0.86855  0.95537  0.39209  1.0000
  S   S329      1.0  0.70692  0.99210  0.34493  1.0000
  H   H1974     1.0  0.99163  0.85075  0.44036  1.0000
  C   C1168     1.0  0.87442  0.97008  0.38135  1.0000
  H   H1975     1.0  0.83173  0.82561  0.44387  1.0000
  C   C1169     1.0  0.71826  0.89054  0.43621  1.0000
  H   H1976     1.0  0.93992  0.51557  0.26685  1.0000
  H   H1977     1.0  0.95560  0.86409  0.44763  1.0000
  C   C1170     1.0  0.98310  0.83721  0.45047  1.0000
  H   H1978     1.0  0.95049  0.50145  0.33552  1.0000
  H   H1979     1.0  0.98319  0.71949  0.39295  1.0000
  C   C1171     1.0  0.66502  0.98921  0.34102  1.0000
  H   H1980     1.0  0.98952  0.65676  0.39495  1.0000
  H   H1981     1.0  0.94750  0.83859  0.46332  1.0000
  H   H1982     1.0  0.97448  0.63509  0.41003  1.0000
  H   H1983     1.0  0.97808  0.52750  0.26043  1.0000
  S   S330      1.0  0.53386  0.98551  0.35550  1.0000
  C   C1172     1.0  0.98125  0.53830  0.30043  1.0000
  H   H1984     1.0  0.97442  0.96672  0.46110  1.0000
  H   H1985     1.0  0.97829  0.84436  0.39284  1.0000
  H   H1986     1.0  0.86853  0.97477  0.45737  1.0000
  C   C1173     1.0  0.97698  0.50180  0.29759  1.0000
  H   H1987     1.0  0.96645  0.98869  0.43904  1.0000
  C   C1174     1.0  0.82244  0.99133  0.42986  1.0000
  H   H1988     1.0  0.96084  0.77717  0.47507  1.0000
  H   H1989     1.0  0.98821  0.67742  0.42063  1.0000
  C   C1175     1.0  0.87851  0.98287  0.46458  1.0000
  H   H1990     1.0  0.96233  0.85384  0.47368  1.0000
  C   C1176     1.0  0.83190  0.98620  0.48631  1.0000
  H   H1991     1.0  0.99369  0.73627  0.44988  1.0000
  H   H1992     1.0  0.99247  0.49989  0.28671  1.0000
  S   S331      1.0  0.99216  0.59417  0.31453  1.0000
  H   H1993     1.0  0.62881  0.95019  0.60437  1.0000
  C   C1177     1.0  0.95951  0.57026  0.62655  1.0000
  H   H1994     1.0  0.93599  0.64805  0.50934  1.0000
  H   H1995     1.0  0.60727  0.94328  0.57014  1.0000
  C   C1178     1.0  0.85445  0.58279  0.60473  1.0000
  H   H1996     1.0  0.65704  0.93542  0.52517  1.0000
  H   H1997     1.0  0.94407  0.67303  0.56950  1.0000
  H   H1998     1.0  0.95578  0.58540  0.71128  1.0000
  H   H1999     1.0  0.87034  0.53694  0.64073  1.0000
  H   H2000     1.0  0.56969  0.86472  0.59649  1.0000
  H   H2001     1.0  0.52902  0.94786  0.56157  1.0000
  S   S332      1.0  0.68286  0.95944  0.48960  1.0000
  S   S333      1.0  0.54066  0.98696  0.52569  1.0000
  C   C1179     1.0  0.97118  0.51532  0.70948  1.0000
  H   H2002     1.0  0.79319  0.92756  0.48940  1.0000
  S   S334      1.0  0.86864  0.57974  0.72335  1.0000
  H   H2003     1.0  0.97866  0.53962  0.68118  1.0000
  H   H2004     1.0  0.81933  0.96479  0.51608  1.0000
  H   H2005     1.0  0.79121  0.88389  0.49522  1.0000
  S   S335      1.0  0.91142  0.54273  0.71615  1.0000
  Fe  Fe164     1.0  0.90414  0.57914  0.71052  1.0000
  S   S336      1.0  0.91470  0.60020  0.67846  1.0000
  Fe  Fe165     1.0  0.92182  0.59567  0.55779  1.0000
  S   S337      1.0  0.95409  0.60513  0.55853  1.0000
  S   S338      1.0  0.89106  0.61615  0.56892  1.0000
  Fe  Fe166     1.0  0.94226  0.55197  0.54602  1.0000
  H   H2006     1.0  0.98035  0.51552  0.53692  1.0000
  H   H2007     1.0  0.90443  0.72595  0.54380  1.0000
  C   C1180     1.0  0.51429  0.95208  0.57255  1.0000
  H   H2008     1.0  0.52868  0.90233  0.56633  1.0000
  H   H2009     1.0  0.94846  0.69584  0.53532  1.0000
  S   S339      1.0  0.92946  0.56159  0.57696  1.0000
  S   S340      1.0  0.93107  0.58540  0.52678  1.0000
  C   C1181     1.0  0.63850  0.91802  0.55404  1.0000
  C   C1182     1.0  0.61969  0.90216  0.59966  1.0000
  C   C1183     1.0  0.66299  0.93690  0.56550  1.0000
  S   S341      1.0  0.55019  0.87652  0.63568  1.0000
  Fe  Fe167     1.0  0.71266  0.96188  0.50269  1.0000
  Fe  Fe168     1.0  0.52431  0.89477  0.65587  1.0000
  C   C1184     1.0  0.56369  0.92792  0.58750  1.0000
  H   H2010     1.0  0.84869  0.59492  0.63363  1.0000
  H   H2011     1.0  0.55113  0.92325  0.62081  1.0000
  N   N84       1.0  0.64116  0.92904  0.57125  1.0000
  Fe  Fe169     1.0  0.96423  0.59227  0.52873  1.0000
  H   H2012     1.0  0.80326  0.86841  0.53299  1.0000
  H   H2013     1.0  0.56789  0.89360  0.72823  1.0000
  C   C1185     1.0  0.95392  0.50847  0.59952  1.0000
  H   H2014     1.0  0.88882  0.61162  0.63885  1.0000
  H   H2015     1.0  0.88606  0.54625  0.61632  1.0000
  C   C1186     1.0  0.93231  0.58830  0.65888  1.0000
  C   C1187     1.0  0.93915  0.56562  0.66198  1.0000
  H   H2016     1.0  0.95842  0.53915  0.64869  1.0000
  H   H2017     1.0  0.80943  0.80123  0.50448  1.0000
  C   C1188     1.0  0.95229  0.59288  0.62314  1.0000
  C   C1189     1.0  0.93908  0.60189  0.63942  1.0000
  H   H2018     1.0  0.94047  0.50879  0.59045  1.0000
  H   H2019     1.0  0.85672  0.98488  0.54357  1.0000
  H   H2020     1.0  0.96387  0.50675  0.70018  1.0000
  H   H2021     1.0  0.93380  0.61943  0.63681  1.0000
  Fe  Fe170     1.0  0.57152  0.96984  0.53891  1.0000
  H   H2022     1.0  0.81719  0.90388  0.54987  1.0000
  H   H2023     1.0  0.62236  0.91244  0.55698  1.0000
  H   H2024     1.0  0.89225  0.56692  0.66465  1.0000
  C   C1190     1.0  0.80651  0.92369  0.49883  1.0000
  H   H2025     1.0  0.87440  0.61623  0.61592  1.0000
  H   H2026     1.0  0.65081  0.90292  0.55394  1.0000
  S   S342      1.0  0.97620  0.55788  0.54578  1.0000
  H   H2027     1.0  0.66019  0.96091  0.58552  1.0000
  H   H2028     1.0  0.92756  0.72037  0.55862  1.0000
  H   H2029     1.0  0.89403  0.70702  0.51729  1.0000
  H   H2030     1.0  0.84027  0.57622  0.60209  1.0000
  C   C1191     1.0  0.62281  0.94803  0.57196  1.0000
  H   H2031     1.0  0.53843  0.92154  0.53337  1.0000
  C   C1192     1.0  0.54815  0.98327  0.61888  1.0000
  S   S343      1.0  0.58000  0.93305  0.54484  1.0000
  H   H2032     1.0  0.97916  0.50241  0.72175  1.0000
  C   C1193     1.0  0.64109  0.91173  0.59169  1.0000
  C   C1194     1.0  0.87587  0.57108  0.65920  1.0000
  H   H2033     1.0  0.68708  0.95091  0.57570  1.0000
  C   C1195     1.0  0.55740  0.91532  0.60772  1.0000
  C   C1196     1.0  0.84844  0.65602  0.51876  1.0000
  C   C1197     1.0  0.86979  0.64671  0.51238  1.0000
  C   C1198     1.0  0.88297  0.63399  0.52766  1.0000
  C   C1199     1.0  0.87484  0.63086  0.54928  1.0000
  C   C1200     1.0  0.85358  0.64029  0.55559  1.0000
  C   C1201     1.0  0.84032  0.65258  0.54036  1.0000
  H   H2034     1.0  0.67347  0.93346  0.59708  1.0000
  H   H2035     1.0  0.89943  0.62688  0.52270  1.0000
  H   H2036     1.0  0.84730  0.63807  0.57229  1.0000
  H   H2037     1.0  0.82384  0.65977  0.54529  1.0000
  C   C1202     1.0  0.84477  0.92228  0.50122  1.0000
  H   H2038     1.0  0.96956  0.52551  0.49082  1.0000
  C   C1203     1.0  0.84096  0.91420  0.52318  1.0000
  C   C1204     1.0  0.98202  0.55776  0.71554  1.0000
  H   H2039     1.0  0.85420  0.91083  0.53268  1.0000
  Fe  Fe171     1.0  0.50977  0.93645  0.67133  1.0000
  H   H2040     1.0  0.51497  0.91810  0.52369  1.0000
  C   C1205     1.0  0.84374  0.84871  0.52462  1.0000
  H   H2041     1.0  0.59165  0.98018  0.63376  1.0000
  S   S344      1.0  0.50651  0.92745  0.64113  1.0000
  H   H2042     1.0  0.55170  0.92725  0.71097  1.0000
  C   C1206     1.0  0.50481  0.93157  0.58546  1.0000
  C   C1207     1.0  0.80201  0.83521  0.55061  1.0000
  H   H2043     1.0  0.65443  0.89776  0.58998  1.0000
  Fe  Fe172     1.0  0.96253  0.57010  0.57553  1.0000
  H   H2044     1.0  0.84126  0.86439  0.53006  1.0000
  H   H2045     1.0  0.84545  0.83535  0.53909  1.0000
  Fe  Fe173     1.0  0.75141  0.98631  0.49472  1.0000
  S   S345      1.0  0.85673  0.52038  0.72509  1.0000
  C   C1208     1.0  0.51363  0.90868  0.55852  1.0000
  S   S346      1.0  0.74761  0.95379  0.48936  1.0000
  H   H2046     1.0  0.94568  0.67331  0.50635  1.0000
  C   C1209     1.0  0.82441  0.86508  0.49376  1.0000
  C   C1210     1.0  0.96491  0.57305  0.70233  1.0000
  H   H2047     1.0  0.83168  0.81184  0.52349  1.0000
  H   H2048     1.0  0.86419  0.96491  0.50741  1.0000
  H   H2049     1.0  0.81449  0.83524  0.56066  1.0000
  H   H2050     1.0  0.78594  0.83985  0.55971  1.0000
  H   H2051     1.0  0.80240  0.81844  0.54837  1.0000
  S   S347      1.0  0.97633  0.55870  0.60655  1.0000
  C   C1211     1.0  0.54598  0.93994  0.72044  1.0000
  H   H2052     1.0  0.93366  0.55480  0.67650  1.0000
  H   H2053     1.0  0.86697  0.86028  0.49636  1.0000
  H   H2054     1.0  0.97311  0.54832  0.72990  1.0000
  H   H2055     1.0  0.90421  0.53271  0.65953  1.0000
  N   N85       1.0  0.91986  0.68022  0.54775  1.0000
  C   C1212     1.0  0.92603  0.67493  0.56998  1.0000
  C   C1213     1.0  0.93043  0.69969  0.53537  1.0000
  C   C1214     1.0  0.92901  0.66056  0.53816  1.0000
  C   C1215     1.0  0.89530  0.68466  0.54940  1.0000
  C   C1216     1.0  0.91865  0.65408  0.58502  1.0000
  H   H2056     1.0  0.90713  0.51686  0.64005  1.0000
  C   C1217     1.0  0.86624  0.84700  0.51089  1.0000
  C   C1218     1.0  0.88499  0.69499  0.52878  1.0000
  C   C1219     1.0  0.81330  0.97867  0.50346  1.0000
  C   C1220     1.0  0.92235  0.72121  0.54305  1.0000
  H   H2057     1.0  0.61667  0.89196  0.58927  1.0000
  H   H2058     1.0  0.98220  0.63500  0.52749  1.0000
  H   H2059     1.0  0.94553  0.65336  0.54275  1.0000
  H   H2060     1.0  0.91881  0.64736  0.54446  1.0000
  H   H2061     1.0  0.88843  0.66918  0.55623  1.0000
  H   H2062     1.0  0.88806  0.69501  0.56107  1.0000
  H   H2063     1.0  0.92403  0.65208  0.60079  1.0000
  H   H2064     1.0  0.90067  0.65513  0.58769  1.0000
  C   C1221     1.0  0.90478  0.53394  0.64226  1.0000
  H   H2065     1.0  0.64472  0.91767  0.60502  1.0000
  N   N86       1.0  0.87732  0.57004  0.63623  1.0000
  C   C1222     1.0  0.82008  0.91026  0.53289  1.0000
  S   S348      1.0  0.56612  0.98717  0.56550  1.0000
  C   C1223     1.0  0.85530  0.57903  0.62891  1.0000
  S   S349      1.0  0.52039  0.96760  0.67230  1.0000
  H   H2066     1.0  0.88263  0.68225  0.52088  1.0000
  H   H2067     1.0  0.94929  0.52247  0.60752  1.0000
  H   H2068     1.0  0.86871  0.70446  0.53272  1.0000
  C   C1224     1.0  0.84748  0.97941  0.53333  1.0000
  Fe  Fe174     1.0  0.87676  0.54317  0.73132  1.0000
  H   H2069     1.0  0.92972  0.73465  0.53145  1.0000
  H   H2070     1.0  0.86978  0.58806  0.66139  1.0000
  C   C1225     1.0  0.49863  0.98256  0.68541  1.0000
  H   H2071     1.0  0.84331  0.56790  0.63704  1.0000
  H   H2072     1.0  0.52821  0.94456  0.72068  1.0000
  H   H2073     1.0  0.66303  0.95028  0.55090  1.0000
  H   H2074     1.0  0.56191  0.94539  0.58524  1.0000
  C   C1226     1.0  0.80424  0.85208  0.52927  1.0000
  C   C1227     1.0  0.57445  0.89496  0.57388  1.0000
  H   H2075     1.0  0.58107  0.88696  0.56086  1.0000
  H   H2076     1.0  0.90304  0.61591  0.61269  1.0000
  H   H2077     1.0  0.62858  0.94759  0.52945  1.0000
  S   S350      1.0  0.93294  0.52185  0.53982  1.0000
  H   H2078     1.0  0.55333  0.95465  0.71161  1.0000
  H   H2079     1.0  0.63609  0.92274  0.52040  1.0000
  H   H2080     1.0  0.60109  0.95679  0.59945  1.0000
  H   H2081     1.0  0.62550  0.96177  0.55802  1.0000
  H   H2082     1.0  0.92611  0.63904  0.57927  1.0000
  C   C1228     1.0  0.64021  0.93205  0.53111  1.0000
  H   H2083     1.0  0.86124  0.55869  0.69121  1.0000
  C   C1229     1.0  0.82753  0.82504  0.50942  1.0000
  C   C1230     1.0  0.86076  0.55654  0.67503  1.0000
  C   C1231     1.0  0.97545  0.50068  0.53548  1.0000
  H   H2084     1.0  0.60549  0.91510  0.60141  1.0000
  S   S351      1.0  0.75931  0.97319  0.52810  1.0000
  H   H2085     1.0  0.87125  0.83084  0.50656  1.0000
  H   H2086     1.0  0.85167  0.60063  0.59749  1.0000
  C   C1232     1.0  0.98748  0.52908  0.69434  1.0000
  C   C1233     1.0  0.95310  0.55669  0.64608  1.0000
  H   H2087     1.0  0.91700  0.67289  0.50669  1.0000
  C   C1234     1.0  0.52034  0.92351  0.53662  1.0000
  C   C1235     1.0  0.57205  0.91780  0.57046  1.0000
  C   C1236     1.0  0.93186  0.66427  0.51374  1.0000
  C   C1237     1.0  0.80278  0.91526  0.52079  1.0000
  C   C1238     1.0  0.67090  0.94590  0.58222  1.0000
  H   H2088     1.0  0.91904  0.68853  0.57819  1.0000
  S   S352      1.0  0.71772  0.94593  0.53628  1.0000
  H   H2089     1.0  0.91932  0.54106  0.63346  1.0000
  H   H2090     1.0  0.86621  0.53895  0.67530  1.0000
  H   H2091     1.0  0.96888  0.51163  0.58834  1.0000
  Fe  Fe175     1.0  0.75320  0.94122  0.52335  1.0000
  C   C1239     1.0  0.87740  0.50204  0.71460  1.0000
  C   C1240     1.0  0.89437  0.58336  0.62347  1.0000
  H   H2092     1.0  0.95722  0.60345  0.60809  1.0000
  H   H2093     1.0  0.51460  0.94125  0.53497  1.0000
  H   H2094     1.0  0.50888  0.89404  0.55510  1.0000
  H   H2095     1.0  0.86899  0.57500  0.59569  1.0000
  H   H2096     1.0  0.84641  0.96183  0.54048  1.0000
  H   H2097     1.0  0.84354  0.56126  0.67204  1.0000
  H   H2098     1.0  0.52507  0.90689  0.73584  1.0000
  H   H2099     1.0  0.67599  0.92340  0.56160  1.0000
  Fe  Fe176     1.0  0.72306  0.97925  0.53770  1.0000
  C   C1241     1.0  0.56807  0.88237  0.59404  1.0000
  H   H2100     1.0  0.62085  0.89117  0.61564  1.0000
  C   C1242     1.0  0.85981  0.98172  0.51049  1.0000
  H   H2101     1.0  0.51820  0.92117  0.59396  1.0000
  H   H2102     1.0  0.92831  0.70356  0.51839  1.0000
  N   N87       1.0  0.82455  0.84754  0.51409  1.0000
  S   S353      1.0  0.52993  0.90488  0.68473  1.0000
  H   H2103     1.0  0.87874  0.84873  0.52021  1.0000
  H   H2104     1.0  0.91022  0.57725  0.62967  1.0000
  H   H2105     1.0  0.51970  0.95988  0.58379  1.0000
  H   H2106     1.0  0.89767  0.58146  0.60680  1.0000
  H   H2107     1.0  0.97208  0.58223  0.68685  1.0000
  C   C1243     1.0  0.61816  0.95784  0.59197  1.0000
  C   C1244     1.0  0.55921  0.89254  0.61092  1.0000
  H   H2108     1.0  0.61968  0.97554  0.58723  1.0000
  C   C1245     1.0  0.88367  0.54674  0.63344  1.0000
  H   H2109     1.0  0.95286  0.56372  0.69984  1.0000
  S   S354      1.0  0.77669  0.91059  0.53324  1.0000
  C   C1246     1.0  0.88948  0.60814  0.62296  1.0000
  H   H2110     1.0  0.80329  0.99214  0.51032  1.0000
  S   S355      1.0  0.87089  0.92741  0.48949  1.0000
  H   H2111     1.0  0.78915  0.85332  0.52220  1.0000
  H   H2112     1.0  0.95760  0.52559  0.71717  1.0000
  H   H2113     1.0  0.84204  0.82270  0.49743  1.0000
  S   S356      1.0  0.83175  0.67230  0.50014  1.0000
  C   C1247     1.0  0.80873  0.81934  0.50055  1.0000
  H   H2114     1.0  0.56461  0.97590  0.61278  1.0000
  H   H2115     1.0  0.79237  0.82577  0.50770  1.0000
  H   H2116     1.0  0.80207  0.97231  0.49591  1.0000
  H   H2117     1.0  0.67646  0.98585  0.53773  1.0000
  H   H2118     1.0  0.81809  0.56146  0.72910  1.0000
  H   H2119     1.0  0.96073  0.54787  0.50353  1.0000
  H   H2120     1.0  0.89814  0.50110  0.73791  1.0000
  H   H2121     1.0  0.54023  0.96952  0.62919  1.0000
  H   H2122     1.0  0.86082  0.49995  0.68912  1.0000
  H   H2123     1.0  0.83021  0.87984  0.49578  1.0000
  C   C1248     1.0  0.89683  0.49619  0.72355  1.0000
  H   H2124     1.0  0.50216  0.96462  0.56404  1.0000
  H   H2125     1.0  0.83070  0.98840  0.53463  1.0000
  H   H2126     1.0  0.54870  0.87667  0.72662  1.0000
  H   H2127     1.0  0.51711  0.87813  0.59607  1.0000
  S   S357      1.0  0.98136  0.60823  0.49728  1.0000
  C   C1249     1.0  0.50160  0.88485  0.60467  1.0000
  H   H2128     1.0  0.50508  0.89291  0.61668  1.0000
  H   H2129     1.0  0.87568  0.98686  0.51080  1.0000
  C   C1250     1.0  0.95337  0.49944  0.53653  1.0000
  H   H2130     1.0  0.87602  0.64912  0.49568  1.0000
  S   S358      1.0  0.59280  0.99316  0.51735  1.0000
  H   H2131     1.0  0.55588  0.99110  0.64673  1.0000
  H   H2132     1.0  0.53806  0.99037  0.60581  1.0000
  H   H2133     1.0  0.99031  0.56846  0.72167  1.0000
  H   H2134     1.0  0.93599  0.51812  0.49417  1.0000
  C   C1251     1.0  0.99158  0.64142  0.51261  1.0000
  C   C1252     1.0  0.87590  0.49555  0.69603  1.0000
  H   H2135     1.0  0.61434  0.99276  0.61916  1.0000
  Fe  Fe177     1.0  0.49761  0.89465  0.69963  1.0000
  N   N88       1.0  0.49579  0.91870  0.57339  1.0000
  C   C1253     1.0  0.82762  0.92678  0.48896  1.0000
  C   C1254     1.0  0.55501  0.88420  0.73754  1.0000
  H   H2136     1.0  0.92692  0.55803  0.49075  1.0000
  C   C1255     1.0  0.99387  0.63119  0.49555  1.0000
  N   N89       1.0  0.80922  0.50366  0.97684  1.0000
  H   H2137     1.0  0.81771  0.53120  0.75745  1.0000
  S   S359      1.0  0.85837  0.59656  0.77759  1.0000
  H   H2138     1.0  0.49991  0.81628  0.98261  1.0000
  C   C1256     1.0  0.50383  0.93854  0.75850  1.0000
  C   C1257     1.0  0.79231  0.56854  0.81332  1.0000
  H   H2139     1.0  0.88219  0.55603  0.79949  1.0000
  C   C1258     1.0  0.53018  0.79470  0.85435  1.0000
  S   S360      1.0  0.88468  0.54060  0.76375  1.0000
  S   S361      1.0  0.63094  0.53587  0.85410  1.0000
  Fe  Fe178     1.0  0.56210  0.56834  0.97728  1.0000
  H   H2140     1.0  0.55796  0.51778  0.90269  1.0000
  H   H2141     1.0  0.93880  0.50976  0.88874  1.0000
  Fe  Fe179     1.0  0.53027  0.58580  0.94479  1.0000
  S   S362      1.0  0.54289  0.61792  0.93333  1.0000
  H   H2142     1.0  0.50006  0.90677  0.95396  1.0000
  Fe  Fe180     1.0  0.57609  0.59815  0.93559  1.0000
  S   S363      1.0  0.60579  0.60493  0.91223  1.0000
  H   H2143     1.0  0.91019  0.51261  0.82892  1.0000
  H   H2144     1.0  0.78126  0.53607  0.75144  1.0000
  S   S364      1.0  0.56372  0.56610  0.94342  1.0000
  H   H2145     1.0  0.68171  0.60482  0.90360  1.0000
  H   H2146     1.0  0.83417  0.54628  0.76513  1.0000
  S   S365      1.0  0.53718  0.80856  0.92438  1.0000
  H   H2147     1.0  0.82204  0.56747  0.79130  1.0000
  S   S366      1.0  0.55884  0.75903  0.91908  1.0000
  H   H2148     1.0  0.96551  0.53101  0.87408  1.0000
  Fe  Fe181     1.0  0.56958  0.79184  0.91255  1.0000
  S   S367      1.0  0.58581  0.80563  0.87989  1.0000
  Fe  Fe182     1.0  0.52741  0.77537  0.93333  1.0000
  N   N90       1.0  0.80221  0.54688  0.78355  1.0000
  S   S368      1.0  0.58306  0.78494  0.94353  1.0000
  H   H2149     1.0  0.79670  0.52476  0.81411  1.0000
  C   C1259     1.0  0.61593  0.53356  0.80210  1.0000
  H   H2150     1.0  0.79261  0.51719  0.94886  1.0000
  S   S369      1.0  0.52883  0.88732  0.82779  1.0000
  S   S370      1.0  0.67037  0.50470  0.89211  1.0000
  Fe  Fe183     1.0  0.66540  0.52021  0.85834  1.0000
  H   H2151     1.0  0.61964  0.51961  0.96234  1.0000
  N   N91       1.0  0.67106  0.56583  0.95017  1.0000
  C   C1260     1.0  0.57136  0.82999  0.86607  1.0000
  C   C1261     1.0  0.57398  0.83437  0.84387  1.0000
  C   C1262     1.0  0.56148  0.85262  0.83236  1.0000
  C   C1263     1.0  0.54615  0.86662  0.84296  1.0000
  C   C1264     1.0  0.54411  0.86292  0.86514  1.0000
  C   C1265     1.0  0.55685  0.84466  0.87668  1.0000
  H   H2152     1.0  0.58535  0.82329  0.83557  1.0000
  H   H2153     1.0  0.56322  0.85543  0.81523  1.0000
  H   H2154     1.0  0.53271  0.87400  0.87339  1.0000
  H   H2155     1.0  0.55551  0.84201  0.89376  1.0000
  H   H2156     1.0  0.76847  0.54456  0.79664  1.0000
  C   C1266     1.0  0.58784  0.49838  0.79288  1.0000
  N   N92       1.0  0.54221  0.91483  0.75854  1.0000
  S   S371      1.0  0.52760  0.58569  0.97933  1.0000
  C   C1267     1.0  0.58732  0.51224  0.91853  1.0000
  C   C1268     1.0  0.59124  0.50836  0.95645  1.0000
  C   C1269     1.0  0.52208  0.92466  0.77117  1.0000
  H   H2157     1.0  0.49714  0.80283  0.96275  1.0000
  C   C1270     1.0  0.56872  0.69967  0.97058  1.0000
  C   C1271     1.0  0.95728  0.52331  0.84468  1.0000
  H   H2158     1.0  0.84264  0.50394  0.94011  1.0000
  H   H2159     1.0  0.81254  0.53248  0.95120  1.0000
  H   H2160     1.0  0.87556  0.53386  0.83605  1.0000
  C   C1272     1.0  0.54253  0.66693  0.97650  1.0000
  H   H2161     1.0  0.96634  0.52752  0.82849  1.0000
  H   H2162     1.0  0.51479  0.91150  0.78341  1.0000
  H   H2163     1.0  0.49862  0.92983  0.74799  1.0000
  H   H2164     1.0  0.55120  0.94738  0.74943  1.0000
  S   S372      1.0  0.91410  0.58050  0.74161  1.0000
  H   H2165     1.0  0.63935  0.51150  0.82000  1.0000
  S   S373      1.0  0.57694  0.59922  0.96943  1.0000
  H   H2166     1.0  0.58422  0.53024  0.91767  1.0000
  H   H2167     1.0  0.83286  0.53547  0.81477  1.0000
  Fe  Fe184     1.0  0.49847  0.90559  0.84285  1.0000
  H   H2168     1.0  0.93850  0.50909  0.81716  1.0000
  H   H2169     1.0  0.94388  0.58082  0.81704  1.0000
  C   C1273     1.0  0.62351  0.55609  0.86911  1.0000
  C   C1274     1.0  0.60179  0.56126  0.87776  1.0000
  C   C1275     1.0  0.59618  0.57634  0.89099  1.0000
  C   C1276     1.0  0.61218  0.58680  0.89498  1.0000
  C   C1277     1.0  0.63367  0.58240  0.88547  1.0000
  C   C1278     1.0  0.63942  0.56671  0.87297  1.0000
  H   H2170     1.0  0.58935  0.55343  0.87447  1.0000
  H   H2171     1.0  0.57941  0.58017  0.89777  1.0000
  H   H2172     1.0  0.64603  0.59072  0.88810  1.0000
  H   H2173     1.0  0.65616  0.56303  0.86612  1.0000
  C   C1279     1.0  0.85589  0.58202  0.80420  1.0000
  C   C1280     1.0  0.83981  0.59016  0.81908  1.0000
  H   H2174     1.0  0.82972  0.60585  0.81434  1.0000
  H   H2175     1.0  0.52080  0.83796  0.84140  1.0000
  C   C1281     1.0  0.86906  0.56189  0.81051  1.0000
  H   H2176     1.0  0.57239  0.92988  0.77762  1.0000
  C   C1282     1.0  0.96335  0.55177  0.77303  1.0000
  C   C1283     1.0  0.54735  0.49715  0.96980  1.0000
  H   H2177     1.0  0.78854  0.54980  0.97309  1.0000
  H   H2178     1.0  0.69806  0.58387  0.93845  1.0000
  S   S374      1.0  0.54532  0.82973  0.96994  1.0000
  H   H2179     1.0  0.64046  0.57363  0.93643  1.0000
  C   C1284     1.0  0.95138  0.57410  0.83194  1.0000
  C   C1285     1.0  0.68468  0.57914  0.93230  1.0000
  H   H2180     1.0  0.94216  0.55946  0.86443  1.0000
  H   H2181     1.0  0.88990  0.49524  0.79561  1.0000
  C   C1286     1.0  0.56536  0.91544  0.78756  1.0000
  C   C1287     1.0  0.97300  0.52410  0.86020  1.0000
  Fe  Fe185     1.0  0.54961  0.79998  0.95597  1.0000
  S   S375      1.0  0.94638  0.51970  0.76228  1.0000
  H   H2182     1.0  0.78001  0.51478  0.77565  1.0000
  H   H2183     1.0  0.50328  0.84476  0.95390  1.0000
  H   H2184     1.0  0.79452  0.58421  0.81668  1.0000
  H   H2185     1.0  0.52621  0.88722  0.75998  1.0000
  H   H2186     1.0  0.65618  0.60007  0.91763  1.0000
  H   H2187     1.0  0.67540  0.53366  0.97131  1.0000
  H   H2188     1.0  0.96769  0.56470  0.82843  1.0000
  C   C1288     1.0  0.93655  0.56030  0.84911  1.0000
  H   H2189     1.0  0.90270  0.53712  0.86242  1.0000
  H   H2190     1.0  0.77454  0.56889  0.81415  1.0000
  H   H2191     1.0  0.92650  0.53768  0.89078  1.0000
  S   S376      1.0  0.50359  0.57817  0.92995  1.0000
  H   H2192     1.0  0.49729  0.79255  0.85058  1.0000
  H   H2193     1.0  0.74840  0.52947  0.93092  1.0000
  H   H2194     1.0  0.53569  0.77685  0.85555  1.0000
  N   N93       1.0  0.58140  0.50000  0.94106  1.0000
  H   H2195     1.0  0.93773  0.54962  0.81154  1.0000
  Fe  Fe186     1.0  0.71216  0.50424  0.84141  1.0000
  H   H2196     1.0  0.98648  0.53313  0.85155  1.0000
  C   C1289     1.0  0.62741  0.50993  0.80989  1.0000
  H   H2197     1.0  0.95378  0.58841  0.83768  1.0000
  H   H2198     1.0  0.57120  0.92715  0.74015  1.0000
  C   C1290     1.0  0.61356  0.51617  0.94874  1.0000
  N   N94       1.0  0.93543  0.53792  0.84576  1.0000
  H   H2199     1.0  0.52930  0.50088  0.97114  1.0000
  H   H2200     1.0  0.95507  0.50588  0.84696  1.0000
  H   H2201     1.0  0.79870  0.58207  0.77988  1.0000
  Fe  Fe187     1.0  0.87929  0.57734  0.75498  1.0000
  C   C1291     1.0  0.83131  0.52279  0.80642  1.0000
  H   H2202     1.0  0.91789  0.52582  0.80224  1.0000
  H   H2203     1.0  0.98301  0.49732  0.78307  1.0000
  H   H2204     1.0  0.66888  0.55456  0.91098  1.0000
  H   H2205     1.0  0.97653  0.57616  0.78269  1.0000
  S   S377      1.0  0.53596  0.76824  0.96655  1.0000
  H   H2206     1.0  0.49950  0.81382  0.89616  1.0000
  C   C1292     1.0  0.81700  0.54657  0.76294  1.0000
  C   C1293     1.0  0.66276  0.57820  0.96766  1.0000
  H   H2207     1.0  0.71699  0.55546  0.95835  1.0000
  C   C1294     1.0  0.67292  0.60084  0.91994  1.0000
  H   H2208     1.0  0.63747  0.50481  0.79571  1.0000
  H   H2209     1.0  0.52612  0.93576  0.78015  1.0000
  H   H2210     1.0  0.55062  0.52211  0.94113  1.0000
  C   C1295     1.0  0.57482  0.50864  0.90163  1.0000
  H   H2211     1.0  0.79887  0.55523  0.82616  1.0000
  N   N95       1.0  0.58614  0.68276  0.90576  1.0000
  C   C1296     1.0  0.56831  0.67035  0.91863  1.0000
  C   C1297     1.0  0.60678  0.66639  0.90426  1.0000
  C   C1298     1.0  0.57955  0.69312  0.88388  1.0000
  C   C1299     1.0  0.58849  0.69998  0.91708  1.0000
  C   C1300     1.0  0.54479  0.68310  0.91905  1.0000
  C   C1301     1.0  0.61479  0.65345  0.92553  1.0000
  C   C1302     1.0  0.59802  0.69665  0.86512  1.0000
  C   C1303     1.0  0.60581  0.71473  0.90661  1.0000
  H   H2212     1.0  0.56830  0.65533  0.91277  1.0000
  H   H2213     1.0  0.57117  0.66451  0.93552  1.0000
  H   H2214     1.0  0.62065  0.67434  0.89490  1.0000
  H   H2215     1.0  0.60465  0.65407  0.89555  1.0000
  H   H2216     1.0  0.56967  0.68272  0.87916  1.0000
  H   H2217     1.0  0.56883  0.70921  0.88391  1.0000
  H   H2218     1.0  0.57294  0.71129  0.91911  1.0000
  H   H2219     1.0  0.59228  0.69223  0.93340  1.0000
  H   H2220     1.0  0.53358  0.67230  0.92963  1.0000
  H   H2221     1.0  0.54278  0.69787  0.92568  1.0000
  H   H2222     1.0  0.53911  0.68778  0.90319  1.0000
  H   H2223     1.0  0.60304  0.64293  0.93545  1.0000
  H   H2224     1.0  0.63000  0.64216  0.92202  1.0000
  H   H2225     1.0  0.61884  0.66428  0.93475  1.0000
  C   C1304     1.0  0.92658  0.54155  0.82489  1.0000
  H   H2226     1.0  0.60587  0.68078  0.86105  1.0000
  Fe  Fe188     1.0  0.56853  0.75372  0.95153  1.0000
  H   H2227     1.0  0.62233  0.70522  0.90429  1.0000
  H   H2228     1.0  0.60655  0.72563  0.91732  1.0000
  H   H2229     1.0  0.60135  0.72564  0.89146  1.0000
  H   H2230     1.0  0.58313  0.51517  0.88556  1.0000
  H   H2231     1.0  0.61073  0.70493  0.86807  1.0000
  H   H2232     1.0  0.52050  0.82641  0.87933  1.0000
  H   H2233     1.0  0.55215  0.92068  0.79963  1.0000
  H   H2234     1.0  0.98094  0.50714  0.86661  1.0000
  H   H2235     1.0  0.80804  0.51140  0.79319  1.0000
  Fe  Fe189     1.0  0.85563  0.50552  0.87318  1.0000
  H   H2236     1.0  0.64389  0.54427  0.91924  1.0000
  H   H2237     1.0  0.53949  0.79978  0.86475  1.0000
  H   H2238     1.0  0.49788  0.64534  0.94054  1.0000
  H   H2239     1.0  0.63754  0.60265  0.97910  1.0000
  C   C1305     1.0  0.59524  0.50225  0.83686  1.0000
  H   H2240     1.0  0.69281  0.53573  0.94685  1.0000
  H   H2241     1.0  0.76300  0.50929  0.84431  1.0000
  C   C1306     1.0  0.96494  0.52947  0.77346  1.0000
  C   C1307     1.0  0.77865  0.54809  0.78087  1.0000
  H   H2242     1.0  0.62618  0.50405  0.94232  1.0000
  H   H2243     1.0  0.82389  0.51514  0.92129  1.0000
  H   H2244     1.0  0.62817  0.54345  0.79201  1.0000
  H   H2245     1.0  0.64004  0.60568  0.95099  1.0000
  C   C1308     1.0  0.80458  0.56670  0.79117  1.0000
  Fe  Fe190     1.0  0.70217  0.51735  0.88327  1.0000
  H   H2246     1.0  0.66726  0.52927  0.93098  1.0000
  C   C1309     1.0  0.84898  0.55725  0.84596  1.0000
  H   H2247     1.0  0.58044  0.52287  0.96087  1.0000
  H   H2248     1.0  0.50253  0.74241  0.96182  1.0000
  C   C1310     1.0  0.92319  0.52088  0.81830  1.0000
  C   C1311     1.0  0.98153  0.51448  0.78318  1.0000
  S   S378      1.0  0.73822  0.50281  0.81350  1.0000
  H   H2249     1.0  0.55037  0.88833  0.78533  1.0000
  S   S379      1.0  0.71605  0.53280  0.90402  1.0000
  H   H2250     1.0  0.50253  0.78724  0.87695  1.0000
  H   H2251     1.0  0.53955  0.72250  0.96407  1.0000
  C   C1312     1.0  0.92446  0.52275  0.88602  1.0000
  C   C1313     1.0  0.91929  0.52716  0.86302  1.0000
  C   C1314     1.0  0.53592  0.89866  0.74811  1.0000
  C   C1315     1.0  0.53340  0.68913  0.97175  1.0000
  H   H2252     1.0  0.76185  0.49922  0.95991  1.0000
  H   H2253     1.0  0.57292  0.89436  0.76581  1.0000
  H   H2254     1.0  0.84463  0.52214  0.79308  1.0000
  C   C1316     1.0  0.55685  0.50426  0.94618  1.0000
  H   H2255     1.0  0.55238  0.50621  0.98017  1.0000
  S   S380      1.0  0.52597  0.64688  0.97912  1.0000
  H   H2256     1.0  0.60495  0.50833  0.91298  1.0000
  S   S381      1.0  0.58565  0.71994  0.96514  1.0000
  H   H2257     1.0  0.60291  0.53456  0.79241  1.0000
  C   C1317     1.0  0.86547  0.54943  0.83130  1.0000
  H   H2258     1.0  0.50537  0.51062  0.93550  1.0000
  Fe  Fe191     1.0  0.54251  0.61651  0.96794  1.0000
  C   C1318     1.0  0.72488  0.51197  0.92494  1.0000
  H   H2259     1.0  0.57827  0.90472  0.79665  1.0000
  C   C1319     1.0  0.50261  0.82676  0.88168  1.0000
  C   C1320     1.0  0.55770  0.90211  0.77414  1.0000
  H   H2260     1.0  0.91083  0.55295  0.82483  1.0000
  H   H2261     1.0  0.83521  0.52171  0.97762  1.0000
  C   C1321     1.0  0.54656  0.70545  0.96840  1.0000
  C   C1322     1.0  0.80859  0.52600  0.79943  1.0000
  C   C1323     1.0  0.80904  0.51546  0.95379  1.0000
  C   C1324     1.0  0.77415  0.53212  0.76838  1.0000
  S   S382      1.0  0.69582  0.53571  0.85053  1.0000
  H   H2262     1.0  0.67488  0.58823  0.96911  1.0000
  C   C1325     1.0  0.99415  0.54380  0.79315  1.0000
  H   H2263     1.0  0.69365  0.56933  0.92076  1.0000
  H   H2264     1.0  0.62704  0.58387  0.96881  1.0000
  H   H2265     1.0  0.60935  0.54161  0.81561  1.0000
  H   H2266     1.0  0.59095  0.70702  0.85084  1.0000
  H   H2267     1.0  0.91777  0.51084  0.86065  1.0000
  H   H2268     1.0  0.53456  0.80300  0.83756  1.0000
  H   H2269     1.0  0.77149  0.56495  0.77316  1.0000
  C   C1326     1.0  0.65242  0.55929  0.94262  1.0000
  C   C1327     1.0  0.97800  0.55893  0.78278  1.0000
  S   S383      1.0  0.49811  0.77175  0.92049  1.0000
  H   H2270     1.0  0.50853  0.95445  0.74934  1.0000
  H   H2271     1.0  0.82075  0.58006  0.74514  1.0000
  H   H2272     1.0  0.91052  0.51644  0.89707  1.0000
  H   H2273     1.0  0.95067  0.56347  0.76549  1.0000
  H   H2274     1.0  0.64290  0.54937  0.95629  1.0000
  H   H2275     1.0  0.60222  0.50692  0.84936  1.0000
  C   C1328     1.0  0.83076  0.50493  0.98322  1.0000
  H   H2276     1.0  0.67254  0.61447  0.92788  1.0000
  S   S384      1.0  0.84376  0.54127  0.87166  1.0000
  C   C1329     1.0  0.83641  0.57783  0.83997  1.0000
  H   H2277     1.0  0.59596  0.50715  0.77760  1.0000
  C   C1330     1.0  0.68533  0.54487  0.95932  1.0000
  H   H2278     1.0  0.61182  0.53183  0.93666  1.0000
  C   C1331     1.0  0.64062  0.59346  0.96621  1.0000
  H   H2279     1.0  0.82375  0.58403  0.85135  1.0000
  C   C1332     1.0  0.50300  0.83798  0.84305  1.0000
  H   H2280     1.0  0.50996  0.84097  0.80878  1.0000
  C   C1333     1.0  0.65883  0.54609  0.92504  1.0000
  H   H2281     1.0  0.54901  0.49576  0.93717  1.0000
  H   H2282     1.0  0.49913  0.85032  0.90146  1.0000
  H   H2283     1.0  0.91993  0.57020  0.85007  1.0000
  C   C1334     1.0  0.74140  0.51447  0.93551  1.0000
  C   C1335     1.0  0.70448  0.54735  0.97002  1.0000
  H   H2284     1.0  0.77456  0.51407  0.98403  1.0000
  H   H2285     1.0  0.50272  0.99333  0.75958  1.0000
  C   C1336     1.0  0.55325  0.93246  0.74285  1.0000
  H   H2286     1.0  0.83364  0.50678  0.81791  1.0000
  H   H2287     1.0  0.56229  0.87046  0.74964  1.0000
  H   H2288     1.0  0.58577  0.51772  0.82894  1.0000
  C   C1337     1.0  0.50535  0.79867  0.86132  1.0000
  C   C1338     1.0  0.77164  0.49553  0.83777  1.0000
  H   H2289     1.0  0.75625  0.53358  0.76870  1.0000
  H   H2290     1.0  0.51623  0.69376  0.97012  1.0000
  C   C1339     1.0  0.82555  0.50483  0.93751  1.0000
  H   H2291     1.0  0.57691  0.51044  0.80099  1.0000
  C   C1340     1.0  0.49709  0.83557  0.82187  1.0000
  C   C1341     1.0  0.56473  0.66107  0.97859  1.0000
  H   H2292     1.0  0.49649  0.86303  0.87463  1.0000
  H   H2293     1.0  0.59246  0.49594  0.97169  1.0000
  C   C1342     1.0  0.74919  0.49735  0.95169  1.0000
  C   C1343     1.0  0.57775  0.67743  0.97590  1.0000
  H   H2294     1.0  0.59490  0.67290  0.97758  1.0000
  H   H2295     1.0  0.66084  0.56660  0.98335  1.0000
  C   C1344     1.0  0.81227  0.56649  0.74445  1.0000
  H   H2296     1.0  0.49602  0.85500  0.84426  1.0000
  H   H2297     1.0  0.69904  0.55606  0.98319  1.0000
  H   H2298     1.0  0.49627  0.81849  0.82151  1.0000
  H   H2299     1.0  0.71261  0.53070  0.97717  1.0000
  H   H2300     1.0  0.79473  0.57286  0.74416  1.0000
  H   H2301     1.0  0.84422  0.49484  0.97495  1.0000
  Fe  Fe192     1.0  0.91877  0.54374  0.74815  1.0000
  N   N96       1.0  0.49543  0.82189  0.86272  1.0000
  H   H2302     1.0  0.56634  0.49563  0.85935  1.0000
  H   H2303     1.0  0.57181  0.64396  0.98249  1.0000
  H   H2304     1.0  0.52843  0.86626  0.98843  1.0000
