data_image0
_chemical_formula_structural       H4SCH3SHC2FeCH2CHCH2SCH4CH2CH2CH2C2H2CH3CHCHCH3CH2C3H4CHC3H3CHCFeH2C2H2CH3C4H2CH7FeNHSH2C4H3CHSHSHC2H4FeHCH5CNHFeH3S2CSH2S3H2CNC2HCH5SH2SHCHCHNC4FeCH4CHC2H2CSC3HC3H4CH4C2HSHSH2C2HCH5FeCH2CSCNC2NHS2CHC3H4C2H4FeH3CH3CHSH3CHFeHCSH3CHSHC2SH5SNSHCH2S2CNH2SFeCH2CHC2H2C2HCHFeCSH3NCHCHCH2CHC2HNH2CHCHCH6C3SH4CH2FeH3CHC3HSHSCH5C6H4SHCH4CHC2FeNH6CHSHC2HC2H5CHCH2CHFeCHCH4CHCH4CHCH2CHCHFeH3CHFeH2CHCH4CH3FeSCSFeS2HNH3C2H2FeS2FeS2FeSFeS3FeCNHSH2CFeSCSHCHSFeH2CH2C3FeS2FeCFeS3HSHCSCSCHCHFeS2FeS2FeSFeS3HC6H3C6H5CHSH3C6H4NFeCH2C2HCHC6H3CHSCSH3C2HC6H4C6H8CH2C7H6CH3SH3C6H4SH2CHCH3C3H3NCHC2SH3NC5HC2H20SH5FeH4CH3CNH3SCH2CH3C2HC2H2SC2H3SHCH4C2FeHC3HC2NC5HSH8CH3CHCH2CHCHNC2NH3CHCH2CH4FeHSC2H6CH2C2H9CH2NHC3H2CH8FeCSCHCSH3NH3CH2CH2CH3C2HSH3CH3C2SHCH4CHC2Fe2HC4H4C2HCHFeH2CH3C2HFeHSH6CHCH4FeCH4SHC2HSH3CHCHCHC3HSH2CH2CSHCH3CHC3H4CH2CHNCHC2H5NC3HCH4CHFeC2FeHCSCH4C3H2C2HCSCH8SH2SNHFeSH3CH3CHCH2C3HSHCFeCH2SC3H2S2H3Fe2HFeCH3NS2H2CHCHCHFeH3CH3FeHCHC2HCHC2HCH2NCSCHC2HSC2HCSH6SHCHNH7FeSHC4H3CH2CHC3HCH3CFeCH2C2H2CNHSH3C2H2SH2CHSHSHC2H6CSHC3H4CFeH2SHCH5C2H4FeS2FeS2FeSFeS3H4C2SH2N2HSCHCHSHFeCH3C6H3C6H7CH2FeH4C6H6SHSHCH3C6H7NHCH2C4HCH6C2HC2HC2H3CH3NC6SHCHCH4CHCH3CH3CHCH2C3NCHCH3CHCHCH3FeH3CHNCHCHCH2S2CH4C2H2CH6SH6CH3C2NCH7CFeHCH2SCH2C2HCSC3H2CHFeH4FeCHCH3C2H4CHSH5CH8CHCH5NCH2C2H6FeHCH2NSCH3CH3FeH2C3H5CHCH8CH3CHFeHCHFeHSFeH3C2SHFeHSHFe3S3C6H4C7H3SH3SHCHSHFeHC2HCHCH2C2H2C2H2C3SCH4C3HCSH3CSCHCHC2HSCHCH2SHC2NH2CFe2SCSCNH2CH3C2HS2CH6SNFeCSH4S2CNH2CH4FeC3HSHCHSH3CH3C2H3CH3CHCHSH2C2H3CH3SHCHCH2Fe2H2SH3CHCHSH4SCH5SHC2HCHCSHCHSHFeS2FeSH2SCNC2SFeHSC2FeSHSCFeS2FeS2FeSFeS3C6H8C7H6FeHCHCHCHC6H4C6H6C2HCH3CHC3SH4CSH2C2HCNHCH4SH2SH2CH2C2H5C4NC8H20SCH4CH2C2H3C2HFeHNSH5CSCH2CH5CH2CHFeCH2CSH2N2H2SH2FeH2SH2FeCH2C2HCHC3SCH2C3FeHNC3HC2SH16FeCH2CH3CH3C2H4FeH2C3HCH2CH4SH3CHFeCH3C2HCH3NC5SHCH2CH8SCH5CH2S2HC2H6C2H2C3HCH3SHFeHCHFe2S2FeCH2S2H3FeSFeC2FeSHSH2C2SH2CH5SH2SHFeS2FeCFeS3H2SHSFeS2FeSFeS3C6H4C4SH4C7H7SH3C2HC3H3CH2CHCH2NH3C3FeH3FeHCH4C6H4SHCHC2H3C3H2C7H4CH2NCH2NCH6C4H3C2FeNSH2NCHCHCHSH2C2HCHSHCHCSHC2H3C4H3CH2FeCH2C3SCH2CNCH2C2HC2H3FeH7SH2S2FeH5CH2NH6CHCHCH6SHC2H2C2HC2H2CH2CHCH6NCH3CH2CH7S2H4CH3C2HC2H2CH3CH2CHSHCHCH3SHCHCHC2SCHCNCHCH4CH3SC2H2CH2C3H4C2H2C2H2C2HCHCHFeHSC3Fe2SNH3CNSNH4FeH2SH3CH5CH2FeH3SH2Fe2H4SHCHSC3SHCH3C3H5CHC2H2SH2CH2CH6C2H2FeH2SH2FeH5FeCSCH3NSHCHSHC2HC2H2C7HSC5HSHCH2SCHCH2CSH4CH2CHCFeH2C2H3CHCSH3SH2NCHCSHCNHC3NHFeS2FeS2FeSFeS3FeS2FeH2FeSHS4CSHFeSH2FeHSHCHSCHCH7CHSHCH2CH3C3H2CHFeH2NC2H3FeHC4H2CH2C6H4C6H4C6H6C2HC6H5SHCFeCH2FeH3CFeHCSH2CH3CFeH3C2HNC3H2CH2CHCS2HNC4HC3H9NSH9NC8H21SHCS2CH2CSCFeCH3C3SH2CH6CHCH2SHCH2NC4HSH2SC2H3CH5CH6SCH2C3NH5SH2CHCSHCHC2H5CH4CH2CH2C2H5CFeH2CH3C2HSCHCH2CFeH2NCH4CFeCH2S2CH2CHC5SHFeH8CH2SCHCS2FeSFeS3CHFeC3H2CFeSFeS2FeSFeS3C4H3C3H4CH2SHCH2FeNH4CH2C7H4C4H2C6H4FeHCNC8H8CH11CH2CH2SCHCH6CHC3H3NC4HC3H8SCH10CHC2HCHFeCH2CHCHCFeH5CH2CHCFeH2NC2SC2SH2CHCH6C2H4C2HCH5CHCSCH2SHSHCH5NH3FeC2H7CH4SC3HSHFeHSHC3SCH2SH2CNC7H9CH5CHNC6HCH14CH5FeCHSH2CHCH2C2HSCH4CNHFeHC3SC2HSNH3C2H2SCH2CHCH3SCH4CHCSH6SH2C2SH2CH2CHCH2CHSCH3C2SCH2CH2NC3HCH2SCSCSHC3SH2CSH2CH2FeHNH2CH2CHCH3CH3C2H2CHCH2CFeH3FeH2FeHCHC4HCH5FeHCHC2HCHC2HCSHCH8CHCHFeHC2H7SCH4C2H2CH2CH4CH4CH2SHSH2CSH3FeHCH2C2NHFeHSHSH2Fe2NHCHC2HSHCFeHSH2SH2CFeS2CNFeSHSFeS2H6CS2FeSHFeS2HFeSHSFeS2FeS2FeSFeS5HFeSH2Fe2SFeSH4FeSH2CFeSH7C6H4C4H4NHC6H4C6H9C6H4C3HSH2FeHC3Fe2C2HCH6SNHC3H2C5HFeH5C2HCH2SHC2HFeCH6C3NC6H10NC6H7Fe2H5NC8H20NC8H4CHC4H2CH3CHCHC2H5FeSHSH2CH5C2HC5FeHCHCHSC5SCH3CH2NC2HCH3CHCHNCH2C2HCH4CHSHS2HCHC2H2SHCFeSH2CHCH2CSCHS2H2CHCHCH3SHCFeH3SH4C2H5SHCH2CH6FeS2C2FeS3FeS2FeSCHFeS3FeS2FeS2Fe2S3FeHSFeS2FeS2Fe2S5HFeSHC3H10C4SHCNSCHSH2CH2C4H2C2HC8H4C6H7CH2CH3C6H4CSHC3H4C6H4C6H5C2H3CH2C2H3SH3CH3SH4CFeCH6C5H3C2H4NH3CH2CH6CH4CH5CHCH2NH5CHCHCH3CNHC2H5CH3C4HCH2CHC2SHS3H2CH2CH7CH2CH2CHCH3NSHCH2CHCH5CH2CH2CH3FeHNFeCSH4NCHCFeCH2FeHSH4C2H10CH3FeHC2HCH2CH3CNH3C2H3CHCHSH7CHC2HCHCHCH4CHSCH3C2H3SHCHC4H5C4FeSH2CH4NH2NC2HC2HCHC3FeC2H2CH2CH3CH2CH3CSHCH3FeH2CHC2HCHS2C2HCH5CHCSNFeCH2CH6CNSHSH2NH8FeS2FeHFeSHSCS2FeHC3HSHFeSCSC7FeH4CH5CHFeC6H4C6H2CH2FeCH3CH3SCSHSH2FeCHC6HCH5CHCSH2SH3SHCHCHCH3CH2C2H2CHCH2SH2C2HNHN2C4H2CH13C2HFeSH2S3CSCSH4CH4CH4SH7CFeH4SC2HFeCH3SH2CHC3FeH4CH3CH3FeSCFeCFeHC2HCHCH3SFeH3CFeHC3H3CFeH2CHFeNFeH3CSCHCH4FeHCH3CHNC2H3CHSFeSH2S2H4SH4C2HCH2CH3SHFeSCH3C2H4CHCHSH8SCH2SNH3CH2SH3CH3C4HCHCH5C2H2CHC2HCHCH3C2H2CH5FeHCH3CFeSC3H2CH2CSC3H3SH4CH3C4SHSCHNCFeC3S2CHNCHCHSCFeC2NCH2C3H2NHC2HCH4CH3CHCFeH4CHSC3SHCH3C2S2CHCHCSCHSCSH8CHCHCH2CH2CHCSHSHSFeS2FeS2HCFeS3H3NH3SH8FeS2FeS2FeSFeS3H3FeS2FeSFeS2CSCHSFeSCH2C4FeH7C6H3C6H4C6H5NH4C6H6CH4CH4C7HCH2C6H4CH3SCH2CSC3HC4HC2HC2HCH2CHCHFeCH3CH4FeH2CH2CSC2H7CHNHCHS2HSCNC8H20NC4H4SHSH7CHC3HSH3NC8H10FeH9NC8H22CHCHCHCFeCNC3HC3H6C2H3CHCH3CH10SC3H3FeH12CS2FeSFeS2FeSFeS3HCHC2HC5HCSFeH2SH4CH2SH5CHCH2CHCHFeH2NH4CSH2CFeH2C2HCSH2CH2C4H4CHC6H4C3HC2H4C4H2C6H4CFe2C2HSFeH3CNCH2CFeCHCNHCH2FeCH3CH2FeCH3CHSHCHCH2SC2H6C2HC2H4CHCSCS2CH4CHCHC2HSHSHC2H2C5HC2H3CH3CHCH3NC2SCHSC3HS3H2CHCSH2SCNH2CH3FeCH3CHC2HCHCHCH4NH2CHNC5HCH16FeH4CH2FeHSH2NCH3C4H5CH3NHC2H4CH4CHCHCH3FeH2CH3SHSH2CHCHS2H2NH3NCH2CH6C4HCH5CHFeSHSCHSH2CHCHCSHFeSCFeS2FeSFeS3HFeS2FeSHFeSFeS4C6H5CH2CHC6H10CH2FeC6H8CFeH3CH2NHC6H6FeNS2C2H2CH2NHFeH3SC2H5SH9CH3SC2H3NH3C2H2FeH3CNHCH8SHC2H7C4H4C4HFeCHC3HC2H3CH5SC3S2C2HNC5HC3HS2H4SCH2FeC4H2CNC8H20NH2CHCHC2HCHSH3CHCH6SHCSH2FeCH2CHSH4FeC2H4CH2C2H2CH2C2SCH2CH2CH2CH4C4H2SHCH5CH2CHCHC3SCH2NH2C2HC4H3CH2CNH2CHFeCHFeHCHCFeH4CH3CH2CNHSH2C2HCH2SFeH3C3HCH4NH2CH4C2H3NH2CHC2H2C5H2CHCH4CHSH6CFeS2H2SHC3H4CSHCH10CHCHSCHSH3CNS2HCH8SHFeH2C2SHSH4C2H2SH2C3FeS2Fe2SHSFeS2FeSFe2S3C6H4CH2SH4C8H4CH6CHSCHC8H5CHC2H2CH2CH2C2H4CHCNC8H20CH5CH8CHNC2HC2HC2H3SCH2FeCHCH2CH2SH4C3HCSC3H4CHCSH2CHSH5CHC3NH2C2HCH3CH2CSHC2HCH2CHSHCH3C2H4C2HCHCHCHCH5CH2CH5CFe2HNH4C2HCHSFeH3C2H2C2H3CHC2H4CNHFeC3HC2H3C3N2H3CHCH4NH6CH2CHCHNH6SHCH3CH6SH2C2HNHCH2SH7SCSHCSFeSFeHSC2FeSCFeS2FeSFeS4C6H5CH3C8H7CH2C2FeH8CH9CH5CH2CS2HFeH2CHC4H4C2HNH3FeHCH2CFeC3H2SH9CNC2SC3H6CH2CH4FeHCH3C3HC4H3SNCH3SNCHFeCH3C2H2NC8H16CHCHCSHCHC2H3C2H3C2HCH3C2H2C2H2SCSC2HSHSH4FeSC2FeCHCHCH2NH5C5H2SNCH3CHCHCH2SH3SH5C2HCHCH2CHCHFeCH4NHC5HSC3HFeH4NHCH12C3HFeCH2FeH2CH3SHFeSHCH3CH5CSHCHNSH2CH4SHCH2CH2CH2SC3H3CH2CSH2SC3HC2H5SH3NCH2CH7SH5CHFeCHC4H3CH3SH2C2SC2H2FeHCHC2NHCHCHCH4NS2FeCH2SH2C4HCH5CH4CHCHCH2CH2C2HC2SHFeCH2FeSH5CFeH4C2SHSHSH2CHFeHFeHSFeHSHNHCS2HFeS2FeS2FeSFeS3FeSHFeS2FeSFeHSHFeH3CH4SH4C2S2C5H3SH8SHCH4SC2HFeC7H4C3HSC6H4CH2C3HNC2H3FeCFeHC7H5CH2SC2H8FeH5SH4SHCNHCH4C3H2CH6CH2CFeCSHC2HFeHSCNH2CH5NC8H20CNC8H18CHSCHCHNCHCSH3C2FeH3C3H2FeC3HC2H4FeCH3CH2CH3CH3C8SC2SH4CH3CHCHNHNH3C4HCSHFeC2SH2C2H2C5H2CHFeCH3CHCHC3H3NH2CHSCHSC2H2SH2CHS2HCHC2S2HC2H3CFeH3SHCHNH2CHSCH2SHFeCHSH2CHSCFeH2FeH3FeH4CH3CHCH2CHCHSHSCH4C2HSHSHCH2SH2CHSC2HCNHCH2CHSFeHSHCH2SNHFeS2FeS2FeSFeS2H3C2HSHCH8CH9CHCH2CH6CH2C7H4C6H4CHC2H2CH2CH2CH3C2H2C2H2CHC2SH4C7H9C4H2CHNCH2CH5C3H5CSNC8H20CH5NHCH2CH3CSH6SH2CHNCSC4HC2H5C3H3FeC2H2CH6CH2C
_chemical_formula_sum              "H4608 S768 C2688 Fe384 N192"
_cell_length_a       80.5876
_cell_length_b       81.3499
_cell_length_c       81.727
_cell_angle_alpha    73.7073
_cell_angle_beta     73.7353
_cell_angle_gamma    73.7736

_space_group_name_H-M_alt    "P 1"
_space_group_IT_number       1

loop_
  _space_group_symop_operation_xyz
  'x, y, z'

loop_
  _atom_site_type_symbol
  _atom_site_label
  _atom_site_symmetry_multiplicity
  _atom_site_fract_x
  _atom_site_fract_y
  _atom_site_fract_z
  _atom_site_occupancy
  H   H1        1.0  0.38628  0.04939  0.01939  1.0000
  H   H2        1.0  0.00021  0.13271  0.17877  1.0000
  H   H3        1.0  0.41495  0.03591  0.01037  1.0000
  H   H4        1.0  0.09147  0.14598  0.08714  1.0000
  S   S1        1.0  0.40509  0.09609  0.98479  1.0000
  C   C1        1.0  0.23264  0.02132  0.06220  1.0000
  H   H5        1.0  0.26890  0.99950  0.04526  1.0000
  H   H6        1.0  0.20717  0.02082  0.03558  1.0000
  H   H7        1.0  0.49236  0.00447  0.09977  1.0000
  S   S2        1.0  0.39764  0.98489  0.03194  1.0000
  H   H8        1.0  0.37376  0.06097  0.03587  1.0000
  C   C2        1.0  0.29290  0.01883  0.04636  1.0000
  C   C3        1.0  0.27664  0.07433  0.04748  1.0000
  Fe  Fe1       1.0  0.23042  0.08270  0.00283  1.0000
  C   C4        1.0  0.42468  0.08026  0.98722  1.0000
  H   H9        1.0  0.09003  0.18923  0.05403  1.0000
  H   H10       1.0  0.43499  0.09704  0.99626  1.0000
  C   C5        1.0  0.44382  0.05162  0.98525  1.0000
  H   H11       1.0  0.44619  0.01796  0.01334  1.0000
  C   C6        1.0  0.02535  0.00462  0.23310  1.0000
  H   H12       1.0  0.15410  0.02313  0.17632  1.0000
  H   H13       1.0  0.42059  0.00838  0.07990  1.0000
  S   S3        1.0  0.24253  0.06468  0.02524  1.0000
  C   C7        1.0  0.48902  0.05358  0.06946  1.0000
  H   H14       1.0  0.31704  0.02247  0.02617  1.0000
  H   H15       1.0  0.41760  0.00524  0.05165  1.0000
  H   H16       1.0  0.44113  0.03905  0.02671  1.0000
  H   H17       1.0  0.13065  0.17642  0.04779  1.0000
  C   C8        1.0  0.05020  0.02030  0.26486  1.0000
  H   H18       1.0  0.25778  0.10882  0.03812  1.0000
  H   H19       1.0  0.07773  0.16804  0.08628  1.0000
  C   C9        1.0  0.06657  0.02206  0.23480  1.0000
  H   H20       1.0  0.24780  0.04088  0.05757  1.0000
  H   H21       1.0  0.00286  0.02687  0.23424  1.0000
  C   C10       1.0  0.28822  0.07944  0.00214  1.0000
  H   H22       1.0  0.02432  0.00658  0.21935  1.0000
  H   H23       1.0  0.11760  0.19787  0.04862  1.0000
  C   C11       1.0  0.48009  0.04369  0.03612  1.0000
  C   C12       1.0  0.41684  0.02517  0.02206  1.0000
  H   H24       1.0  0.11892  0.18918  0.03059  1.0000
  H   H25       1.0  0.41448  0.03174  0.07346  1.0000
  C   C13       1.0  0.43441  0.01229  0.01633  1.0000
  H   H26       1.0  0.07587  0.00432  0.25696  1.0000
  H   H27       1.0  0.27982  0.98680  0.08100  1.0000
  H   H28       1.0  0.36082  0.03389  0.99921  1.0000
  C   C14       1.0  0.21608  0.02514  0.04039  1.0000
  H   H29       1.0  0.03990  0.99245  0.26063  1.0000
  C   C15       1.0  0.02431  0.19254  0.06324  1.0000
  H   H30       1.0  0.08706  0.17887  0.03013  1.0000
  C   C16       1.0  0.09758  0.16682  0.03245  1.0000
  H   H31       1.0  0.31114  0.11034  0.03102  1.0000
  H   H32       1.0  0.14844  0.99798  0.14741  1.0000
  H   H33       1.0  0.07890  0.15189  0.03180  1.0000
  C   C17       1.0  0.39624  0.04103  0.04358  1.0000
  H   H34       1.0  0.04894  0.21820  0.07846  1.0000
  H   H35       1.0  0.43605  0.01410  0.04994  1.0000
  C   C18       1.0  0.08002  0.15541  0.08241  1.0000
  C   C19       1.0  0.22240  0.04032  0.03091  1.0000
  C   C20       1.0  0.08211  0.15821  0.06252  1.0000
  H   H36       1.0  0.39430  0.04725  0.05463  1.0000
  H   H37       1.0  0.07991  0.14608  0.06048  1.0000
  H   H38       1.0  0.10284  0.17551  0.06932  1.0000
  H   H39       1.0  0.10156  0.13934  0.03029  1.0000
  C   C21       1.0  0.27884  0.99700  0.06876  1.0000
  H   H40       1.0  0.29617  0.11657  0.99835  1.0000
  C   C22       1.0  0.03645  0.03387  0.25946  1.0000
  C   C23       1.0  0.16084  0.16851  0.99560  1.0000
  C   C24       1.0  0.42134  0.01735  0.05198  1.0000
  H   H41       1.0  0.49392  0.07295  0.04410  1.0000
  H   H42       1.0  0.39933  0.01855  0.07509  1.0000
  H   H43       1.0  0.26815  0.00808  0.07278  1.0000
  C   C25       1.0  0.04202  0.21108  0.07420  1.0000
  H   H44       1.0  0.07362  0.00452  0.29950  1.0000
  C   C26       1.0  0.11827  0.18557  0.04482  1.0000
  Fe  Fe2       1.0  0.38236  0.08822  0.98015  1.0000
  H   H45       1.0  0.16837  0.17721  0.99657  1.0000
  H   H46       1.0  0.06170  0.20864  0.05045  1.0000
  C   C27       1.0  0.27168  0.98967  0.05721  1.0000
  C   C28       1.0  0.23398  0.04596  0.03699  1.0000
  H   H47       1.0  0.12526  0.03489  0.19309  1.0000
  H   H48       1.0  0.18290  0.14604  0.99587  1.0000
  C   C29       1.0  0.04929  0.20565  0.05836  1.0000
  H   H49       1.0  0.28691  0.03327  0.07489  1.0000
  H   H50       1.0  0.43614  0.99971  0.02612  1.0000
  H   H51       1.0  0.28922  0.01558  0.03570  1.0000
  C   C30       1.0  0.45656  0.05577  0.99118  1.0000
  C   C31       1.0  0.15951  0.13961  0.99381  1.0000
  C   C32       1.0  0.48456  0.07153  0.05695  1.0000
  C   C33       1.0  0.41347  0.01941  0.07106  1.0000
  H   H52       1.0  0.00320  0.23072  0.03398  1.0000
  H   H53       1.0  0.14299  0.13895  0.04660  1.0000
  C   C34       1.0  0.38751  0.05518  0.02963  1.0000
  H   H54       1.0  0.07072  0.16881  0.05891  1.0000
  H   H55       1.0  0.29343  0.09131  0.04591  1.0000
  H   H56       1.0  0.34724  0.02864  0.05483  1.0000
  H   H57       1.0  0.10470  0.02814  0.18385  1.0000
  H   H58       1.0  0.40608  0.01816  0.02461  1.0000
  H   H59       1.0  0.28042  0.07436  0.99621  1.0000
  H   H60       1.0  0.25067  0.12876  0.01312  1.0000
  Fe  Fe3       1.0  0.35151  0.07025  0.99841  1.0000
  N   N1        1.0  0.41542  0.03244  0.03763  1.0000
  H   H61       1.0  0.29877  0.08450  0.99149  1.0000
  S   S4        1.0  0.16956  0.11777  0.99201  1.0000
  H   H62       1.0  0.30289  0.04225  0.03220  1.0000
  H   H63       1.0  0.31539  0.00972  0.07033  1.0000
  C   C35       1.0  0.30230  0.00612  0.07497  1.0000
  C   C36       1.0  0.28973  0.02054  0.08421  1.0000
  C   C37       1.0  0.04045  0.19634  0.05287  1.0000
  C   C38       1.0  0.42794  0.05472  0.04541  1.0000
  H   H64       1.0  0.10958  0.17031  0.02309  1.0000
  H   H65       1.0  0.38809  0.03088  0.04870  1.0000
  H   H66       1.0  0.05434  0.04244  0.21570  1.0000
  C   C39       1.0  0.30832  0.02819  0.03729  1.0000
  H   H67       1.0  0.99678  0.00631  0.24512  1.0000
  S   S5        1.0  0.04962  0.18899  0.03332  1.0000
  H   H68       1.0  0.11553  0.00024  0.19022  1.0000
  S   S6        1.0  0.21665  0.11070  0.00393  1.0000
  H   H69       1.0  0.27393  0.06663  0.03965  1.0000
  C   C40       1.0  0.05330  0.03636  0.22944  1.0000
  C   C41       1.0  0.08292  0.99295  0.30439  1.0000
  H   H70       1.0  0.41471  0.06191  0.05119  1.0000
  H   H71       1.0  0.13409  0.15721  0.03138  1.0000
  H   H72       1.0  0.33328  0.99949  0.04293  1.0000
  H   H73       1.0  0.39450  0.06611  0.02363  1.0000
  Fe  Fe4       1.0  0.09782  0.98530  0.23039  1.0000
  H   H74       1.0  0.46288  0.07537  0.00001  1.0000
  C   C42       1.0  0.48227  0.03403  0.05479  1.0000
  H   H75       1.0  0.43446  0.04541  0.05570  1.0000
  H   H76       1.0  0.09520  0.98719  0.27896  1.0000
  H   H77       1.0  0.44628  0.03894  0.98218  1.0000
  H   H78       1.0  0.47086  0.07425  0.05502  1.0000
  H   H79       1.0  0.30447  0.99386  0.08519  1.0000
  C   C43       1.0  0.14161  0.14602  0.99303  1.0000
  N   N2        1.0  0.09943  0.16235  0.05113  1.0000
  H   H80       1.0  0.46815  0.04123  0.03386  1.0000
  Fe  Fe5       1.0  0.10455  0.20879  0.99324  1.0000
  H   H81       1.0  0.27169  0.13500  0.00545  1.0000
  H   H82       1.0  0.29620  0.02257  0.09362  1.0000
  H   H83       1.0  0.00418  0.19571  0.08671  1.0000
  S   S7        1.0  0.35527  0.09712  0.99602  1.0000
  S   S8        1.0  0.00264  0.09099  0.26064  1.0000
  C   C44       1.0  0.10183  0.17828  0.05548  1.0000
  S   S9        1.0  0.21312  0.99647  0.06745  1.0000
  H   H84       1.0  0.06805  0.15000  0.08928  1.0000
  H   H85       1.0  0.28106  0.02874  0.05095  1.0000
  S   S10       1.0  0.08653  0.19358  0.99042  1.0000
  S   S11       1.0  0.08622  0.21833  0.01681  1.0000
  S   S12       1.0  0.24062  0.98515  0.10467  1.0000
  H   H86       1.0  0.15456  0.00158  0.18944  1.0000
  H   H87       1.0  0.04911  0.01401  0.27854  1.0000
  C   C45       1.0  0.23910  0.03640  0.05265  1.0000
  N   N3        1.0  0.13800  0.00886  0.17068  1.0000
  C   C46       1.0  0.12759  0.02514  0.16066  1.0000
  C   C47       1.0  0.14309  0.17507  0.99423  1.0000
  H   H88       1.0  0.28255  0.06471  0.05809  1.0000
  C   C48       1.0  0.36300  0.02692  0.01204  1.0000
  H   H89       1.0  0.11430  0.99786  0.15904  1.0000
  H   H90       1.0  0.16227  0.02469  0.14210  1.0000
  H   H91       1.0  0.49140  0.03833  0.02628  1.0000
  H   H92       1.0  0.17626  0.01062  0.15692  1.0000
  H   H93       1.0  0.47968  0.02641  0.09831  1.0000
  S   S13       1.0  0.21153  0.07900  0.98913  1.0000
  H   H94       1.0  0.14000  0.02277  0.20704  1.0000
  H   H95       1.0  0.25888  0.98615  0.06470  1.0000
  S   S14       1.0  0.37945  0.06073  0.98457  1.0000
  H   H96       1.0  0.38451  0.00704  0.00230  1.0000
  C   C49       1.0  0.48657  0.01623  0.09063  1.0000
  H   H97       1.0  0.43404  0.00897  0.00416  1.0000
  C   C50       1.0  0.35301  0.03348  0.02673  1.0000
  H   H98       1.0  0.21836  0.04758  0.01888  1.0000
  N   N4        1.0  0.03182  0.98543  0.24087  1.0000
  C   C51       1.0  0.43745  0.08439  0.99310  1.0000
  C   C52       1.0  0.37620  0.01153  0.01382  1.0000
  C   C53       1.0  0.28987  0.08596  0.03653  1.0000
  C   C54       1.0  0.14570  0.01342  0.18326  1.0000
  Fe  Fe6       1.0  0.19933  0.10780  0.98810  1.0000
  C   C55       1.0  0.42721  0.04544  0.03173  1.0000
  H   H99       1.0  0.31635  0.02833  0.04616  1.0000
  H   H100      1.0  0.01749  0.18525  0.05907  1.0000
  H   H101      1.0  0.13432  0.03628  0.15733  1.0000
  H   H102      1.0  0.11809  0.14644  0.06708  1.0000
  C   C56       1.0  0.16778  0.01095  0.14816  1.0000
  H   H103      1.0  0.23625  0.01429  0.07445  1.0000
  C   C57       1.0  0.15325  0.00048  0.15781  1.0000
  C   C58       1.0  0.37907  0.00232  0.03036  1.0000
  H   H104      1.0  0.00446  0.08900  0.30114  1.0000
  H   H105      1.0  0.29431  0.06818  0.01139  1.0000
  C   C59       1.0  0.35509  0.02373  0.04339  1.0000
  S   S15       1.0  0.33919  0.05451  0.02404  1.0000
  C   C60       1.0  0.11427  0.14668  0.05492  1.0000
  C   C61       1.0  0.09307  0.15245  0.02655  1.0000
  C   C62       1.0  0.13141  0.14485  0.04041  1.0000
  H   H106      1.0  0.30235  0.07707  0.03134  1.0000
  C   C63       1.0  0.03820  0.04226  0.24177  1.0000
  C   C64       1.0  0.01679  0.19841  0.07888  1.0000
  C   C65       1.0  0.10798  0.03158  0.16944  1.0000
  H   H107      1.0  0.02770  0.05291  0.23754  1.0000
  H   H108      1.0  0.03863  0.03891  0.29959  1.0000
  H   H109      1.0  0.12728  0.02294  0.14790  1.0000
  H   H110      1.0  0.43617  0.06464  0.03885  1.0000
  C   C66       1.0  0.22123  0.01554  0.05602  1.0000
  H   H111      1.0  0.31859  0.12248  0.00948  1.0000
  H   H112      1.0  0.36991  0.00083  0.05805  1.0000
  H   H113      1.0  0.09904  0.02699  0.16437  1.0000
  H   H114      1.0  0.25688  0.14222  0.02369  1.0000
  C   C67       1.0  0.02565  0.20771  0.08435  1.0000
  C   C68       1.0  0.45335  0.07221  0.99504  1.0000
  H   H115      1.0  0.27121  0.10504  0.00046  1.0000
  S   S16       1.0  0.47576  0.03989  0.99509  1.0000
  H   H116      1.0  0.12004  0.16871  0.99137  1.0000
  S   S17       1.0  0.01651  0.21589  0.10343  1.0000
  H   H117      1.0  0.13158  0.13544  0.03277  1.0000
  H   H118      1.0  0.27376  0.11859  0.03985  1.0000
  C   C69       1.0  0.26179  0.13087  0.01729  1.0000
  C   C70       1.0  0.26941  0.11438  0.03018  1.0000
  H   H119      1.0  0.15992  0.98734  0.16433  1.0000
  C   C71       1.0  0.13248  0.02145  0.19813  1.0000
  H   H120      1.0  0.03505  0.01229  0.23245  1.0000
  H   H121      1.0  0.47652  0.05220  0.07934  1.0000
  H   H122      1.0  0.10961  0.13433  0.05751  1.0000
  H   H123      1.0  0.09507  0.15573  0.01210  1.0000
  H   H124      1.0  0.42325  0.05586  0.02058  1.0000
  Fe  Fe7       1.0  0.06751  0.20487  0.01251  1.0000
  C   C72       1.0  0.13354  0.16376  0.99286  1.0000
  H   H125      1.0  0.17677  0.00460  0.13752  1.0000
  H   H126      1.0  0.12310  0.01313  0.20627  1.0000
  C   C73       1.0  0.36805  0.00806  0.04521  1.0000
  S   S18       1.0  0.08385  0.01264  0.21920  1.0000
  C   C74       1.0  0.30945  0.98784  0.05323  1.0000
  N   N5        1.0  0.28358  0.10061  0.02210  1.0000
  C   C75       1.0  0.12720  0.99525  0.18055  1.0000
  C   C76       1.0  0.27574  0.09413  0.01105  1.0000
  N   N6        1.0  0.29622  0.00268  0.06061  1.0000
  H   H127      1.0  0.10444  0.04614  0.16565  1.0000
  S   S19       1.0  0.01682  0.03897  0.27499  1.0000
  S   S20       1.0  0.13370  0.19763  0.99313  1.0000
  C   C77       1.0  0.16910  0.15088  0.99522  1.0000
  H   H128      1.0  0.26397  0.08198  0.05381  1.0000
  C   C78       1.0  0.42791  0.06389  0.98318  1.0000
  C   C79       1.0  0.12034  0.98755  0.16911  1.0000
  C   C80       1.0  0.06526  0.01455  0.25259  1.0000
  H   H129      1.0  0.46904  0.03677  0.06369  1.0000
  H   H130      1.0  0.27719  0.01664  0.09195  1.0000
  H   H131      1.0  0.29716  0.13059  0.02158  1.0000
  H   H132      1.0  0.26346  0.08962  0.01878  1.0000
  C   C81       1.0  0.30677  0.11838  0.01895  1.0000
  C   C82       1.0  0.29929  0.10794  0.01071  1.0000
  H   H133      1.0  0.31049  0.09725  0.00654  1.0000
  H   H134      1.0  0.27878  0.03172  0.98776  1.0000
  H   H135      1.0  0.48564  0.08199  0.06263  1.0000
  H   H136      1.0  0.99882  0.21527  0.18435  1.0000
  Fe  Fe8       1.0  0.99728  0.06399  0.26719  1.0000
  H   H137      1.0  0.13414  0.13738  0.99186  1.0000
  H   H138      1.0  0.47103  0.99033  0.04525  1.0000
  H   H139      1.0  0.47848  0.05805  0.03364  1.0000
  C   C83       1.0  0.28205  0.04359  0.97793  1.0000
  H   H140      1.0  0.41823  0.06069  0.97842  1.0000
  H   H141      1.0  0.00796  0.01637  0.25494  1.0000
  H   H142      1.0  0.30741  0.98774  0.04033  1.0000
  C   C84       1.0  0.47064  0.98461  0.05898  1.0000
  H   H143      1.0  0.47687  0.01225  0.08604  1.0000
  S   S21       1.0  0.05518  0.22857  0.99487  1.0000
  H   H144      1.0  0.27129  0.05492  0.98104  1.0000
  H   H145      1.0  0.05286  0.99702  0.20472  1.0000
  H   H146      1.0  0.05930  0.98736  0.23334  1.0000
  C   C85       1.0  0.00715  0.01379  0.24258  1.0000
  H   H147      1.0  0.48500  0.01987  0.05472  1.0000
  Fe  Fe9       1.0  0.23501  0.11755  0.97801  1.0000
  H   H148      1.0  0.01813  0.98851  0.26718  1.0000
  C   C86       1.0  0.32931  0.98721  0.05085  1.0000
  S   S22       1.0  0.25004  0.09003  0.97798  1.0000
  H   H149      1.0  0.29437  0.04513  0.98012  1.0000
  H   H150      1.0  0.18904  0.98457  0.18769  1.0000
  H   H151      1.0  0.13513  0.98400  0.18854  1.0000
  C   C87       1.0  0.03171  0.98387  0.25974  1.0000
  H   H152      1.0  0.33313  0.98386  0.06364  1.0000
  S   S23       1.0  0.03409  0.00315  0.52293  1.0000
  H   H153      1.0  0.03199  0.03668  0.47229  1.0000
  C   C88       1.0  0.02081  0.07229  0.48720  1.0000
  C   C89       1.0  0.09048  0.99377  0.45990  1.0000
  S   S24       1.0  0.00828  0.11548  0.62736  1.0000
  H   H154      1.0  0.03041  0.05778  0.45831  1.0000
  H   H155      1.0  0.01808  0.05045  0.34268  1.0000
  H   H156      1.0  0.01445  0.11502  0.46252  1.0000
  H   H157      1.0  0.03437  0.03571  0.44195  1.0000
  H   H158      1.0  0.06168  0.05510  0.63134  1.0000
  S   S25       1.0  0.10576  0.00157  0.54496  1.0000
  N   N7        1.0  0.02625  0.06184  0.59600  1.0000
  S   S26       1.0  0.13893  0.99846  0.62506  1.0000
  H   H159      1.0  0.10578  0.04113  0.50553  1.0000
  C   C90       1.0  0.15253  0.03401  0.46674  1.0000
  H   H160      1.0  0.00708  0.12434  0.59117  1.0000
  H   H161      1.0  0.10979  0.02582  0.34445  1.0000
  S   S27       1.0  0.02380  0.07726  0.53866  1.0000
  S   S28       1.0  0.00756  0.07597  0.41034  1.0000
  C   C91       1.0  0.09536  0.02826  0.35034  1.0000
  N   N8        1.0  0.06966  0.05294  0.36103  1.0000
  H   H162      1.0  0.07571  0.04378  0.38690  1.0000
  H   H163      1.0  0.00451  0.07942  0.45885  1.0000
  S   S29       1.0  0.00616  0.11232  0.43171  1.0000
  Fe  Fe10      1.0  0.99518  0.09026  0.54064  1.0000
  C   C92       1.0  0.05807  0.04901  0.35165  1.0000
  H   H164      1.0  0.99806  0.07874  0.62259  1.0000
  H   H165      1.0  0.08219  0.98735  0.60375  1.0000
  C   C93       1.0  0.02102  0.04009  0.44995  1.0000
  H   H166      1.0  0.08689  0.07331  0.37147  1.0000
  C   C94       1.0  0.99576  0.07021  0.46664  1.0000
  C   C95       1.0  0.12504  0.01816  0.49834  1.0000
  H   H167      1.0  0.01544  0.06276  0.63215  1.0000
  H   H168      1.0  0.11700  0.00942  0.50842  1.0000
  C   C96       1.0  0.08901  0.04736  0.35282  1.0000
  C   C97       1.0  0.00764  0.00973  0.41178  1.0000
  H   H169      1.0  0.01960  0.02886  0.59188  1.0000
  C   C98       1.0  0.06031  0.05786  0.33206  1.0000
  H   H170      1.0  0.14604  0.03766  0.45554  1.0000
  Fe  Fe11      1.0  0.07386  0.98964  0.39861  1.0000
  C   C99       1.0  0.03502  0.03036  0.31269  1.0000
  S   S30       1.0  0.08976  0.02469  0.62965  1.0000
  H   H171      1.0  0.01208  0.05082  0.31703  1.0000
  H   H172      1.0  0.11334  0.00762  0.47539  1.0000
  H   H173      1.0  0.01683  0.05873  0.57497  1.0000
  N   N9        1.0  0.00592  0.05390  0.47681  1.0000
  C   C100      1.0  0.03804  0.99142  0.45148  1.0000
  H   H174      1.0  0.07303  0.01500  0.44621  1.0000
  C   C101      1.0  0.00024  0.11926  0.46394  1.0000
  H   H175      1.0  0.07386  0.05349  0.32450  1.0000
  C   C102      1.0  0.03205  0.03341  0.58509  1.0000
  H   H176      1.0  0.16240  0.00642  0.46715  1.0000
  H   H177      1.0  0.01382  0.08498  0.48042  1.0000
  C   C103      1.0  0.04199  0.05585  0.60447  1.0000
  H   H178      1.0  0.07099  0.07953  0.34654  1.0000
  C   C104      1.0  0.08285  0.98787  0.32227  1.0000
  C   C105      1.0  0.15348  0.01469  0.47630  1.0000
  H   H179      1.0  0.01272  0.04221  0.61448  1.0000
  N   N10       1.0  0.13602  0.00916  0.48362  1.0000
  H   H180      1.0  0.05107  0.05420  0.32660  1.0000
  H   H181      1.0  0.00939  0.00417  0.33499  1.0000
  C   C106      1.0  0.01040  0.05770  0.49188  1.0000
  H   H182      1.0  0.12265  0.99086  0.60036  1.0000
  C   C107      1.0  0.11793  0.98942  0.56079  1.0000
  H   H183      1.0  0.09265  0.05606  0.33979  1.0000
  C   C108      1.0  0.03614  0.08995  0.57589  1.0000
  H   H184      1.0  0.02845  0.00114  0.44414  1.0000
  H   H185      1.0  0.01339  0.05037  0.44114  1.0000
  H   H186      1.0  0.01934  0.08797  0.60106  1.0000
  H   H187      1.0  0.11713  0.04539  0.48311  1.0000
  H   H188      1.0  0.08890  0.02576  0.34121  1.0000
  H   H189      1.0  0.12145  0.02680  0.46431  1.0000
  C   C109      1.0  0.00961  0.99949  0.36229  1.0000
  C   C110      1.0  0.07243  0.07832  0.37264  1.0000
  C   C111      1.0  0.01460  0.00951  0.34323  1.0000
  S   S31       1.0  0.05110  0.00070  0.38537  1.0000
  H   H190      1.0  0.05133  0.99148  0.44274  1.0000
  H   H191      1.0  0.03984  0.06082  0.38576  1.0000
  H   H192      1.0  0.09357  0.01850  0.36289  1.0000
  H   H193      1.0  0.06636  0.03882  0.59280  1.0000
  C   C112      1.0  0.13552  0.00453  0.45360  1.0000
  H   H194      1.0  0.16622  0.03618  0.46138  1.0000
  H   H195      1.0  0.00717  0.02259  0.50476  1.0000
  Fe  Fe12      1.0  0.06794  0.98651  0.36463  1.0000
  H   H196      1.0  0.03070  0.02924  0.35015  1.0000
  H   H197      1.0  0.13365  0.02078  0.50544  1.0000
  H   H198      1.0  0.04223  0.02709  0.59295  1.0000
  C   C113      1.0  0.00938  0.08630  0.32657  1.0000
  H   H199      1.0  0.01516  0.01594  0.48419  1.0000
  C   C114      1.0  0.01693  0.03683  0.34965  1.0000
  C   C115      1.0  0.99481  0.12062  0.59871  1.0000
  C   C116      1.0  0.11542  0.99561  0.57581  1.0000
  H   H200      1.0  0.03681  0.02878  0.57265  1.0000
  S   S32       1.0  0.01467  0.08177  0.35951  1.0000
  H   H201      1.0  0.01598  0.01039  0.39894  1.0000
  S   S33       1.0  0.07811  0.00774  0.41257  1.0000
  C   C117      1.0  0.04717  0.04743  0.39058  1.0000
  H   H202      1.0  0.01693  0.00199  0.37067  1.0000
  H   H203      1.0  0.03937  0.03805  0.39081  1.0000
  H   H204      1.0  0.01471  0.02866  0.45485  1.0000
  H   H205      1.0  0.03067  0.10428  0.57211  1.0000
  H   H206      1.0  0.10599  0.00775  0.57758  1.0000
  C   C118      1.0  0.03117  0.02272  0.52951  1.0000
  C   C119      1.0  0.04581  0.02864  0.52975  1.0000
  C   C120      1.0  0.04352  0.04526  0.53297  1.0000
  C   C121      1.0  0.02655  0.05589  0.53618  1.0000
  C   C122      1.0  0.01184  0.04953  0.53696  1.0000
  C   C123      1.0  0.01413  0.03297  0.53365  1.0000
  H   H207      1.0  0.05895  0.02064  0.52708  1.0000
  H   H208      1.0  0.05492  0.05000  0.53261  1.0000
  H   H209      1.0  0.06986  0.09289  0.36956  1.0000
  H   H210      1.0  0.00271  0.02831  0.53394  1.0000
  S   S34       1.0  0.08598  0.99840  0.50890  1.0000
  H   H211      1.0  0.01880  0.04584  0.49855  1.0000
  C   C124      1.0  0.08286  0.00289  0.44553  1.0000
  H   H212      1.0  0.03974  0.05728  0.56995  1.0000
  H   H213      1.0  0.04762  0.04669  0.40423  1.0000
  H   H214      1.0  0.05097  0.07810  0.36186  1.0000
  H   H215      1.0  0.04388  0.05325  0.35776  1.0000
  C   C125      1.0  0.12577  0.01256  0.46967  1.0000
  H   H216      1.0  0.04134  0.04310  0.61405  1.0000
  C   C126      1.0  0.02873  0.05362  0.58083  1.0000
  C   C127      1.0  0.99448  0.04054  0.48392  1.0000
  Fe  Fe13      1.0  0.09508  0.98543  0.53392  1.0000
  N   N11       1.0  0.00876  0.02926  0.33969  1.0000
  H   H217      1.0  0.06898  0.02861  0.38020  1.0000
  H   H218      1.0  0.06146  0.06022  0.57855  1.0000
  H   H219      1.0  0.00949  0.08592  0.58492  1.0000
  H   H220      1.0  0.03431  0.06854  0.47926  1.0000
  H   H221      1.0  0.03833  0.01674  0.31076  1.0000
  H   H222      1.0  0.99866  0.05744  0.53982  1.0000
  C   C128      1.0  0.06065  0.05302  0.59229  1.0000
  H   H223      1.0  0.16058  0.01251  0.48686  1.0000
  S   S35       1.0  0.06754  0.00022  0.33677  1.0000
  H   H224      1.0  0.99517  0.00224  0.36787  1.0000
  C   C129      1.0  0.00442  0.06463  0.62572  1.0000
  C   C130      1.0  0.01028  0.05666  0.60939  1.0000
  H   H225      1.0  0.04153  0.06532  0.61223  1.0000
  C   C131      1.0  0.00686  0.03818  0.36853  1.0000
  C   C132      1.0  0.11140  0.03539  0.49377  1.0000
  H   H226      1.0  0.04794  0.08854  0.58103  1.0000
  H   H227      1.0  0.09745  0.04881  0.36080  1.0000
  H   H228      1.0  0.99826  0.06099  0.50201  1.0000
  H   H229      1.0  0.14163  0.98989  0.51772  1.0000
  H   H230      1.0  0.06537  0.07427  0.38638  1.0000
  C   C133      1.0  0.02189  0.08155  0.58998  1.0000
  H   H231      1.0  0.14744  0.00979  0.44627  1.0000
  C   C134      1.0  0.00336  0.02215  0.49294  1.0000
  H   H232      1.0  0.01663  0.03719  0.37618  1.0000
  H   H233      1.0  0.02927  0.00536  0.33956  1.0000
  C   C135      1.0  0.12488  0.98604  0.58873  1.0000
  H   H234      1.0  0.03995  0.08501  0.56375  1.0000
  Fe  Fe14      1.0  0.99784  0.08705  0.38543  1.0000
  C   C136      1.0  0.02296  0.04717  0.46480  1.0000
  H   H235      1.0  0.06976  0.05743  0.59732  1.0000
  C   C137      1.0  0.99936  0.02521  0.41779  1.0000
  H   H236      1.0  0.07802  0.99493  0.62316  1.0000
  H   H237      1.0  0.10011  0.03283  0.49032  1.0000
  H   H238      1.0  0.08650  0.99882  0.47163  1.0000
  H   H239      1.0  0.99858  0.06020  0.60334  1.0000
  C   C138      1.0  0.06547  0.07247  0.35991  1.0000
  H   H240      1.0  0.06003  0.03462  0.35306  1.0000
  C   C139      1.0  0.06625  0.04285  0.37970  1.0000
  H   H241      1.0  0.02245  0.07807  0.32378  1.0000
  H   H242      1.0  0.14582  0.04292  0.47581  1.0000
  H   H243      1.0  0.00170  0.03772  0.40965  1.0000
  H   H244      1.0  0.13909  0.99001  0.45698  1.0000
  C   C140      1.0  0.00255  0.09064  0.34298  1.0000
  H   H245      1.0  0.02242  0.07444  0.49946  1.0000
  C   C141      1.0  0.08775  0.99624  0.43039  1.0000
  H   H246      1.0  0.12732  0.98476  0.49546  1.0000
  H   H247      1.0  0.02931  0.01126  0.63265  1.0000
  C   C142      1.0  0.00460  0.99352  0.42215  1.0000
  H   H248      1.0  0.12647  0.00805  0.44450  1.0000
  C   C143      1.0  0.07215  0.98919  0.61596  1.0000
  H   H249      1.0  0.03725  0.99601  0.46323  1.0000
  Fe  Fe15      1.0  0.06177  0.98780  0.52304  1.0000
  H   H250      1.0  0.04958  0.00664  0.63930  1.0000
  H   H251      1.0  0.99925  0.02798  0.37567  1.0000
  H   H252      1.0  0.01380  0.98518  0.36273  1.0000
  C   C144      1.0  0.99924  0.09253  0.31372  1.0000
  H   H253      1.0  0.05678  0.07238  0.32991  1.0000
  Fe  Fe16      1.0  0.11029  0.00120  0.63859  1.0000
  H   H254      1.0  0.06039  0.99868  0.61188  1.0000
  H   H255      1.0  0.04338  0.03134  0.32087  1.0000
  C   C145      1.0  0.13982  0.98961  0.49111  1.0000
  H   H256      1.0  0.16282  0.98504  0.50281  1.0000
  C   C146      1.0  0.01504  0.03621  0.32033  1.0000
  H   H257      1.0  0.99808  0.05136  0.36881  1.0000
  H   H258      1.0  0.99568  0.12341  0.48993  1.0000
  H   H259      1.0  0.00783  0.03239  0.31266  1.0000
  H   H260      1.0  0.02234  0.98358  0.49155  1.0000
  C   C147      1.0  0.03681  0.00268  0.64260  1.0000
  H   H261      1.0  0.04131  0.13694  0.71182  1.0000
  H   H262      1.0  0.02507  0.19950  0.82494  1.0000
  H   H263      1.0  0.06901  0.98645  0.65125  1.0000
  Fe  Fe17      1.0  0.32537  0.02110  0.75406  1.0000
  S   S36       1.0  0.30717  0.03815  0.77184  1.0000
  C   C148      1.0  0.44875  0.10879  0.73669  1.0000
  S   S37       1.0  0.35402  0.01080  0.75500  1.0000
  Fe  Fe18      1.0  0.47088  0.08426  0.83459  1.0000
  S   S38       1.0  0.47089  0.05905  0.85473  1.0000
  S   S39       1.0  0.44648  0.09823  0.82400  1.0000
  H   H264      1.0  0.07541  0.14936  0.71973  1.0000
  N   N12       1.0  0.04996  0.16739  0.71934  1.0000
  H   H265      1.0  0.36390  0.03860  0.76729  1.0000
  H   H266      1.0  0.31106  0.08172  0.77919  1.0000
  H   H267      1.0  0.49401  0.09292  0.88346  1.0000
  C   C149      1.0  0.29824  0.04148  0.92899  1.0000
  C   C150      1.0  0.04629  0.20017  0.70392  1.0000
  H   H268      1.0  0.40841  0.08374  0.77070  1.0000
  H   H269      1.0  0.01976  0.20003  0.79629  1.0000
  Fe  Fe19      1.0  0.33946  0.03763  0.84503  1.0000
  S   S40       1.0  0.35668  0.05121  0.82165  1.0000
  S   S41       1.0  0.33396  0.01340  0.84193  1.0000
  Fe  Fe20      1.0  0.33634  0.06379  0.86637  1.0000
  S   S42       1.0  0.35364  0.07942  0.84479  1.0000
  S   S43       1.0  0.32310  0.07426  0.89062  1.0000
  Fe  Fe21      1.0  0.33799  0.07583  0.82776  1.0000
  S   S44       1.0  0.32940  0.09796  0.80628  1.0000
  Fe  Fe22      1.0  0.37058  0.05321  0.84090  1.0000
  S   S45       1.0  0.40005  0.04361  0.83620  1.0000
  S   S46       1.0  0.31943  0.06214  0.84961  1.0000
  S   S47       1.0  0.35468  0.03769  0.86403  1.0000
  Fe  Fe23      1.0  0.00805  0.07078  0.68356  1.0000
  C   C151      1.0  0.42039  0.11927  0.77388  1.0000
  N   N13       1.0  0.27124  0.99822  0.80209  1.0000
  H   H270      1.0  0.46741  0.07232  0.75910  1.0000
  S   S48       1.0  0.00778  0.22532  0.73453  1.0000
  H   H271      1.0  0.46466  0.03052  0.80551  1.0000
  H   H272      1.0  0.06346  0.07396  0.67336  1.0000
  C   C152      1.0  0.07659  0.03185  0.70439  1.0000
  Fe  Fe24      1.0  0.36807  0.07040  0.96066  1.0000
  S   S49       1.0  0.37546  0.05331  0.94144  1.0000
  C   C153      1.0  0.42128  0.05637  0.91342  1.0000
  S   S50       1.0  0.37380  0.09715  0.95460  1.0000
  H   H273      1.0  0.27747  0.06888  0.71605  1.0000
  C   C154      1.0  0.06783  0.01706  0.66184  1.0000
  H   H274      1.0  0.09802  0.00796  0.70825  1.0000
  S   S51       1.0  0.18477  0.02554  0.75588  1.0000
  Fe  Fe25      1.0  0.46891  0.99942  0.74445  1.0000
  H   H275      1.0  0.44349  0.01381  0.68949  1.0000
  H   H276      1.0  0.45844  0.99513  0.69971  1.0000
  C   C155      1.0  0.04622  0.20230  0.78217  1.0000
  H   H277      1.0  0.04368  0.18979  0.73148  1.0000
  H   H278      1.0  0.43551  0.99400  0.72810  1.0000
  C   C156      1.0  0.27011  0.06576  0.72983  1.0000
  C   C157      1.0  0.41173  0.05019  0.73703  1.0000
  C   C158      1.0  0.43098  0.99990  0.71564  1.0000
  Fe  Fe26      1.0  0.11979  0.20713  0.82085  1.0000
  S   S52       1.0  0.10509  0.18890  0.84213  1.0000
  S   S53       1.0  0.14484  0.19670  0.80271  1.0000
  Fe  Fe27      1.0  0.08067  0.20843  0.83568  1.0000
  C   C159      1.0  0.48883  0.07973  0.93375  1.0000
  Fe  Fe28      1.0  0.10518  0.20603  0.85930  1.0000
  S   S54       1.0  0.11538  0.19360  0.88409  1.0000
  S   S55       1.0  0.09539  0.22533  0.81285  1.0000
  S   S56       1.0  0.32954  0.13063  0.96304  1.0000
  H   H279      1.0  0.06338  0.03435  0.70128  1.0000
  S   S57       1.0  0.35715  0.99250  0.72256  1.0000
  H   H280      1.0  0.26466  0.98439  0.82908  1.0000
  C   C160      1.0  0.07196  0.21239  0.91827  1.0000
  S   S58       1.0  0.24072  0.07476  0.94172  1.0000
  C   C161      1.0  0.29996  0.11892  0.96441  1.0000
  S   S59       1.0  0.21781  0.99242  0.76600  1.0000
  C   C162      1.0  0.05282  0.02109  0.67493  1.0000
  H   H281      1.0  0.14715  0.19732  0.92584  1.0000
  C   C163      1.0  0.04408  0.04959  0.65649  1.0000
  H   H282      1.0  0.10199  0.20278  0.94354  1.0000
  Fe  Fe29      1.0  0.22940  0.10250  0.81828  1.0000
  S   S60       1.0  0.23401  0.08104  0.84167  1.0000
  S   S61       1.0  0.24954  0.11709  0.79981  1.0000
  Fe  Fe30      1.0  0.19040  0.10226  0.82495  1.0000
  S   S62       1.0  0.19178  0.08037  0.84871  1.0000
  S   S63       1.0  0.16390  0.11382  0.81782  1.0000
  Fe  Fe31      1.0  0.20785  0.09503  0.85550  1.0000
  S   S64       1.0  0.19942  0.10486  0.88043  1.0000
  Fe  Fe32      1.0  0.21754  0.06852  0.83255  1.0000
  S   S65       1.0  0.22683  0.04034  0.83020  1.0000
  S   S66       1.0  0.20471  0.11770  0.83269  1.0000
  S   S67       1.0  0.21473  0.08914  0.80815  1.0000
  H   H283      1.0  0.40914  0.12961  0.92973  1.0000
  C   C164      1.0  0.21280  0.03204  0.82309  1.0000
  C   C165      1.0  0.21407  0.03395  0.80522  1.0000
  C   C166      1.0  0.20461  0.02515  0.79965  1.0000
  C   C167      1.0  0.19354  0.01478  0.81198  1.0000
  C   C168      1.0  0.19203  0.01322  0.82981  1.0000
  C   C169      1.0  0.20182  0.02159  0.83534  1.0000
  H   H284      1.0  0.22273  0.04182  0.79569  1.0000
  H   H285      1.0  0.20584  0.02640  0.78584  1.0000
  H   H286      1.0  0.20104  0.01979  0.84915  1.0000
  C   C170      1.0  0.22892  0.08272  0.92491  1.0000
  C   C171      1.0  0.23355  0.07424  0.91099  1.0000
  C   C172      1.0  0.22462  0.08083  0.89715  1.0000
  C   C173      1.0  0.21099  0.09588  0.89733  1.0000
  C   C174      1.0  0.20629  0.10423  0.91132  1.0000
  C   C175      1.0  0.21519  0.09766  0.92507  1.0000
  H   H287      1.0  0.24395  0.06248  0.91097  1.0000
  H   H288      1.0  0.22815  0.07420  0.88649  1.0000
  H   H289      1.0  0.19568  0.11579  0.91153  1.0000
  H   H290      1.0  0.21130  0.10410  0.93585  1.0000
  H   H291      1.0  0.46477  0.08487  0.79242  1.0000
  C   C176      1.0  0.14405  0.00340  0.70777  1.0000
  H   H292      1.0  0.43848  0.07841  0.92587  1.0000
  S   S68       1.0  0.46092  0.99553  0.80813  1.0000
  H   H293      1.0  0.28449  0.02704  0.96043  1.0000
  H   H294      1.0  0.24924  0.02316  0.77756  1.0000
  H   H295      1.0  0.21847  0.09361  0.75094  1.0000
  C   C177      1.0  0.14999  0.17375  0.80553  1.0000
  C   C178      1.0  0.16776  0.16475  0.80280  1.0000
  C   C179      1.0  0.17215  0.14634  0.80636  1.0000
  C   C180      1.0  0.15875  0.13688  0.81220  1.0000
  C   C181      1.0  0.14098  0.14588  0.81416  1.0000
  C   C182      1.0  0.13660  0.16428  0.81100  1.0000
  H   H296      1.0  0.17815  0.17204  0.79841  1.0000
  H   H297      1.0  0.18589  0.13951  0.80450  1.0000
  H   H298      1.0  0.13057  0.13863  0.81851  1.0000
  H   H299      1.0  0.12286  0.17117  0.81269  1.0000
  N   N14       1.0  0.08731  0.04455  0.69179  1.0000
  Fe  Fe33      1.0  0.14411  0.98775  0.65208  1.0000
  C   C183      1.0  0.45129  0.12534  0.95492  1.0000
  H   H300      1.0  0.08701  0.07214  0.68861  1.0000
  H   H301      1.0  0.41559  0.01024  0.69081  1.0000
  C   C184      1.0  0.99979  0.14511  0.72685  1.0000
  C   C185      1.0  0.26838  0.99849  0.78453  1.0000
  H   H302      1.0  0.29908  0.99783  0.79197  1.0000
  C   C186      1.0  0.05900  0.04547  0.64334  1.0000
  H   H303      1.0  0.15936  0.17896  0.96043  1.0000
  C   C187      1.0  0.27028  0.13759  0.96794  1.0000
  C   C188      1.0  0.16262  0.18252  0.94594  1.0000
  C   C189      1.0  0.30699  0.13302  0.96394  1.0000
  C   C190      1.0  0.10101  0.19942  0.90309  1.0000
  C   C191      1.0  0.10775  0.19757  0.91773  1.0000
  C   C192      1.0  0.09668  0.20364  0.93248  1.0000
  H   H304      1.0  0.41711  0.06028  0.92620  1.0000
  H   H305      1.0  0.44616  0.12091  0.74150  1.0000
  H   H306      1.0  0.12163  0.19192  0.91742  1.0000
  C   C193      1.0  0.37019  0.09765  0.75410  1.0000
  H   H307      1.0  0.05452  0.08357  0.69197  1.0000
  S   S69       1.0  0.00811  0.11685  0.71222  1.0000
  C   C194      1.0  0.99522  0.17543  0.71087  1.0000
  S   S70       1.0  0.47121  0.02674  0.72976  1.0000
  H   H308      1.0  0.04775  0.14131  0.73491  1.0000
  H   H309      1.0  0.10025  0.05177  0.71787  1.0000
  H   H310      1.0  0.42084  0.01197  0.71776  1.0000
  C   C195      1.0  0.40615  0.98535  0.72436  1.0000
  C   C196      1.0  0.99650  0.16981  0.69573  1.0000
  H   H311      1.0  0.30130  0.02689  0.93210  1.0000
  C   C197      1.0  0.30710  0.10250  0.80499  1.0000
  C   C198      1.0  0.29608  0.09071  0.81404  1.0000
  C   C199      1.0  0.27827  0.09495  0.81266  1.0000
  C   C200      1.0  0.27159  0.11094  0.80212  1.0000
  C   C201      1.0  0.28277  0.12244  0.79281  1.0000
  C   C202      1.0  0.30042  0.11827  0.79428  1.0000
  H   H312      1.0  0.30130  0.07824  0.82185  1.0000
  H   H313      1.0  0.26982  0.08581  0.81958  1.0000
  H   H314      1.0  0.27769  0.13476  0.78456  1.0000
  H   H315      1.0  0.30888  0.12739  0.78716  1.0000
  C   C203      1.0  0.33774  0.06867  0.90461  1.0000
  C   C204      1.0  0.35092  0.05328  0.90475  1.0000
  C   C205      1.0  0.36236  0.04859  0.91621  1.0000
  C   C206      1.0  0.36073  0.05934  0.92751  1.0000
  C   C207      1.0  0.34759  0.07480  0.92736  1.0000
  C   C208      1.0  0.33604  0.07943  0.91595  1.0000
  H   H316      1.0  0.35211  0.04475  0.89632  1.0000
  H   H317      1.0  0.37246  0.03658  0.91636  1.0000
  H   H318      1.0  0.34644  0.08331  0.93587  1.0000
  H   H319      1.0  0.32592  0.09143  0.91579  1.0000
  H   H320      1.0  0.45146  0.01494  0.70729  1.0000
  H   H321      1.0  0.40713  0.09079  0.79046  1.0000
  H   H322      1.0  0.27757  0.06159  0.91692  1.0000
  H   H323      1.0  0.13888  0.17140  0.86119  1.0000
  C   C209      1.0  0.25895  0.98895  0.81722  1.0000
  H   H324      1.0  0.18383  0.14737  0.95941  1.0000
  H   H325      1.0  0.35921  0.10944  0.75348  1.0000
  C   C210      1.0  0.36414  0.08116  0.76642  1.0000
  C   C211      1.0  0.43379  0.08336  0.82557  1.0000
  C   C212      1.0  0.41569  0.08927  0.82567  1.0000
  C   C213      1.0  0.40524  0.07718  0.82819  1.0000
  C   C214      1.0  0.41294  0.05923  0.83068  1.0000
  C   C215      1.0  0.43117  0.05346  0.82964  1.0000
  C   C216      1.0  0.44160  0.06552  0.82703  1.0000
  H   H326      1.0  0.40968  0.10311  0.82430  1.0000
  H   H327      1.0  0.39119  0.08171  0.82875  1.0000
  H   H328      1.0  0.43720  0.03958  0.83133  1.0000
  H   H329      1.0  0.45565  0.06096  0.82634  1.0000
  H   H330      1.0  0.44859  0.11378  0.77119  1.0000
  H   H331      1.0  0.08986  0.16382  0.72953  1.0000
  C   C217      1.0  0.06990  0.16374  0.71622  1.0000
  H   H332      1.0  0.33500  0.02040  0.95821  1.0000
  H   H333      1.0  0.41668  0.09086  0.86276  1.0000
  H   H334      1.0  0.08216  0.18460  0.71670  1.0000
  S   S71       1.0  0.07917  0.22391  0.85511  1.0000
  H   H335      1.0  0.44346  0.08032  0.87724  1.0000
  H   H336      1.0  0.41708  0.03216  0.89363  1.0000
  H   H337      1.0  0.99474  0.16724  0.73835  1.0000
  C   C218      1.0  0.31340  0.03069  0.79196  1.0000
  C   C219      1.0  0.30860  0.04189  0.80352  1.0000
  C   C220      1.0  0.31468  0.03641  0.81905  1.0000
  C   C221      1.0  0.32515  0.01958  0.82328  1.0000
  C   C222      1.0  0.32943  0.00815  0.81202  1.0000
  C   C223      1.0  0.32377  0.01381  0.79623  1.0000
  H   H338      1.0  0.30062  0.05496  0.80030  1.0000
  H   H339      1.0  0.31117  0.04518  0.82780  1.0000
  H   H340      1.0  0.26414  0.01243  0.83225  1.0000
  H   H341      1.0  0.32749  0.00505  0.78740  1.0000
  S   S72       1.0  0.02199  0.09309  0.67252  1.0000
  H   H342      1.0  0.27683  0.08693  0.73511  1.0000
  H   H343      1.0  0.36008  0.08350  0.77995  1.0000
  C   C224      1.0  0.35892  0.04399  0.77922  1.0000
  H   H344      1.0  0.05053  0.01174  0.68725  1.0000
  C   C225      1.0  0.08858  0.04319  0.67347  1.0000
  H   H345      1.0  0.27071  0.10163  0.76820  1.0000
  H   H346      1.0  0.43647  0.07214  0.79293  1.0000
  H   H347      1.0  0.28007  0.11172  0.89913  1.0000
  C   C226      1.0  0.39138  0.03964  0.72059  1.0000
  C   C227      1.0  0.39400  0.03031  0.73725  1.0000
  C   C228      1.0  0.40450  0.03538  0.74529  1.0000
  H   H348      1.0  0.38864  0.01879  0.74360  1.0000
  H   H349      1.0  0.40702  0.02784  0.75786  1.0000
  H   H350      1.0  0.33306  0.05682  0.77518  1.0000
  N   N15       1.0  0.25487  0.08031  0.75622  1.0000
  C   C229      1.0  0.23951  0.07164  0.75996  1.0000
  H   H351      1.0  0.23193  0.07120  0.77368  1.0000
  C   C230      1.0  0.34437  0.06089  0.77681  1.0000
  C   C231      1.0  0.15732  0.00889  0.71156  1.0000
  S   S73       1.0  0.38000  0.03264  0.70926  1.0000
  H   H352      1.0  0.43341  0.10296  0.87456  1.0000
  H   H353      1.0  0.40365  0.09707  0.88255  1.0000
  H   H354      1.0  0.23168  0.08151  0.73436  1.0000
  N   N16       1.0  0.27261  0.10944  0.86602  1.0000
  C   C232      1.0  0.28686  0.11955  0.86236  1.0000
  C   C233      1.0  0.26173  0.11015  0.88425  1.0000
  C   C234      1.0  0.26122  0.11827  0.85266  1.0000
  C   C235      1.0  0.28169  0.09094  0.86422  1.0000
  C   C236      1.0  0.29898  0.12105  0.84384  1.0000
  H   H355      1.0  0.42304  0.13208  0.76564  1.0000
  C   C237      1.0  0.24149  0.11736  0.85830  1.0000
  C   C238      1.0  0.27013  0.07728  0.87058  1.0000
  H   H356      1.0  0.28087  0.13312  0.86447  1.0000
  H   H357      1.0  0.29597  0.11339  0.87151  1.0000
  H   H358      1.0  0.25094  0.10296  0.88775  1.0000
  H   H359      1.0  0.25492  0.12396  0.88498  1.0000
  H   H360      1.0  0.26100  0.13260  0.84832  1.0000
  H   H361      1.0  0.26686  0.11313  0.84052  1.0000
  H   H362      1.0  0.28799  0.09064  0.85032  1.0000
  H   H363      1.0  0.29271  0.08581  0.87127  1.0000
  H   H364      1.0  0.30764  0.10816  0.84192  1.0000
  H   H365      1.0  0.29150  0.12668  0.83331  1.0000
  H   H366      1.0  0.30793  0.12986  0.84223  1.0000
  H   H367      1.0  0.41413  0.15105  0.94482  1.0000
  H   H368      1.0  0.43838  0.06417  0.77423  1.0000
  H   H369      1.0  0.17097  0.13614  0.92617  1.0000
  H   H370      1.0  0.23547  0.12254  0.84667  1.0000
  H   H371      1.0  0.23400  0.12569  0.86782  1.0000
  H   H372      1.0  0.23937  0.10392  0.86393  1.0000
  H   H373      1.0  0.00125  0.13557  0.73890  1.0000
  H   H374      1.0  0.27855  0.06439  0.86835  1.0000
  H   H375      1.0  0.25969  0.08049  0.86317  1.0000
  S   S74       1.0  0.15390  0.01395  0.73198  1.0000
  H   H376      1.0  0.25632  0.09277  0.72874  1.0000
  H   H377      1.0  0.03941  0.20071  0.69369  1.0000
  H   H378      1.0  0.37678  0.09550  0.74077  1.0000
  H   H379      1.0  0.24868  0.01350  0.70875  1.0000
  H   H380      1.0  0.43745  0.10178  0.79059  1.0000
  Fe  Fe34      1.0  0.21301  0.01507  0.74360  1.0000
  H   H381      1.0  0.16363  0.10480  0.87683  1.0000
  H   H382      1.0  0.27856  0.00426  0.77378  1.0000
  H   H383      1.0  0.41122  0.11315  0.94899  1.0000
  H   H384      1.0  0.16309  0.17647  0.83530  1.0000
  C   C239      1.0  0.04121  0.18616  0.72046  1.0000
  H   H385      1.0  0.25857  0.06103  0.72957  1.0000
  H   H386      1.0  0.18455  0.15837  0.91431  1.0000
  H   H387      1.0  0.12122  0.03708  0.71391  1.0000
  C   C240      1.0  0.04505  0.16413  0.70414  1.0000
  N   N17       1.0  0.41078  0.06899  0.88400  1.0000
  H   H388      1.0  0.39556  0.14134  0.95562  1.0000
  H   H389      1.0  0.18350  0.00521  0.83938  1.0000
  H   H390      1.0  0.48698  0.07632  0.94782  1.0000
  S   S75       1.0  0.12132  0.22334  0.83832  1.0000
  C   C241      1.0  0.37849  0.08389  0.88090  1.0000
  H   H391      1.0  0.06900  0.17656  0.73780  1.0000
  H   H392      1.0  0.37005  0.04596  0.78335  1.0000
  C   C242      1.0  0.34435  0.06339  0.73850  1.0000
  H   H393      1.0  0.06422  0.13880  0.70245  1.0000
  H   H394      1.0  0.02775  0.15753  0.73733  1.0000
  H   H395      1.0  0.30567  0.10023  0.76232  1.0000
  C   C243      1.0  0.22577  0.08049  0.74849  1.0000
  C   C244      1.0  0.47436  0.00328  0.81650  1.0000
  H   H396      1.0  0.36960  0.06122  0.74434  1.0000
  C   C245      1.0  0.04104  0.03744  0.67234  1.0000
  C   C246      1.0  0.43359  0.07612  0.77971  1.0000
  H   H397      1.0  0.07364  0.03377  0.71796  1.0000
  H   H398      1.0  0.40841  0.06853  0.79106  1.0000
  S   S76       1.0  0.48064  0.09735  0.84974  1.0000
  C   C247      1.0  0.32223  0.02277  0.95432  1.0000
  C   C248      1.0  0.33402  0.09146  0.76121  1.0000
  H   H399      1.0  0.03823  0.14772  0.76396  1.0000
  H   H400      1.0  0.17130  0.19198  0.94256  1.0000
  H   H401      1.0  0.46553  0.12564  0.94960  1.0000
  S   S77       1.0  0.47207  0.06732  0.89770  1.0000
  H   H402      1.0  0.41255  0.12193  0.78678  1.0000
  C   C249      1.0  0.09890  0.05550  0.65862  1.0000
  H   H403      1.0  0.09535  0.02973  0.67157  1.0000
  H   H404      1.0  0.47038  0.09314  0.75892  1.0000
  H   H405      1.0  0.26677  0.03393  0.82048  1.0000
  H   H406      1.0  0.39241  0.99962  0.78162  1.0000
  C   C250      1.0  0.10581  0.04041  0.69476  1.0000
  C   C251      1.0  0.48248  0.07692  0.90752  1.0000
  Fe  Fe35      1.0  0.01460  0.20723  0.75923  1.0000
  H   H407      1.0  0.27921  0.05512  0.73697  1.0000
  C   C252      1.0  0.29042  0.99004  0.80259  1.0000
  C   C253      1.0  0.41324  0.08043  0.78289  1.0000
  C   C254      1.0  0.35660  0.07064  0.74481  1.0000
  H   H408      1.0  0.04101  0.16961  0.75565  1.0000
  C   C255      1.0  0.16503  0.16431  0.84564  1.0000
  C   C256      1.0  0.41413  0.00922  0.80857  1.0000
  N   N18       1.0  0.43609  0.11960  0.93328  1.0000
  C   C257      1.0  0.43894  0.10560  0.92331  1.0000
  C   C258      1.0  0.44221  0.13517  0.92029  1.0000
  C   C259      1.0  0.41643  0.12469  0.94051  1.0000
  C   C260      1.0  0.44615  0.11218  0.94774  1.0000
  C   C261      1.0  0.46193  0.13177  0.91080  1.0000
  H   H409      1.0  0.24611  0.99817  0.82103  1.0000
  S   S78       1.0  0.06505  0.22125  0.94958  1.0000
  H   H410      1.0  0.45318  0.10158  0.91730  1.0000
  H   H411      1.0  0.43983  0.14644  0.92634  1.0000
  H   H412      1.0  0.43428  0.14024  0.91001  1.0000
  H   H413      1.0  0.24817  0.00548  0.76931  1.0000
  H   H414      1.0  0.45880  0.10315  0.94327  1.0000
  H   H415      1.0  0.46578  0.14451  0.90422  1.0000
  H   H416      1.0  0.47087  0.12453  0.91982  1.0000
  H   H417      1.0  0.46433  0.12451  0.90041  1.0000
  C   C262      1.0  0.18780  0.15667  0.94685  1.0000
  H   H418      1.0  0.26225  0.10152  0.91188  1.0000
  H   H419      1.0  0.26443  0.07540  0.88479  1.0000
  H   H420      1.0  0.33759  0.99516  0.81522  1.0000
  C   C263      1.0  0.99623  0.16306  0.72654  1.0000
  H   H421      1.0  0.02910  0.00612  0.65524  1.0000
  C   C264      1.0  0.24794  0.09828  0.76031  1.0000
  H   H422      1.0  0.42536  0.00358  0.79902  1.0000
  H   H423      1.0  0.15063  0.16703  0.88398  1.0000
  C   C265      1.0  0.26442  0.08240  0.73727  1.0000
  H   H424      1.0  0.35317  0.03382  0.78980  1.0000
  C   C266      1.0  0.07772  0.17285  0.72571  1.0000
  H   H425      1.0  0.23942  0.09758  0.77369  1.0000
  N   N19       1.0  0.17192  0.16627  0.93886  1.0000
  C   C267      1.0  0.39156  0.99245  0.80981  1.0000
  C   C268      1.0  0.40848  0.05988  0.72074  1.0000
  N   N20       1.0  0.34954  0.07586  0.76217  1.0000
  H   H426      1.0  0.13985  0.10850  0.87976  1.0000
  H   H427      1.0  0.28048  0.00035  0.69804  1.0000
  H   H428      1.0  0.39780  0.05426  0.90800  1.0000
  C   C269      1.0  0.25865  0.01420  0.71492  1.0000
  H   H429      1.0  0.33594  0.10054  0.74813  1.0000
  C   C270      1.0  0.26215  0.10837  0.75870  1.0000
  H   H430      1.0  0.14356  0.13076  0.84962  1.0000
  H   H431      1.0  0.23920  0.10689  0.75144  1.0000
  C   C271      1.0  0.43964  0.09463  0.75012  1.0000
  H   H432      1.0  0.09330  0.05876  0.64682  1.0000
  H   H433      1.0  0.37955  0.00333  0.80907  1.0000
  H   H434      1.0  0.41449  0.03686  0.87131  1.0000
  H   H435      1.0  0.28405  0.04145  0.90993  1.0000
  Fe  Fe36      1.0  0.00156  0.10615  0.69270  1.0000
  H   H436      1.0  0.28576  0.01651  0.82011  1.0000
  S   S79       1.0  0.11541  0.99286  0.66561  1.0000
  C   C272      1.0  0.18917  0.18376  0.91080  1.0000
  C   C273      1.0  0.08304  0.20650  0.90352  1.0000
  H   H437      1.0  0.05104  0.06249  0.69328  1.0000
  H   H438      1.0  0.27003  0.04234  0.93101  1.0000
  H   H439      1.0  0.43856  0.10400  0.95897  1.0000
  H   H440      1.0  0.42539  0.09883  0.75003  1.0000
  H   H441      1.0  0.41173  0.11504  0.76829  1.0000
  H   H442      1.0  0.44411  0.08262  0.74464  1.0000
  C   C274      1.0  0.99956  0.15182  0.69613  1.0000
  H   H443      1.0  0.04835  0.14483  0.68902  1.0000
  H   H444      1.0  0.23914  0.00560  0.79193  1.0000
  C   C275      1.0  0.07882  0.21135  0.93259  1.0000
  C   C276      1.0  0.39996  0.98978  0.79093  1.0000
  H   H445      1.0  0.13460  0.18547  0.94565  1.0000
  H   H446      1.0  0.08555  0.00863  0.69262  1.0000
  H   H447      1.0  0.17776  0.12821  0.94690  1.0000
  H   H448      1.0  0.07715  0.00466  0.66410  1.0000
  H   H449      1.0  0.10187  0.02826  0.72303  1.0000
  H   H450      1.0  0.18292  0.19671  0.91417  1.0000
  H   H451      1.0  0.19154  0.18601  0.89636  1.0000
  H   H452      1.0  0.38019  0.10060  0.75922  1.0000
  H   H453      1.0  0.05120  0.17200  0.69153  1.0000
  C   C277      1.0  0.27660  0.00691  0.70879  1.0000
  H   H454      1.0  0.39670  0.06162  0.69951  1.0000
  H   H455      1.0  0.35977  0.08207  0.73423  1.0000
  N   N21       1.0  0.29713  0.04847  0.94466  1.0000
  H   H456      1.0  0.48401  0.07261  0.78066  1.0000
  C   C278      1.0  0.31534  0.04273  0.94866  1.0000
  C   C279      1.0  0.29201  0.06826  0.93954  1.0000
  C   C280      1.0  0.28320  0.04126  0.95948  1.0000
  H   H457      1.0  0.20146  0.17875  0.94093  1.0000
  H   H458      1.0  0.44998  0.12049  0.96926  1.0000
  C   C281      1.0  0.29583  0.07870  0.95062  1.0000
  H   H459      1.0  0.05808  0.21814  0.91844  1.0000
  H   H460      1.0  0.31302  0.01668  0.96577  1.0000
  H   H461      1.0  0.18703  0.00878  0.67261  1.0000
  H   H462      1.0  0.31633  0.04854  0.95898  1.0000
  H   H463      1.0  0.32520  0.04766  0.93707  1.0000
  H   H464      1.0  0.29893  0.07312  0.92586  1.0000
  H   H465      1.0  0.27762  0.07277  0.93964  1.0000
  H   H466      1.0  0.30865  0.10629  0.96339  1.0000
  Fe  Fe37      1.0  0.23019  0.08854  0.96426  1.0000
  C   C282      1.0  0.00169  0.13944  0.71162  1.0000
  S   S80       1.0  0.16565  0.99597  0.65845  1.0000
  C   C283      1.0  0.08480  0.01218  0.70498  1.0000
  H   H467      1.0  0.29334  0.99024  0.81503  1.0000
  C   C284      1.0  0.16671  0.13574  0.94036  1.0000
  S   S81       1.0  0.21669  0.11693  0.96217  1.0000
  H   H468      1.0  0.26886  0.16442  0.96790  1.0000
  H   H469      1.0  0.31023  0.07751  0.94894  1.0000
  H   H470      1.0  0.28961  0.07508  0.96459  1.0000
  N   N22       1.0  0.40317  0.99603  0.81949  1.0000
  H   H471      1.0  0.39958  0.00661  0.84218  1.0000
  H   H472      1.0  0.13622  0.99508  0.68876  1.0000
  H   H473      1.0  0.02655  0.18801  0.72327  1.0000
  C   C285      1.0  0.26794  0.01704  0.80352  1.0000
  H   H474      1.0  0.46324  0.10374  0.73276  1.0000
  H   H475      1.0  0.44314  0.13881  0.95292  1.0000
  C   C286      1.0  0.07809  0.06277  0.69458  1.0000
  H   H476      1.0  0.11315  0.04904  0.65530  1.0000
  H   H477      1.0  0.30930  0.04540  0.91807  1.0000
  C   C287      1.0  0.42301  0.03720  0.87975  1.0000
  H   H478      1.0  0.39080  0.99801  0.69560  1.0000
  H   H479      1.0  0.27601  0.02457  0.79201  1.0000
  H   H480      1.0  0.25390  0.02380  0.80348  1.0000
  C   C288      1.0  0.14525  0.19294  0.94023  1.0000
  C   C289      1.0  0.17724  0.17045  0.91919  1.0000
  H   H481      1.0  0.16530  0.17546  0.91344  1.0000
  S   S82       1.0  0.42486  0.05674  0.74684  1.0000
  H   H482      1.0  0.07768  0.20756  0.89245  1.0000
  H   H483      1.0  0.07606  0.00435  0.71536  1.0000
  H   H484      1.0  0.26976  0.04733  0.95676  1.0000
  C   C290      1.0  0.07089  0.02925  0.64602  1.0000
  H   H485      1.0  0.14039  0.20494  0.94567  1.0000
  H   H486      1.0  0.00105  0.14751  0.68432  1.0000
  H   H487      1.0  0.15316  0.15252  0.95840  1.0000
  C   C291      1.0  0.27146  0.01981  0.82010  1.0000
  C   C292      1.0  0.46276  0.08292  0.76656  1.0000
  S   S83       1.0  0.32074  0.99537  0.75389  1.0000
  H   H488      1.0  0.09783  0.06821  0.66168  1.0000
  C   C293      1.0  0.25013  0.00880  0.78082  1.0000
  H   H489      1.0  0.33488  0.07417  0.73191  1.0000
  H   H490      1.0  0.36990  0.00039  0.85755  1.0000
  H   H491      1.0  0.15614  0.12812  0.94564  1.0000
  H   H492      1.0  0.43390  0.06041  0.90666  1.0000
  C   C294      1.0  0.03260  0.20096  0.79715  1.0000
  H   H493      1.0  0.44352  0.11243  0.72464  1.0000
  C   C295      1.0  0.27748  0.15171  0.96688  1.0000
  C   C296      1.0  0.03566  0.20056  0.81338  1.0000
  Fe  Fe38      1.0  0.48259  0.07135  0.86875  1.0000
  Fe  Fe39      1.0  0.46428  0.00755  0.77955  1.0000
  H   H494      1.0  0.37453  0.08462  0.89484  1.0000
  C   C297      1.0  0.05231  0.20157  0.81473  1.0000
  C   C298      1.0  0.43804  0.10607  0.77632  1.0000
  C   C299      1.0  0.42623  0.05578  0.87652  1.0000
  C   C300      1.0  0.05020  0.14499  0.70195  1.0000
  H   H495      1.0  0.43588  0.02807  0.87614  1.0000
  H   H496      1.0  0.42363  0.04181  0.91679  1.0000
  H   H497      1.0  0.47243  0.06301  0.93350  1.0000
  H   H498      1.0  0.04180  0.21330  0.70722  1.0000
  C   C301      1.0  0.40369  0.99102  0.68882  1.0000
  C   C302      1.0  0.06592  0.20296  0.79973  1.0000
  H   H499      1.0  0.43030  0.06047  0.86216  1.0000
  C   C303      1.0  0.10706  0.03936  0.71353  1.0000
  H   H500      1.0  0.39882  0.07050  0.86281  1.0000
  Fe  Fe40      1.0  0.17818  0.00763  0.74321  1.0000
  H   H501      1.0  0.11391  0.15288  0.85941  1.0000
  H   H502      1.0  0.07350  0.20424  0.77198  1.0000
  C   C304      1.0  0.06289  0.20325  0.78351  1.0000
  H   H503      1.0  0.33713  0.05433  0.74892  1.0000
  H   H504      1.0  0.31448  0.07908  0.75720  1.0000
  H   H505      1.0  0.43208  0.11076  0.91221  1.0000
  C   C305      1.0  0.46932  0.07544  0.78377  1.0000
  C   C306      1.0  0.43317  0.08838  0.93399  1.0000
  H   H506      1.0  0.18301  0.01523  0.70159  1.0000
  Fe  Fe41      1.0  0.35864  0.01848  0.72582  1.0000
  H   H507      1.0  0.41856  0.09004  0.93745  1.0000
  S   S84       1.0  0.33014  0.03086  0.72506  1.0000
  H   H508      1.0  0.39749  0.07592  0.90896  1.0000
  H   H509      1.0  0.43858  0.08277  0.94593  1.0000
  H   H510      1.0  0.03055  0.16860  0.70499  1.0000
  H   H511      1.0  0.25542  0.12145  0.76170  1.0000
  H   H512      1.0  0.29021  0.09284  0.94593  1.0000
  H   H513      1.0  0.11369  0.02790  0.69097  1.0000
  C   C307      1.0  0.26101  0.06730  0.78727  1.0000
  H   H514      1.0  0.24424  0.05767  0.75887  1.0000
  C   C308      1.0  0.40593  0.06434  0.90370  1.0000
  H   H515      1.0  0.33308  0.09943  0.77062  1.0000
  H   H516      1.0  0.13649  0.03477  0.83853  1.0000
  H   H517      1.0  0.13210  0.00180  0.71763  1.0000
  H   H518      1.0  0.17655  0.05549  0.83626  1.0000
  Fe  Fe42      1.0  0.07572  0.21869  0.97302  1.0000
  C   C309      1.0  0.39508  0.06927  0.87716  1.0000
  H   H519      1.0  0.06076  0.19805  0.69857  1.0000
  H   H520      1.0  0.37632  0.07049  0.76615  1.0000
  H   H521      1.0  0.17384  0.15373  0.83919  1.0000
  H   H522      1.0  0.15626  0.03197  0.82155  1.0000
  S   S85       1.0  0.20619  0.99934  0.72868  1.0000
  H   H523      1.0  0.07448  0.06287  0.70875  1.0000
  C   C310      1.0  0.15907  0.15430  0.94417  1.0000
  C   C311      1.0  0.31538  0.08765  0.76513  1.0000
  H   H524      1.0  0.28043  0.08955  0.89854  1.0000
  S   S86       1.0  0.46631  0.03546  0.76810  1.0000
  H   H525      1.0  0.41390  0.03442  0.79024  1.0000
  H   H526      1.0  0.16066  0.04159  0.84378  1.0000
  H   H527      1.0  0.16025  0.05680  0.85593  1.0000
  C   C312      1.0  0.28156  0.12124  0.96645  1.0000
  H   H528      1.0  0.20232  0.17865  0.91417  1.0000
  C   C313      1.0  0.28451  0.01693  0.73022  1.0000
  H   H529      1.0  0.27607  0.11039  0.96706  1.0000
  C   C314      1.0  0.04234  0.15528  0.73572  1.0000
  H   H530      1.0  0.35254  0.05530  0.72900  1.0000
  C   C315      1.0  0.16254  0.05486  0.84249  1.0000
  C   C316      1.0  0.14188  0.03741  0.82419  1.0000
  C   C317      1.0  0.28140  0.04718  0.92149  1.0000
  H   H531      1.0  0.27049  0.11079  0.74534  1.0000
  S   S87       1.0  0.44488  0.00807  0.76441  1.0000
  H   H532      1.0  0.13649  0.02976  0.81836  1.0000
  H   H533      1.0  0.40410  0.99573  0.67459  1.0000
  C   C318      1.0  0.19772  0.16779  0.95167  1.0000
  H   H534      1.0  0.16993  0.15491  0.89166  1.0000
  H   H535      1.0  0.21581  0.07228  0.75191  1.0000
  C   C319      1.0  0.17501  0.00726  0.68240  1.0000
  S   S88       1.0  0.05539  0.20198  0.83512  1.0000
  H   H536      1.0  0.27152  0.05527  0.76532  1.0000
  C   C320      1.0  0.17283  0.01077  0.69885  1.0000
  H   H537      1.0  0.17169  0.16697  0.85449  1.0000
  H   H538      1.0  0.11582  0.12984  0.86924  1.0000
  H   H539      1.0  0.13994  0.16062  0.84505  1.0000
  C   C321      1.0  0.25372  0.02296  0.72860  1.0000
  H   H540      1.0  0.17428  0.04926  0.81166  1.0000
  C   C322      1.0  0.39144  0.00367  0.83478  1.0000
  C   C323      1.0  0.14977  0.06961  0.83260  1.0000
  C   C324      1.0  0.13672  0.05709  0.81587  1.0000
  H   H541      1.0  0.13632  0.07059  0.84134  1.0000
  H   H542      1.0  0.12341  0.06191  0.82370  1.0000
  H   H543      1.0  0.16230  0.04901  0.78685  1.0000
  H   H544      1.0  0.14854  0.15007  0.90350  1.0000
  C   C325      1.0  0.04573  0.15629  0.75299  1.0000
  H   H545      1.0  0.15388  0.08181  0.83182  1.0000
  H   H546      1.0  0.17408  0.13802  0.87177  1.0000
  C   C326      1.0  0.15700  0.15375  0.89033  1.0000
  H   H547      1.0  0.39758  0.02396  0.78934  1.0000
  N   N23       1.0  0.14922  0.06837  0.81464  1.0000
  C   C327      1.0  0.16766  0.06199  0.80460  1.0000
  H   H548      1.0  0.13408  0.05825  0.80287  1.0000
  C   C328      1.0  0.14680  0.16009  0.85529  1.0000
  C   C329      1.0  0.40418  0.02635  0.79833  1.0000
  H   H549      1.0  0.43122  0.99255  0.68262  1.0000
  H   H550      1.0  0.38268  0.01640  0.83019  1.0000
  H   H551      1.0  0.42073  0.01300  0.81687  1.0000
  H   H552      1.0  0.39057  0.05668  0.88264  1.0000
  H   H553      1.0  0.16583  0.12801  0.85033  1.0000
  N   N24       1.0  0.14707  0.14287  0.86856  1.0000
  C   C330      1.0  0.16022  0.13979  0.87963  1.0000
  C   C331      1.0  0.48043  0.07235  0.92567  1.0000
  C   C332      1.0  0.28953  0.00822  0.71651  1.0000
  H   H554      1.0  0.16384  0.07178  0.77740  1.0000
  C   C333      1.0  0.15233  0.12835  0.85879  1.0000
  H   H555      1.0  0.16021  0.12710  0.88937  1.0000
  H   H556      1.0  0.39436  0.03439  0.80707  1.0000
  H   H557      1.0  0.07567  0.16796  0.70204  1.0000
  H   H558      1.0  0.12127  0.11013  0.80535  1.0000
  C   C334      1.0  0.39864  0.05440  0.71239  1.0000
  H   H559      1.0  0.24940  0.06113  0.79262  1.0000
  Fe  Fe43      1.0  0.18925  0.00203  0.77753  1.0000
  C   C335      1.0  0.44695  0.00611  0.70207  1.0000
  C   C336      1.0  0.26666  0.02422  0.73626  1.0000
  Fe  Fe44      1.0  0.32807  0.00402  0.72480  1.0000
  H   H560      1.0  0.15440  0.10062  0.86138  1.0000
  C   C337      1.0  0.15244  0.10962  0.87009  1.0000
  S   S89       1.0  0.18084  0.00424  0.80561  1.0000
  C   C338      1.0  0.12521  0.09738  0.81434  1.0000
  H   H561      1.0  0.11396  0.09077  0.81836  1.0000
  H   H562      1.0  0.27168  0.05865  0.79384  1.0000
  H   H563      1.0  0.41409  0.07130  0.71429  1.0000
  H   H564      1.0  0.10117  0.14591  0.88077  1.0000
  C   C339      1.0  0.14230  0.08662  0.80469  1.0000
  C   C340      1.0  0.16899  0.05946  0.78622  1.0000
  C   C341      1.0  0.12892  0.14326  0.88037  1.0000
  H   H565      1.0  0.28034  0.07346  0.76344  1.0000
  H   H566      1.0  0.17626  0.07113  0.80326  1.0000
  C   C342      1.0  0.11427  0.14294  0.87178  1.0000
  C   C343      1.0  0.26770  0.06891  0.76735  1.0000
  H   H567      1.0  0.33954  0.06517  0.78947  1.0000
  C   C344      1.0  0.16181  0.00165  0.67866  1.0000
  S   S90       1.0  0.31189  0.99882  0.70925  1.0000
  C   C345      1.0  0.27193  0.10275  0.89911  1.0000
  H   H568      1.0  0.13944  0.08618  0.79228  1.0000
  H   H569      1.0  0.12731  0.10065  0.82582  1.0000
  H   H570      1.0  0.12432  0.15526  0.88586  1.0000
  H   H571      1.0  0.12918  0.13218  0.89202  1.0000
  H   H572      1.0  0.14775  0.16013  0.93756  1.0000
  H   H573      1.0  0.46547  0.06282  0.79088  1.0000
  H   H574      1.0  0.15249  0.09468  0.80070  1.0000
  H   H575      1.0  0.42902  0.08920  0.89573  1.0000
  S   S91       1.0  0.04284  0.20276  0.76164  1.0000
  H   H576      1.0  0.19773  0.14836  0.93824  1.0000
  H   H577      1.0  0.07882  0.20365  0.80063  1.0000
  S   S92       1.0  0.23166  0.03335  0.73566  1.0000
  N   N25       1.0  0.44306  0.09031  0.76825  1.0000
  H   H578      1.0  0.26290  0.03097  0.74681  1.0000
  Fe  Fe45      1.0  0.44872  0.03515  0.75127  1.0000
  S   S93       1.0  0.02316  0.04274  0.68934  1.0000
  H   H579      1.0  0.43816  0.05421  0.88144  1.0000
  H   H580      1.0  0.25795  0.08005  0.79108  1.0000
  H   H581      1.0  0.11318  0.05050  0.68607  1.0000
  C   C346      1.0  0.41486  0.08703  0.87728  1.0000
  H   H582      1.0  0.36722  0.08109  0.87761  1.0000
  H   H583      1.0  0.18316  0.05512  0.78008  1.0000
  H   H584      1.0  0.38040  0.09684  0.87250  1.0000
  C   C347      1.0  0.43118  0.08967  0.88163  1.0000
  H   H585      1.0  0.05990  0.15125  0.75351  1.0000
  C   C348      1.0  0.06085  0.07093  0.68784  1.0000
  H   H586      1.0  0.29439  0.01832  0.73601  1.0000
  H   H587      1.0  0.07529  0.04500  0.67094  1.0000
  C   C349      1.0  0.14632  0.99969  0.69140  1.0000
  C   C350      1.0  0.41027  0.13844  0.95183  1.0000
  C   C351      1.0  0.47380  0.02127  0.81298  1.0000
  H   H588      1.0  0.18974  0.17311  0.96328  1.0000
  S   S94       1.0  0.33984  0.07782  0.97480  1.0000
  H   H589      1.0  0.37035  0.98854  0.84216  1.0000
  C   C352      1.0  0.41920  0.99562  0.69298  1.0000
  Fe  Fe46      1.0  0.00151  0.10407  0.65617  1.0000
  C   C353      1.0  0.37895  0.99242  0.84823  1.0000
  H   H590      1.0  0.39645  0.99814  0.72368  1.0000
  H   H591      1.0  0.03508  0.06227  0.65447  1.0000
  S   S95       1.0  0.24713  0.14090  0.97172  1.0000
  C   C354      1.0  0.48474  0.02734  0.81958  1.0000
  C   C355      1.0  0.29574  0.14944  0.96487  1.0000
  C   C356      1.0  0.48596  0.99136  0.82648  1.0000
  H   H592      1.0  0.30114  0.16040  0.96439  1.0000
  H   H593      1.0  0.32507  0.01608  0.94342  1.0000
  S   S96       1.0  0.00246  0.18612  0.75774  1.0000
  S   S97       1.0  0.48805  0.99652  0.76079  1.0000
  H   H594      1.0  0.48422  0.04124  0.81695  1.0000
  H   H595      1.0  0.21013  0.15924  0.95536  1.0000
  H   H596      1.0  0.99568  0.17934  0.68355  1.0000
  Fe  Fe47      1.0  0.48858  0.02456  0.74786  1.0000
  Fe  Fe48      1.0  0.34636  0.10391  0.97084  1.0000
  H   H597      1.0  0.27008  0.98506  0.78276  1.0000
  Fe  Fe49      1.0  0.34988  0.98586  0.75182  1.0000
  C   C357      1.0  0.49260  0.08920  0.89748  1.0000
  H   H598      1.0  0.41400  0.99060  0.78619  1.0000
  H   H599      1.0  0.41493  0.13322  0.96424  1.0000
  H   H600      1.0  0.41186  0.98767  0.74846  1.0000
  N   N26       1.0  0.42311  0.98746  0.71097  1.0000
  S   S98       1.0  0.17981  0.98494  0.76635  1.0000
  S   S99       1.0  0.09518  0.23335  0.97388  1.0000
  H   H601      1.0  0.05019  0.44976  0.06798  1.0000
  H   H602      1.0  0.11182  0.40804  0.99731  1.0000
  C   C358      1.0  0.01671  0.27817  0.03166  1.0000
  H   H603      1.0  0.03118  0.30355  0.05063  1.0000
  C   C359      1.0  0.00769  0.28380  0.01608  1.0000
  H   H604      1.0  0.07666  0.44300  0.99129  1.0000
  C   C360      1.0  0.03990  0.41960  0.07464  1.0000
  H   H605      1.0  0.04359  0.45597  0.04200  1.0000
  Fe  Fe50      1.0  0.05843  0.37621  0.99575  1.0000
  H   H606      1.0  0.99979  0.23430  0.19029  1.0000
  H   H607      1.0  0.00737  0.32835  0.06789  1.0000
  H   H608      1.0  0.02275  0.32166  0.08110  1.0000
  C   C361      1.0  0.01944  0.38931  0.01721  1.0000
  H   H609      1.0  0.04815  0.41148  0.10001  1.0000
  H   H610      1.0  0.05139  0.32551  0.07202  1.0000
  H   H611      1.0  0.05927  0.46432  0.00881  1.0000
  Fe  Fe51      1.0  0.09301  0.35011  0.99926  1.0000
  H   H612      1.0  0.11525  0.28424  0.00599  1.0000
  C   C362      1.0  0.03275  0.33730  0.03616  1.0000
  H   H613      1.0  0.05720  0.34261  0.05408  1.0000
  C   C363      1.0  0.10168  0.28899  0.00452  1.0000
  C   C364      1.0  0.10925  0.44890  0.00266  1.0000
  H   H614      1.0  0.01205  0.43761  0.05875  1.0000
  C   C365      1.0  0.09553  0.44910  0.01760  1.0000
  H   H615      1.0  0.06883  0.32356  0.03386  1.0000
  C   C366      1.0  0.07470  0.28336  0.00170  1.0000
  C   C367      1.0  0.03790  0.44942  0.07842  1.0000
  H   H616      1.0  0.04344  0.39599  0.01736  1.0000
  C   C368      1.0  0.02408  0.35565  0.07731  1.0000
  H   H617      1.0  0.01930  0.26820  0.06559  1.0000
  H   H618      1.0  0.01023  0.35796  0.05777  1.0000
  N   N27       1.0  0.03264  0.33578  0.05504  1.0000
  C   C369      1.0  0.99479  0.39545  0.04132  1.0000
  S   S100      1.0  0.02925  0.37925  0.99945  1.0000
  C   C370      1.0  0.04493  0.25689  0.05125  1.0000
  H   H619      1.0  0.03152  0.40092  0.09895  1.0000
  C   C371      1.0  0.05135  0.33080  0.05789  1.0000
  C   C372      1.0  0.02982  0.39596  0.02379  1.0000
  H   H620      1.0  0.03130  0.40657  0.04437  1.0000
  S   S101      1.0  0.08382  0.40152  0.02796  1.0000
  C   C373      1.0  0.06664  0.30117  0.00085  1.0000
  C   C374      1.0  0.11519  0.43399  0.99545  1.0000
  H   H621      1.0  0.05138  0.24749  0.04260  1.0000
  C   C375      1.0  0.05513  0.46460  0.99683  1.0000
  S   S102      1.0  0.07123  0.36309  0.01850  1.0000
  H   H622      1.0  0.07763  0.43453  0.03718  1.0000
  H   H623      1.0  0.03717  0.29595  0.07167  1.0000
  H   H624      1.0  0.03114  0.36377  0.04932  1.0000
  H   H625      1.0  0.03933  0.34802  0.02758  1.0000
  H   H626      1.0  0.01584  0.42772  0.10389  1.0000
  H   H627      1.0  0.02351  0.24531  0.06744  1.0000
  S   S103      1.0  0.11875  0.46731  0.99263  1.0000
  H   H628      1.0  0.01282  0.45879  0.06015  1.0000
  C   C376      1.0  0.00901  0.24200  0.02567  1.0000
  H   H629      1.0  0.12582  0.43373  0.98394  1.0000
  N   N28       1.0  0.01445  0.26088  0.04402  1.0000
  H   H630      1.0  0.02818  0.45306  0.03174  1.0000
  H   H631      1.0  0.01480  0.29862  0.06959  1.0000
  H   H632      1.0  0.03481  0.43953  0.10733  1.0000
  H   H633      1.0  0.02564  0.23351  0.04398  1.0000
  H   H634      1.0  0.09088  0.46049  0.02327  1.0000
  H   H635      1.0  0.05304  0.30593  0.99947  1.0000
  H   H636      1.0  0.01549  0.34779  0.08778  1.0000
  Fe  Fe52      1.0  0.08516  0.38547  0.00908  1.0000
  S   S104      1.0  0.10597  0.32130  0.00426  1.0000
  H   H637      1.0  0.03753  0.35238  0.07992  1.0000
  C   C377      1.0  0.09380  0.41958  0.01815  1.0000
  C   C378      1.0  0.00556  0.40120  0.04836  1.0000
  C   C379      1.0  0.08803  0.43438  0.02548  1.0000
  C   C380      1.0  0.02427  0.35374  0.05897  1.0000
  H   H638      1.0  0.01840  0.36956  0.07816  1.0000
  H   H639      1.0  0.05743  0.43733  0.09486  1.0000
  H   H640      1.0  0.00779  0.32956  0.03864  1.0000
  C   C381      1.0  0.07615  0.31292  0.00157  1.0000
  H   H641      1.0  0.04458  0.45706  0.00104  1.0000
  H   H642      1.0  0.05124  0.25220  0.06268  1.0000
  C   C382      1.0  0.02680  0.30428  0.06453  1.0000
  H   H643      1.0  0.03025  0.46317  0.07604  1.0000
  C   C383      1.0  0.00171  0.38960  0.02565  1.0000
  C   C384      1.0  0.01445  0.34062  0.03188  1.0000
  C   C385      1.0  0.02181  0.32312  0.06742  1.0000
  H   H644      1.0  0.01689  0.23755  0.01357  1.0000
  C   C386      1.0  0.09226  0.27728  0.00349  1.0000
  H   H645      1.0  0.06988  0.32666  0.00075  1.0000
  H   H646      1.0  0.06052  0.30538  0.04947  1.0000
  H   H647      1.0  0.09853  0.26354  0.00424  1.0000
  C   C387      1.0  0.02479  0.25786  0.05782  1.0000
  Fe  Fe53      1.0  0.07527  0.24149  0.99724  1.0000
  C   C388      1.0  0.02287  0.40205  0.03922  1.0000
  H   H648      1.0  0.03391  0.24801  0.02457  1.0000
  H   H649      1.0  0.01390  0.27493  0.00684  1.0000
  C   C389      1.0  0.09370  0.30685  0.00344  1.0000
  C   C390      1.0  0.04345  0.40619  0.09151  1.0000
  H   H650      1.0  0.04793  0.26994  0.04451  1.0000
  H   H651      1.0  0.05305  0.42121  0.06602  1.0000
  C   C391      1.0  0.06504  0.31746  0.04794  1.0000
  N   N29       1.0  0.02786  0.43722  0.07652  1.0000
  H   H652      1.0  0.03425  0.41280  0.06816  1.0000
  S   S105      1.0  0.10852  0.37124  0.99194  1.0000
  H   H653      1.0  0.07739  0.31349  0.05295  1.0000
  H   H654      1.0  0.04067  0.32539  0.03136  1.0000
  H   H655      1.0  0.04380  0.45821  0.09854  1.0000
  C   C392      1.0  0.10726  0.41946  0.00300  1.0000
  C   C393      1.0  0.02097  0.44529  0.05997  1.0000
  H   H656      1.0  0.01192  0.28897  0.03889  1.0000
  H   H657      1.0  0.00982  0.29703  0.00864  1.0000
  S   S106      1.0  0.06224  0.26912  0.00084  1.0000
  H   H658      1.0  0.00518  0.46094  0.09799  1.0000
  H   H659      1.0  0.03089  0.27805  0.02566  1.0000
  C   C394      1.0  0.03509  0.44706  0.04271  1.0000
  H   H660      1.0  0.04339  0.43420  0.04032  1.0000
  S   S107      1.0  0.07080  0.39946  0.98759  1.0000
  H   H661      1.0  0.05397  0.39483  0.08790  1.0000
  S   S108      1.0  0.99819  0.40589  0.06917  1.0000
  H   H662      1.0  0.08167  0.46405  0.98205  1.0000
  C   C395      1.0  0.04380  0.44560  0.09576  1.0000
  C   C396      1.0  0.02163  0.24594  0.03461  1.0000
  H   H663      1.0  0.00559  0.35299  0.03490  1.0000
  H   H664      1.0  0.01633  0.34195  0.01760  1.0000
  H   H665      1.0  0.00449  0.42656  0.08898  1.0000
  H   H666      1.0  0.04963  0.47855  0.99146  1.0000
  H   H667      1.0  0.99938  0.23475  0.16793  1.0000
  H   H668      1.0  0.99670  0.28682  0.10735  1.0000
  C   C397      1.0  0.01200  0.43493  0.09138  1.0000
  S   S109      1.0  0.07890  0.36132  0.97730  1.0000
  H   H669      1.0  0.05320  0.43650  0.98302  1.0000
  C   C398      1.0  0.07147  0.45646  0.98408  1.0000
  C   C399      1.0  0.99879  0.45199  0.09506  1.0000
  C   C400      1.0  0.99521  0.26230  0.05321  1.0000
  H   H670      1.0  0.99842  0.25319  0.02170  1.0000
  H   H671      1.0  0.99744  0.23359  0.06330  1.0000
  H   H672      1.0  0.99454  0.24570  0.07971  1.0000
  H   H673      1.0  0.11919  0.24300  0.89831  1.0000
  C   C401      1.0  0.09486  0.32077  0.91258  1.0000
  Fe  Fe54      1.0  0.02837  0.47461  0.74455  1.0000
  H   H674      1.0  0.03715  0.41288  0.88584  1.0000
  H   H675      1.0  0.04682  0.44427  0.84426  1.0000
  S   S110      1.0  0.03879  0.46094  0.72224  1.0000
  H   H676      1.0  0.08367  0.44255  0.94575  1.0000
  C   C402      1.0  0.11075  0.43281  0.89165  1.0000
  H   H677      1.0  0.15522  0.42992  0.87529  1.0000
  H   H678      1.0  0.09708  0.35441  0.94073  1.0000
  H   H679      1.0  0.00501  0.43189  0.86325  1.0000
  H   H680      1.0  0.04576  0.24402  0.78027  1.0000
  H   H681      1.0  0.15675  0.45013  0.89171  1.0000
  C   C403      1.0  0.08599  0.32334  0.95048  1.0000
  C   C404      1.0  0.14173  0.42817  0.87658  1.0000
  H   H682      1.0  0.04412  0.25842  0.89580  1.0000
  H   H683      1.0  0.04759  0.47634  0.93852  1.0000
  H   H684      1.0  0.11933  0.46176  0.88428  1.0000
  H   H685      1.0  0.99884  0.40387  0.70096  1.0000
  Fe  Fe55      1.0  0.08218  0.37259  0.83735  1.0000
  S   S111      1.0  0.11112  0.36037  0.83110  1.0000
  S   S112      1.0  0.06820  0.38474  0.81526  1.0000
  Fe  Fe56      1.0  0.08137  0.36869  0.87532  1.0000
  S   S113      1.0  0.11025  0.35601  0.87253  1.0000
  S   S114      1.0  0.06314  0.37455  0.90021  1.0000
  Fe  Fe57      1.0  0.11359  0.37677  0.84787  1.0000
  S   S115      1.0  0.13568  0.39110  0.83904  1.0000
  Fe  Fe58      1.0  0.10496  0.34082  0.85621  1.0000
  S   S116      1.0  0.11725  0.31198  0.85957  1.0000
  S   S117      1.0  0.08520  0.39064  0.85199  1.0000
  S   S118      1.0  0.07564  0.35168  0.86122  1.0000
  H   H686      1.0  0.11754  0.26071  0.83940  1.0000
  H   H687      1.0  0.12382  0.42622  0.92082  1.0000
  H   H688      1.0  0.08691  0.32119  0.96430  1.0000
  H   H689      1.0  0.08132  0.27619  0.92304  1.0000
  C   C405      1.0  0.01697  0.43690  0.86183  1.0000
  C   C406      1.0  0.03541  0.40842  0.87493  1.0000
  S   S119      1.0  0.10442  0.39511  0.94352  1.0000
  H   H690      1.0  0.15518  0.40636  0.92132  1.0000
  H   H691      1.0  0.06464  0.33430  0.80882  1.0000
  N   N30       1.0  0.12896  0.43362  0.89257  1.0000
  N   N31       1.0  0.03374  0.42304  0.85894  1.0000
  H   H692      1.0  0.04763  0.39822  0.87194  1.0000
  S   S120      1.0  0.08493  0.26926  0.82728  1.0000
  C   C407      1.0  0.01587  0.28020  0.74291  1.0000
  H   H693      1.0  0.01599  0.28628  0.78712  1.0000
  C   C408      1.0  0.11562  0.31558  0.78361  1.0000
  H   H694      1.0  0.01528  0.23827  0.79822  1.0000
  S   S121      1.0  0.02714  0.30467  0.75144  1.0000
  H   H695      1.0  0.13338  0.29230  0.95707  1.0000
  Fe  Fe59      1.0  0.09270  0.38344  0.97126  1.0000
  C   C409      1.0  0.05025  0.27196  0.78997  1.0000
  H   H696      1.0  0.11009  0.41929  0.89204  1.0000
  H   H697      1.0  0.01835  0.43703  0.88868  1.0000
  H   H698      1.0  0.07752  0.40006  0.77590  1.0000
  C   C410      1.0  0.10906  0.30079  0.84914  1.0000
  C   C411      1.0  0.11794  0.28371  0.84738  1.0000
  C   C412      1.0  0.11066  0.27392  0.84062  1.0000
  C   C413      1.0  0.09454  0.28125  0.83549  1.0000
  C   C414      1.0  0.08584  0.29848  0.83694  1.0000
  C   C415      1.0  0.09318  0.30830  0.84355  1.0000
  H   H699      1.0  0.13031  0.27790  0.85157  1.0000
  H   H700      1.0  0.07320  0.30414  0.83333  1.0000
  H   H701      1.0  0.08625  0.32147  0.84485  1.0000
  C   C416      1.0  0.07380  0.38259  0.91125  1.0000
  C   C417      1.0  0.09116  0.38479  0.90401  1.0000
  C   C418      1.0  0.10045  0.38906  0.91379  1.0000
  C   C419      1.0  0.09221  0.39170  0.93062  1.0000
  C   C420      1.0  0.07456  0.39039  0.93753  1.0000
  C   C421      1.0  0.06538  0.38573  0.92788  1.0000
  H   H702      1.0  0.09760  0.38281  0.89103  1.0000
  H   H703      1.0  0.11422  0.38958  0.90856  1.0000
  H   H704      1.0  0.06804  0.39261  0.95046  1.0000
  H   H705      1.0  0.05191  0.38411  0.93351  1.0000
  H   H706      1.0  0.04482  0.23664  0.80930  1.0000
  H   H707      1.0  0.00658  0.43954  0.69977  1.0000
  H   H708      1.0  0.06302  0.26863  0.93836  1.0000
  C   C422      1.0  0.14417  0.40895  0.87551  1.0000
  H   H709      1.0  0.06966  0.35027  0.95004  1.0000
  H   H710      1.0  0.02922  0.27703  0.73529  1.0000
  Fe  Fe60      1.0  0.00847  0.35151  0.78624  1.0000
  H   H711      1.0  0.12233  0.43262  0.76470  1.0000
  H   H712      1.0  0.07698  0.37542  0.76440  1.0000
  H   H713      1.0  0.12674  0.31353  0.96192  1.0000
  H   H714      1.0  0.00396  0.46820  0.70387  1.0000
  C   C423      1.0  0.12505  0.45060  0.83195  1.0000
  C   C424      1.0  0.11191  0.44169  0.84269  1.0000
  C   C425      1.0  0.11477  0.42335  0.84489  1.0000
  C   C426      1.0  0.13078  0.41404  0.83634  1.0000
  C   C427      1.0  0.14376  0.42304  0.82569  1.0000
  C   C428      1.0  0.14085  0.44122  0.82338  1.0000
  H   H715      1.0  0.09958  0.44894  0.84917  1.0000
  H   H716      1.0  0.10477  0.41643  0.85333  1.0000
  H   H717      1.0  0.15619  0.41592  0.81918  1.0000
  H   H718      1.0  0.15104  0.44803  0.81509  1.0000
  H   H719      1.0  0.11369  0.30028  0.93683  1.0000
  H   H720      1.0  0.05168  0.48186  0.96349  1.0000
  S   S122      1.0  0.08545  0.47665  0.87239  1.0000
  H   H721      1.0  0.08279  0.25314  0.93329  1.0000
  S   S123      1.0  0.12262  0.47333  0.82884  1.0000
  H   H722      1.0  0.04908  0.27244  0.87414  1.0000
  C   C429      1.0  0.09526  0.43896  0.90628  1.0000
  H   H723      1.0  0.06299  0.42592  0.95597  1.0000
  H   H724      1.0  0.15412  0.40655  0.86341  1.0000
  H   H725      1.0  0.07918  0.26597  0.78330  1.0000
  C   C430      1.0  0.05109  0.37518  0.81568  1.0000
  C   C431      1.0  0.04481  0.36293  0.83033  1.0000
  C   C432      1.0  0.03165  0.35487  0.83004  1.0000
  C   C433      1.0  0.02489  0.35896  0.81503  1.0000
  C   C434      1.0  0.03097  0.37144  0.80051  1.0000
  C   C435      1.0  0.04392  0.37966  0.80090  1.0000
  H   H726      1.0  0.05003  0.35963  0.84188  1.0000
  H   H727      1.0  0.02695  0.34523  0.84130  1.0000
  H   H728      1.0  0.09231  0.32734  0.89936  1.0000
  H   H729      1.0  0.04859  0.38926  0.78958  1.0000
  H   H730      1.0  0.15027  0.46015  0.87097  1.0000
  H   H731      1.0  0.10539  0.30880  0.91107  1.0000
  H   H732      1.0  0.09589  0.42980  0.91910  1.0000
  N   N32       1.0  0.09925  0.42325  0.78151  1.0000
  H   H733      1.0  0.10002  0.39819  0.80006  1.0000
  C   C436      1.0  0.12845  0.45240  0.89244  1.0000
  H   H734      1.0  0.02235  0.38926  0.89472  1.0000
  H   H735      1.0  0.14376  0.47198  0.88790  1.0000
  C   C437      1.0  0.06135  0.47677  0.93809  1.0000
  C   C438      1.0  0.04558  0.40183  0.73060  1.0000
  C   C439      1.0  0.05309  0.41174  0.71470  1.0000
  C   C440      1.0  0.10014  0.44814  0.75370  1.0000
  H   H736      1.0  0.10017  0.41450  0.81863  1.0000
  C   C441      1.0  0.08047  0.42407  0.78100  1.0000
  H   H737      1.0  0.10873  0.39647  0.77815  1.0000
  H   H738      1.0  0.13759  0.43682  0.86451  1.0000
  H   H739      1.0  0.07791  0.42541  0.81595  1.0000
  H   H740      1.0  0.06623  0.30230  0.80756  1.0000
  H   H741      1.0  0.01164  0.43752  0.71994  1.0000
  H   H742      1.0  0.02032  0.47969  0.81636  1.0000
  C   C442      1.0  0.14599  0.45872  0.88537  1.0000
  C   C443      1.0  0.07822  0.41374  0.76881  1.0000
  H   H743      1.0  0.09070  0.44763  0.79038  1.0000
  C   C444      1.0  0.08345  0.32435  0.76806  1.0000
  C   C445      1.0  0.12710  0.40117  0.78999  1.0000
  H   H744      1.0  0.07290  0.41883  0.79415  1.0000
  C   C446      1.0  0.03528  0.42799  0.74264  1.0000
  C   C447      1.0  0.05216  0.43778  0.95697  1.0000
  H   H745      1.0  0.12787  0.40789  0.79975  1.0000
  H   H746      1.0  0.13634  0.40512  0.77746  1.0000
  H   H747      1.0  0.09742  0.29959  0.76001  1.0000
  C   C448      1.0  0.10804  0.40436  0.78756  1.0000
  H   H748      1.0  0.06019  0.36326  0.77053  1.0000
  H   H749      1.0  0.04805  0.44084  0.87639  1.0000
  H   H750      1.0  0.05256  0.26879  0.91510  1.0000
  N   N33       1.0  0.07640  0.26704  0.89450  1.0000
  C   C449      1.0  0.07274  0.25635  0.88398  1.0000
  C   C450      1.0  0.09623  0.26334  0.89228  1.0000
  C   C451      1.0  0.06964  0.28610  0.88669  1.0000
  C   C452      1.0  0.06682  0.26210  0.91330  1.0000
  C   C453      1.0  0.05327  0.25956  0.88277  1.0000
  C   C454      1.0  0.07405  0.29984  0.89348  1.0000
  S   S124      1.0  0.01780  0.46210  0.77225  1.0000
  H   H751      1.0  0.08080  0.25858  0.87032  1.0000
  C   C455      1.0  0.06890  0.33748  0.94839  1.0000
  H   H752      1.0  0.13652  0.33579  0.93650  1.0000
  C   C456      1.0  0.03100  0.47894  0.82231  1.0000
  H   H753      1.0  0.07475  0.28883  0.87232  1.0000
  H   H754      1.0  0.05495  0.28928  0.88874  1.0000
  H   H755      1.0  0.05234  0.44649  0.94388  1.0000
  H   H756      1.0  0.11704  0.30985  0.77237  1.0000
  C   C457      1.0  0.01775  0.24736  0.78530  1.0000
  H   H757      1.0  0.02011  0.23973  0.77520  1.0000
  C   C458      1.0  0.00335  0.27099  0.74341  1.0000
  H   H758      1.0  0.06915  0.31308  0.88573  1.0000
  H   H759      1.0  0.08848  0.29849  0.89161  1.0000
  H   H760      1.0  0.06707  0.29983  0.90724  1.0000
  C   C459      1.0  0.05127  0.42976  0.71256  1.0000
  H   H761      1.0  0.06411  0.42043  0.87440  1.0000
  H   H762      1.0  0.09466  0.32845  0.75749  1.0000
  H   H763      1.0  0.12302  0.45496  0.90583  1.0000
  C   C460      1.0  0.03675  0.40989  0.74469  1.0000
  H   H764      1.0  0.07144  0.33126  0.76272  1.0000
  C   C461      1.0  0.15174  0.41925  0.91233  1.0000
  H   H765      1.0  0.08283  0.35436  0.79076  1.0000
  H   H766      1.0  0.05429  0.34132  0.79100  1.0000
  C   C462      1.0  0.10960  0.43051  0.76370  1.0000
  C   C463      1.0  0.07466  0.36217  0.76607  1.0000
  C   C464      1.0  0.03625  0.24893  0.81296  1.0000
  N   N34       1.0  0.08251  0.33030  0.78427  1.0000
  C   C465      1.0  0.12527  0.34676  0.93351  1.0000
  H   H767      1.0  0.06579  0.42024  0.76410  1.0000
  C   C466      1.0  0.10722  0.34208  0.94314  1.0000
  H   H768      1.0  0.06548  0.33938  0.93566  1.0000
  H   H769      1.0  0.06843  0.44072  0.86068  1.0000
  H   H770      1.0  0.12404  0.30587  0.79223  1.0000
  C   C467      1.0  0.04231  0.43799  0.72643  1.0000
  H   H771      1.0  0.03957  0.43315  0.96114  1.0000
  C   C468      1.0  0.01985  0.39901  0.88257  1.0000
  H   H772      1.0  0.13067  0.40830  0.91104  1.0000
  C   C469      1.0  0.12227  0.30398  0.95771  1.0000
  H   H773      1.0  0.03493  0.26474  0.76961  1.0000
  H   H774      1.0  0.11232  0.43623  0.79264  1.0000
  H   H775      1.0  0.03398  0.41939  0.81691  1.0000
  Fe  Fe61      1.0  0.03384  0.47687  0.77876  1.0000
  H   H776      1.0  0.09950  0.34907  0.77247  1.0000
  H   H777      1.0  0.15213  0.42977  0.91834  1.0000
  H   H778      1.0  0.09631  0.32501  0.80505  1.0000
  C   C470      1.0  0.11742  0.31121  0.93965  1.0000
  H   H779      1.0  0.13191  0.40604  0.87451  1.0000
  N   N35       1.0  0.10286  0.32752  0.93817  1.0000
  C   C471      1.0  0.10082  0.33351  0.91950  1.0000
  H   H780      1.0  0.08260  0.43903  0.90331  1.0000
  C   C472      1.0  0.06456  0.33084  0.79657  1.0000
  H   H781      1.0  0.10026  0.27066  0.89952  1.0000
  C   C473      1.0  0.09162  0.42703  0.81335  1.0000
  H   H782      1.0  0.05667  0.43741  0.70001  1.0000
  H   H783      1.0  0.09341  0.30603  0.80108  1.0000
  S   S125      1.0  0.00964  0.34775  0.81410  1.0000
  S   S126      1.0  0.00189  0.37778  0.76831  1.0000
  C   C474      1.0  0.99710  0.41104  0.72569  1.0000
  H   H784      1.0  0.09140  0.34645  0.91747  1.0000
  H   H785      1.0  0.11355  0.33574  0.91046  1.0000
  H   H786      1.0  0.04481  0.31602  0.81222  1.0000
  H   H787      1.0  0.07673  0.24209  0.88949  1.0000
  C   C475      1.0  0.09637  0.31904  0.79429  1.0000
  C   C476      1.0  0.08555  0.30445  0.76967  1.0000
  H   H788      1.0  0.07399  0.30216  0.76640  1.0000
  H   H789      1.0  0.08692  0.29598  0.78259  1.0000
  C   C477      1.0  0.03325  0.41491  0.84459  1.0000
  H   H790      1.0  0.01438  0.27987  0.82639  1.0000
  H   H791      1.0  0.13192  0.38691  0.79499  1.0000
  H   H792      1.0  0.09539  0.45836  0.76151  1.0000
  H   H793      1.0  0.06946  0.25846  0.77031  1.0000
  H   H794      1.0  0.11365  0.42098  0.75509  1.0000
  H   H795      1.0  0.08891  0.41338  0.75691  1.0000
  S   S127      1.0  0.05366  0.46447  0.79549  1.0000
  H   H796      1.0  0.10615  0.23640  0.88799  1.0000
  H   H797      1.0  0.09138  0.43654  0.82088  1.0000
  H   H798      1.0  0.01662  0.44779  0.85002  1.0000
  H   H799      1.0  0.12118  0.32750  0.77909  1.0000
  H   H800      1.0  0.07895  0.35915  0.75289  1.0000
  H   H801      1.0  0.07584  0.46594  0.81633  1.0000
  C   C478      1.0  0.01388  0.44591  0.87703  1.0000
  H   H802      1.0  0.08886  0.44659  0.74941  1.0000
  H   H803      1.0  0.16232  0.41876  0.90037  1.0000
  H   H804      1.0  0.14929  0.39948  0.88663  1.0000
  C   C479      1.0  0.13313  0.42153  0.90932  1.0000
  C   C480      1.0  0.04449  0.25217  0.82644  1.0000
  N   N36       1.0  0.03469  0.26318  0.79665  1.0000
  C   C481      1.0  0.05714  0.31413  0.80195  1.0000
  H   H805      1.0  0.12972  0.31329  0.92967  1.0000
  H   H806      1.0  0.12650  0.35111  0.91919  1.0000
  H   H807      1.0  0.10761  0.44078  0.87895  1.0000
  H   H808      1.0  0.05213  0.27778  0.79986  1.0000
  H   H809      1.0  0.05887  0.24617  0.82424  1.0000
  H   H810      1.0  0.06001  0.40553  0.70383  1.0000
  H   H811      1.0  0.07289  0.43781  0.77776  1.0000
  C   C482      1.0  0.08549  0.34881  0.77900  1.0000
  Fe  Fe62      1.0  0.01612  0.33109  0.75811  1.0000
  H   H812      1.0  0.05333  0.31185  0.79089  1.0000
  C   C483      1.0  0.09888  0.43421  0.79382  1.0000
  H   H813      1.0  0.09452  0.45246  0.90730  1.0000
  H   H814      1.0  0.99491  0.42034  0.75741  1.0000
  S   S128      1.0  0.03327  0.34162  0.76797  1.0000
  C   C484      1.0  0.04978  0.43114  0.85297  1.0000
  H   H815      1.0  0.04454  0.40337  0.84322  1.0000
  H   H816      1.0  0.12650  0.35792  0.93809  1.0000
  C   C485      1.0  0.04853  0.47224  0.81452  1.0000
  C   C486      1.0  0.08523  0.44504  0.95781  1.0000
  H   H817      1.0  0.02831  0.43425  0.75341  1.0000
  C   C487      1.0  0.01779  0.27688  0.79965  1.0000
  S   S129      1.0  0.04762  0.37944  0.73217  1.0000
  C   C488      1.0  0.10173  0.45305  0.95218  1.0000
  C   C489      1.0  0.00758  0.40387  0.70929  1.0000
  C   C490      1.0  0.01595  0.28790  0.81286  1.0000
  H   H818      1.0  0.00710  0.40821  0.88624  1.0000
  H   H819      1.0  0.03113  0.40220  0.75710  1.0000
  C   C491      1.0  0.00043  0.44138  0.71331  1.0000
  H   H820      1.0  0.04787  0.28326  0.77880  1.0000
  Fe  Fe63      1.0  0.02554  0.36675  0.74930  1.0000
  H   H821      1.0  0.02589  0.37465  0.78887  1.0000
  H   H822      1.0  0.10253  0.26799  0.87842  1.0000
  H   H823      1.0  0.11107  0.29953  0.96785  1.0000
  H   H824      1.0  0.07093  0.46723  0.93081  1.0000
  Fe  Fe64      1.0  0.09531  0.23983  0.83256  1.0000
  C   C492      1.0  0.07422  0.26540  0.92738  1.0000
  H   H825      1.0  0.06087  0.42325  0.84490  1.0000
  C   C493      1.0  0.05777  0.43333  0.86714  1.0000
  H   H826      1.0  0.05766  0.33326  0.95873  1.0000
  H   H827      1.0  0.02691  0.29476  0.80965  1.0000
  H   H828      1.0  0.11321  0.44370  0.94622  1.0000
  C   C494      1.0  0.01112  0.29358  0.75207  1.0000
  C   C495      1.0  0.03409  0.25504  0.78235  1.0000
  H   H829      1.0  0.01799  0.41115  0.70142  1.0000
  H   H830      1.0  0.10959  0.45305  0.74168  1.0000
  H   H831      1.0  0.02104  0.40978  0.84775  1.0000
  H   H832      1.0  0.04236  0.26599  0.82709  1.0000
  C   C496      1.0  0.06227  0.47100  0.82237  1.0000
  H   H833      1.0  0.10543  0.45542  0.96325  1.0000
  S   S130      1.0  0.01029  0.35548  0.73768  1.0000
  H   H834      1.0  0.03875  0.24506  0.83967  1.0000
  H   H835      1.0  0.08242  0.31707  0.92079  1.0000
  H   H836      1.0  0.02211  0.43811  0.82580  1.0000
  H   H837      1.0  0.08383  0.31075  0.94949  1.0000
  H   H838      1.0  0.10682  0.33899  0.95738  1.0000
  C   C497      1.0  0.03388  0.42710  0.82623  1.0000
  H   H839      1.0  0.02029  0.45733  0.87272  1.0000
  H   H840      1.0  0.05198  0.24943  0.87675  1.0000
  H   H841      1.0  0.99713  0.44265  0.74709  1.0000
  H   H842      1.0  0.99943  0.45072  0.88164  1.0000
  H   H843      1.0  0.00606  0.27080  0.80445  1.0000
  H   H844      1.0  0.00573  0.25785  0.78365  1.0000
  H   H845      1.0  0.04607  0.43232  0.82122  1.0000
  H   H846      1.0  0.08860  0.43176  0.96632  1.0000
  C   C498      1.0  0.10535  0.24391  0.89774  1.0000
  H   H847      1.0  0.02313  0.24574  0.81986  1.0000
  C   C499      1.0  0.06820  0.25999  0.78372  1.0000
  H   H848      1.0  0.06699  0.24784  0.91688  1.0000
  H   H849      1.0  0.01454  0.39006  0.71344  1.0000
  H   H850      1.0  0.00703  0.26095  0.73598  1.0000
  H   H851      1.0  0.01877  0.39150  0.87364  1.0000
  H   H852      1.0  0.06926  0.47501  0.84416  1.0000
  N   N37       1.0  0.06845  0.45578  0.96687  1.0000
  C   C500      1.0  0.06416  0.47437  0.95656  1.0000
  H   H853      1.0  0.09994  0.46535  0.94210  1.0000
  H   H854      1.0  0.00364  0.29832  0.81252  1.0000
  C   C501      1.0  0.05312  0.44694  0.97080  1.0000
  C   C502      1.0  0.05856  0.47642  0.83801  1.0000
  H   H855      1.0  0.07414  0.48188  0.95570  1.0000
  H   H856      1.0  0.09858  0.23757  0.91078  1.0000
  H   H857      1.0  0.00693  0.40910  0.73362  1.0000
  H   H858      1.0  0.99889  0.33237  0.71674  1.0000
  H   H859      1.0  0.07001  0.24685  0.79253  1.0000
  H   H860      1.0  0.04025  0.45646  0.97342  1.0000
  Fe  Fe65      1.0  0.21536  0.73054  0.98435  1.0000
  H   H861      1.0  0.47938  0.73151  0.98905  1.0000
  C   C503      1.0  0.18277  0.57278  0.05272  1.0000
  H   H862      1.0  0.04493  0.49197  0.08450  1.0000
  H   H863      1.0  0.19456  0.59001  0.02004  1.0000
  N   N38       1.0  0.44177  0.72814  0.97761  1.0000
  S   S131      1.0  0.03647  0.70365  0.24879  1.0000
  C   C504      1.0  0.01103  0.50000  0.05596  1.0000
  H   H864      1.0  0.04379  0.64702  0.08318  1.0000
  H   H865      1.0  0.10724  0.71109  0.97654  1.0000
  H   H866      1.0  0.01530  0.53251  0.08808  1.0000
  C   C505      1.0  0.10138  0.56953  0.03016  1.0000
  H   H867      1.0  0.14073  0.62656  0.04125  1.0000
  H   H868      1.0  0.17892  0.56796  0.04328  1.0000
  H   H869      1.0  0.05140  0.57844  0.01001  1.0000
  Fe  Fe66      1.0  0.11163  0.65275  0.97877  1.0000
  H   H870      1.0  0.02122  0.68585  0.18990  1.0000
  H   H871      1.0  0.15409  0.58068  0.03587  1.0000
  C   C506      1.0  0.47182  0.73211  0.97935  1.0000
  C   C507      1.0  0.14899  0.61764  0.05050  1.0000
  C   C508      1.0  0.03813  0.71778  0.29871  1.0000
  H   H872      1.0  0.01238  0.57073  0.08041  1.0000
  H   H873      1.0  0.06313  0.63619  0.07021  1.0000
  H   H874      1.0  0.12589  0.53644  0.00997  1.0000
  H   H875      1.0  0.06494  0.53217  0.09527  1.0000
  H   H876      1.0  0.32839  0.71566  0.00462  1.0000
  C   C509      1.0  0.11243  0.58151  0.02296  1.0000
  H   H877      1.0  0.09849  0.67011  0.07330  1.0000
  C   C510      1.0  0.00833  0.54535  0.08151  1.0000
  H   H878      1.0  0.09482  0.66862  0.09665  1.0000
  H   H879      1.0  0.16726  0.59136  0.06844  1.0000
  H   H880      1.0  0.03336  0.66763  0.09928  1.0000
  H   H881      1.0  0.18012  0.56362  0.06563  1.0000
  H   H882      1.0  0.10228  0.57584  0.99087  1.0000
  H   H883      1.0  0.22440  0.73062  0.10384  1.0000
  H   H884      1.0  0.03078  0.56114  0.10084  1.0000
  H   H885      1.0  0.44462  0.72536  0.09432  1.0000
  C   C511      1.0  0.30519  0.70924  0.00180  1.0000
  H   H886      1.0  0.11069  0.69979  0.99777  1.0000
  H   H887      1.0  0.06249  0.53518  0.06743  1.0000
  H   H888      1.0  0.05526  0.49325  0.05270  1.0000
  C   C512      1.0  0.03863  0.54983  0.09484  1.0000
  H   H889      1.0  0.06131  0.63212  0.09320  1.0000
  Fe  Fe67      1.0  0.21147  0.73263  0.02174  1.0000
  H   H890      1.0  0.28257  0.72647  0.07716  1.0000
  C   C513      1.0  0.05830  0.64247  0.08163  1.0000
  H   H891      1.0  0.18650  0.60185  0.00095  1.0000
  Fe  Fe68      1.0  0.21123  0.69844  0.01370  1.0000
  H   H892      1.0  0.05549  0.54237  0.11348  1.0000
  S   S132      1.0  0.20284  0.67288  0.01853  1.0000
  Fe  Fe69      1.0  0.24546  0.71178  0.00335  1.0000
  H   H893      1.0  0.17683  0.58423  0.01451  1.0000
  H   H894      1.0  0.20600  0.72958  0.08485  1.0000
  H   H895      1.0  0.31213  0.70340  0.99070  1.0000
  C   C514      1.0  0.04196  0.58540  0.07254  1.0000
  C   C515      1.0  0.07159  0.68326  0.08520  1.0000
  S   S133      1.0  0.22687  0.70487  0.02919  1.0000
  H   H896      1.0  0.04967  0.58215  0.98227  1.0000
  Fe  Fe70      1.0  0.08742  0.63805  0.01253  1.0000
  H   H897      1.0  0.04970  0.59509  0.06366  1.0000
  S   S134      1.0  0.06178  0.62936  0.02497  1.0000
  H   H898      1.0  0.43521  0.69633  0.99789  1.0000
  Fe  Fe71      1.0  0.08151  0.52735  0.98111  1.0000
  Fe  Fe72      1.0  0.08941  0.52372  0.01610  1.0000
  Fe  Fe73      1.0  0.11688  0.65417  0.01336  1.0000
  S   S135      1.0  0.12278  0.67114  0.02761  1.0000
  S   S136      1.0  0.10332  0.62708  0.98934  1.0000
  S   S137      1.0  0.09347  0.66478  0.00072  1.0000
  C   C516      1.0  0.18057  0.67367  0.01950  1.0000
  C   C517      1.0  0.17642  0.66032  0.01464  1.0000
  C   C518      1.0  0.15870  0.65981  0.01655  1.0000
  C   C519      1.0  0.14503  0.67242  0.02370  1.0000
  C   C520      1.0  0.14915  0.68594  0.02829  1.0000
  C   C521      1.0  0.16689  0.68669  0.02601  1.0000
  H   H899      1.0  0.18699  0.65025  0.00958  1.0000
  H   H900      1.0  0.15563  0.64936  0.01300  1.0000
  H   H901      1.0  0.13861  0.69577  0.03379  1.0000
  H   H902      1.0  0.17000  0.69698  0.02986  1.0000
  C   C522      1.0  0.02188  0.66399  0.06005  1.0000
  C   C523      1.0  0.02041  0.64685  0.06169  1.0000
  C   C524      1.0  0.03249  0.63646  0.05056  1.0000
  C   C525      1.0  0.04643  0.64294  0.03819  1.0000
  C   C526      1.0  0.04803  0.66003  0.03665  1.0000
  C   C527      1.0  0.03558  0.67065  0.04739  1.0000
  C   C528      1.0  0.13828  0.58172  0.06158  1.0000
  H   H903      1.0  0.04629  0.57246  0.05180  1.0000
  H   H904      1.0  0.05868  0.66515  0.02702  1.0000
  H   H905      1.0  0.03672  0.68392  0.04607  1.0000
  S   S138      1.0  0.27533  0.70348  0.99660  1.0000
  H   H906      1.0  0.05462  0.52647  0.04579  1.0000
  H   H907      1.0  0.07901  0.56605  0.98138  1.0000
  H   H908      1.0  0.04457  0.58326  0.08567  1.0000
  S   S139      1.0  0.00641  0.64928  0.15989  1.0000
  H   H909      1.0  0.42719  0.70835  0.01499  1.0000
  C   C529      1.0  0.01794  0.68539  0.17811  1.0000
  H   H910      1.0  0.01602  0.65824  0.18694  1.0000
  S   S140      1.0  0.13554  0.64404  0.99045  1.0000
  H   H911      1.0  0.13952  0.68445  0.98767  1.0000
  Fe  Fe74      1.0  0.06205  0.50595  0.01398  1.0000
  H   H912      1.0  0.03193  0.53734  0.05071  1.0000
  C   C530      1.0  0.00981  0.68380  0.14743  1.0000
  C   C531      1.0  0.28691  0.71036  0.00790  1.0000
  H   H913      1.0  0.12199  0.71706  0.98600  1.0000
  C   C532      1.0  0.04129  0.49519  0.05850  1.0000
  H   H914      1.0  0.06253  0.56391  0.06440  1.0000
  C   C533      1.0  0.30547  0.72369  0.02397  1.0000
  H   H915      1.0  0.06471  0.55507  0.09299  1.0000
  H   H916      1.0  0.07468  0.56867  0.00924  1.0000
  C   C534      1.0  0.06430  0.58084  0.00994  1.0000
  C   C535      1.0  0.13356  0.56078  0.00689  1.0000
  H   H917      1.0  0.08125  0.59922  0.99724  1.0000
  H   H918      1.0  0.05835  0.69404  0.30126  1.0000
  C   C536      1.0  0.01737  0.49641  0.08423  1.0000
  C   C537      1.0  0.12215  0.54899  0.01363  1.0000
  H   H919      1.0  0.18638  0.72157  0.09541  1.0000
  H   H920      1.0  0.16395  0.66614  0.97920  1.0000
  C   C538      1.0  0.45363  0.72785  0.98907  1.0000
  C   C539      1.0  0.13278  0.69211  0.97696  1.0000
  C   C540      1.0  0.16885  0.60859  0.02466  1.0000
  S   S141      1.0  0.06437  0.53399  0.00607  1.0000
  C   C541      1.0  0.01707  0.70023  0.16439  1.0000
  H   H921      1.0  0.06971  0.69102  0.07197  1.0000
  H   H922      1.0  0.99647  0.54991  0.09129  1.0000
  H   H923      1.0  0.06832  0.65879  0.13354  1.0000
  H   H924      1.0  0.04578  0.66791  0.13148  1.0000
  C   C542      1.0  0.04900  0.70256  0.29357  1.0000
  C   C543      1.0  0.06924  0.59649  0.99528  1.0000
  C   C544      1.0  0.09172  0.67698  0.08414  1.0000
  H   H925      1.0  0.01901  0.69721  0.09978  1.0000
  C   C545      1.0  0.12861  0.57714  0.01143  1.0000
  S   S142      1.0  0.00527  0.70931  0.21732  1.0000
  H   H926      1.0  0.14767  0.57358  0.06986  1.0000
  H   H927      1.0  0.13116  0.57274  0.05963  1.0000
  H   H928      1.0  0.17331  0.71110  0.97827  1.0000
  C   C546      1.0  0.04795  0.53768  0.06854  1.0000
  S   S143      1.0  0.10697  0.51924  0.99022  1.0000
  C   C547      1.0  0.16023  0.70773  0.98081  1.0000
  H   H929      1.0  0.17609  0.61872  0.02367  1.0000
  C   C548      1.0  0.06772  0.65762  0.07820  1.0000
  H   H930      1.0  0.37940  0.67528  0.98522  1.0000
  C   C549      1.0  0.27809  0.71738  0.02259  1.0000
  C   C550      1.0  0.04554  0.53814  0.05035  1.0000
  H   H931      1.0  0.05445  0.64830  0.11360  1.0000
  S   S144      1.0  0.02152  0.71982  0.16579  1.0000
  C   C551      1.0  0.05712  0.54461  0.09912  1.0000
  H   H932      1.0  0.26407  0.71794  0.02761  1.0000
  C   C552      1.0  0.42492  0.70722  0.00259  1.0000
  H   H933      1.0  0.15103  0.71619  0.98960  1.0000
  H   H934      1.0  0.00196  0.55798  0.11803  1.0000
  S   S145      1.0  0.08573  0.49598  0.02600  1.0000
  H   H935      1.0  0.17057  0.63216  0.04441  1.0000
  C   C553      1.0  0.05982  0.66678  0.12424  1.0000
  C   C554      1.0  0.14758  0.59094  0.04348  1.0000
  N   N39       1.0  0.16011  0.60176  0.04337  1.0000
  H   H936      1.0  0.41210  0.70326  0.00538  1.0000
  H   H937      1.0  0.16179  0.69392  0.98800  1.0000
  C   C555      1.0  0.00519  0.49951  0.07386  1.0000
  Fe  Fe75      1.0  0.02040  0.72067  0.22914  1.0000
  Fe  Fe76      1.0  0.12560  0.61929  0.00301  1.0000
  S   S146      1.0  0.01329  0.63784  0.11429  1.0000
  C   C556      1.0  0.02554  0.72473  0.27310  1.0000
  S   S147      1.0  0.01005  0.49416  0.10688  1.0000
  C   C557      1.0  0.04795  0.56843  0.06551  1.0000
  N   N40       1.0  0.07175  0.59452  0.97686  1.0000
  H   H938      1.0  0.06680  0.69304  0.09351  1.0000
  H   H939      1.0  0.03853  0.70548  0.08956  1.0000
  C   C558      1.0  0.01949  0.55959  0.07390  1.0000
  H   H940      1.0  0.13939  0.61388  0.06282  1.0000
  H   H941      1.0  0.03561  0.69280  0.11187  1.0000
  H   H942      1.0  0.07689  0.64883  0.10816  1.0000
  C   C559      1.0  0.18237  0.59512  0.01481  1.0000
  C   C560      1.0  0.06347  0.65763  0.10902  1.0000
  H   H943      1.0  0.00341  0.54312  0.07107  1.0000
  S   S148      1.0  0.10920  0.62851  0.02720  1.0000
  S   S149      1.0  0.09157  0.53896  0.03430  1.0000
  C   C561      1.0  0.04175  0.67720  0.09165  1.0000
  H   H944      1.0  0.10841  0.59407  0.02650  1.0000
  H   H945      1.0  0.13697  0.59927  0.03663  1.0000
  H   H946      1.0  0.06305  0.58392  0.02269  1.0000
  H   H947      1.0  0.01879  0.56491  0.05991  1.0000
  H   H948      1.0  0.12806  0.59109  0.06869  1.0000
  H   H949      1.0  0.06674  0.66568  0.06483  1.0000
  S   S150      1.0  0.19419  0.72555  0.00847  1.0000
  N   N41       1.0  0.03849  0.55385  0.07572  1.0000
  Fe  Fe77      1.0  0.01518  0.72702  0.19208  1.0000
  C   C562      1.0  0.28747  0.72366  0.03080  1.0000
  S   S151      1.0  0.23120  0.70305  0.98854  1.0000
  H   H950      1.0  0.06311  0.67982  0.12037  1.0000
  H   H951      1.0  0.03948  0.68085  0.07814  1.0000
  H   H952      1.0  0.09756  0.68864  0.08120  1.0000
  H   H953      1.0  0.00990  0.64161  0.07145  1.0000
  S   S152      1.0  0.03601  0.49814  0.02589  1.0000
  S   S153      1.0  0.14242  0.59227  0.00260  1.0000
  C   C563      1.0  0.01510  0.66973  0.17635  1.0000
  N   N42       1.0  0.06110  0.66909  0.09143  1.0000
  H   H954      1.0  0.04909  0.54980  0.04049  1.0000
  H   H955      1.0  0.45635  0.71470  0.99793  1.0000
  C   C564      1.0  0.10608  0.55336  0.02535  1.0000
  H   H956      1.0  0.19737  0.57145  0.04878  1.0000
  H   H957      1.0  0.15860  0.61531  0.01677  1.0000
  H   H958      1.0  0.08197  0.65126  0.07736  1.0000
  H   H959      1.0  0.15000  0.64146  0.05711  1.0000
  Fe  Fe78      1.0  0.10068  0.49232  0.99917  1.0000
  C   C565      1.0  0.03356  0.69407  0.09873  1.0000
  C   C566      1.0  0.31440  0.71620  0.00961  1.0000
  C   C567      1.0  0.17355  0.59191  0.05434  1.0000
  H   H960      1.0  0.08898  0.57297  0.03921  1.0000
  S   S154      1.0  0.36830  0.72346  0.01159  1.0000
  H   H961      1.0  0.18420  0.59927  0.05144  1.0000
  C   C568      1.0  0.04788  0.69822  0.27856  1.0000
  H   H962      1.0  0.03110  0.62333  0.05167  1.0000
  S   S155      1.0  0.00743  0.67667  0.07458  1.0000
  H   H963      1.0  0.00152  0.50221  0.04806  1.0000
  H   H964      1.0  0.08615  0.72159  0.21564  1.0000
  H   H965      1.0  0.02778  0.59155  0.07283  1.0000
  C   C569      1.0  0.15915  0.62884  0.05490  1.0000
  H   H966      1.0  0.14604  0.55735  0.99794  1.0000
  H   H967      1.0  0.03193  0.53886  0.10225  1.0000
  H   H968      1.0  0.05635  0.68636  0.27480  1.0000
  C   C570      1.0  0.02908  0.49786  0.04824  1.0000
  C   C571      1.0  0.11741  0.70602  0.98455  1.0000
  H   H969      1.0  0.01252  0.71075  0.13832  1.0000
  H   H970      1.0  0.30209  0.73038  0.09197  1.0000
  H   H971      1.0  0.11073  0.56157  0.97603  1.0000
  C   C572      1.0  0.03629  0.70932  0.26816  1.0000
  H   H972      1.0  0.05852  0.60809  0.99798  1.0000
  H   H973      1.0  0.28067  0.72875  0.04231  1.0000
  H   H974      1.0  0.00527  0.68825  0.27337  1.0000
  C   C573      1.0  0.01089  0.66891  0.16108  1.0000
  H   H975      1.0  0.16389  0.62219  0.06713  1.0000
  C   C574      1.0  0.01314  0.69932  0.14900  1.0000
  H   H976      1.0  0.04405  0.52567  0.07758  1.0000
  S   S156      1.0  0.00195  0.59403  0.11470  1.0000
  H   H977      1.0  0.08444  0.72359  0.27345  1.0000
  H   H978      1.0  0.07743  0.71690  0.23867  1.0000
  C   C575      1.0  0.03544  0.49444  0.07652  1.0000
  C   C576      1.0  0.42427  0.72493  0.98913  1.0000
  H   H979      1.0  0.99607  0.70941  0.29177  1.0000
  H   H980      1.0  0.41426  0.72656  0.98142  1.0000
  H   H981      1.0  0.46131  0.72938  0.07443  1.0000
  C   C577      1.0  0.10305  0.57495  0.97742  1.0000
  H   H982      1.0  0.04363  0.60534  0.97840  1.0000
  H   H983      1.0  0.06082  0.72968  0.26098  1.0000
  H   H984      1.0  0.00653  0.68332  0.13564  1.0000
  S   S157      1.0  0.07662  0.50031  0.98794  1.0000
  H   H985      1.0  0.34857  0.72377  0.97898  1.0000
  C   C578      1.0  0.02616  0.72881  0.28858  1.0000
  H   H986      1.0  0.06283  0.72679  0.22355  1.0000
  C   C579      1.0  0.07561  0.72653  0.22631  1.0000
  H   H987      1.0  0.06344  0.63151  0.97725  1.0000
  H   H988      1.0  0.19505  0.73259  0.11629  1.0000
  Fe  Fe79      1.0  0.99554  0.65930  0.09907  1.0000
  Fe  Fe80      1.0  0.99566  0.64794  0.13759  1.0000
  H   H989      1.0  0.03396  0.71709  0.45889  1.0000
  H   H990      1.0  0.11032  0.72865  0.63125  1.0000
  S   S158      1.0  0.01957  0.72637  0.63066  1.0000
  H   H991      1.0  0.04006  0.73113  0.54690  1.0000
  H   H992      1.0  0.03457  0.71774  0.39984  1.0000
  H   H993      1.0  0.05050  0.71584  0.43980  1.0000
  C   C580      1.0  0.04243  0.72499  0.44821  1.0000
  H   H994      1.0  0.02291  0.72046  0.42128  1.0000
  C   C581      1.0  0.02871  0.72757  0.40813  1.0000
  H   H995      1.0  0.05107  0.72912  0.45408  1.0000
  S   S159      1.0  0.04122  0.72315  0.31693  1.0000
  H   H996      1.0  0.05434  0.72533  0.41221  1.0000
  H   H997      1.0  0.99701  0.71010  0.59730  1.0000
  H   H998      1.0  0.01638  0.73310  0.53208  1.0000
  H   H999      1.0  0.11453  0.72761  0.42766  1.0000
  S   S160      1.0  0.01001  0.66909  0.74124  1.0000
  C   C582      1.0  0.01531  0.60878  0.83739  1.0000
  H   H1000     1.0  0.07088  0.58000  0.89049  1.0000
  H   H1001     1.0  0.04719  0.52190  0.77477  1.0000
  H   H1002     1.0  0.25943  0.66988  0.95534  1.0000
  H   H1003     1.0  0.09697  0.67958  0.79106  1.0000
  H   H1004     1.0  0.06248  0.50945  0.80844  1.0000
  S   S161      1.0  0.07786  0.54407  0.95489  1.0000
  H   H1005     1.0  0.08698  0.53343  0.80596  1.0000
  C   C583      1.0  0.00956  0.56251  0.77951  1.0000
  C   C584      1.0  0.01418  0.57877  0.77180  1.0000
  H   H1006     1.0  0.03004  0.53921  0.80162  1.0000
  C   C585      1.0  0.06677  0.62803  0.96435  1.0000
  H   H1007     1.0  0.07799  0.72610  0.68131  1.0000
  C   C586      1.0  0.26163  0.69709  0.94880  1.0000
  S   S162      1.0  0.30309  0.71817  0.87292  1.0000
  H   H1008     1.0  0.09660  0.70096  0.79378  1.0000
  C   C587      1.0  0.09544  0.56574  0.83564  1.0000
  H   H1009     1.0  0.01474  0.55571  0.84588  1.0000
  S   S163      1.0  0.02793  0.53745  0.73943  1.0000
  H   H1010     1.0  0.08485  0.51522  0.75241  1.0000
  Fe  Fe81      1.0  0.02107  0.64424  0.73159  1.0000
  S   S164      1.0  0.42741  0.72130  0.89512  1.0000
  S   S165      1.0  0.02990  0.64553  0.70266  1.0000
  Fe  Fe82      1.0  0.02251  0.65443  0.76405  1.0000
  S   S166      1.0  0.03949  0.66648  0.77300  1.0000
  H   H1011     1.0  0.04218  0.69162  0.65033  1.0000
  H   H1012     1.0  0.23846  0.72045  0.91695  1.0000
  S   S167      1.0  0.03566  0.63033  0.75311  1.0000
  C   C588      1.0  0.43843  0.70921  0.95854  1.0000
  N   N43       1.0  0.26846  0.71082  0.93363  1.0000
  C   C589      1.0  0.40107  0.68136  0.93399  1.0000
  C   C590      1.0  0.33148  0.73194  0.96083  1.0000
  S   S168      1.0  0.11338  0.66713  0.95072  1.0000
  Fe  Fe83      1.0  0.19042  0.71128  0.85094  1.0000
  H   H1013     1.0  0.03264  0.68091  0.84878  1.0000
  S   S169      1.0  0.18741  0.68960  0.84068  1.0000
  C   C591      1.0  0.28568  0.72544  0.86196  1.0000
  C   C592      1.0  0.04114  0.48345  0.84570  1.0000
  Fe  Fe84      1.0  0.19352  0.71825  0.88413  1.0000
  S   S170      1.0  0.19329  0.70380  0.91210  1.0000
  H   H1014     1.0  0.02599  0.61006  0.86650  1.0000
  S   S171      1.0  0.21362  0.70617  0.86314  1.0000
  C   C593      1.0  0.20647  0.71559  0.95109  1.0000
  Fe  Fe85      1.0  0.11465  0.62039  0.84868  1.0000
  S   S172      1.0  0.09061  0.61405  0.86861  1.0000
  S   S173      1.0  0.13282  0.59705  0.83903  1.0000
  Fe  Fe86      1.0  0.10460  0.65846  0.85141  1.0000
  S   S174      1.0  0.07980  0.65490  0.87180  1.0000
  S   S175      1.0  0.10928  0.68595  0.84333  1.0000
  Fe  Fe87      1.0  0.09686  0.62994  0.88346  1.0000
  S   S176      1.0  0.09818  0.61813  0.91147  1.0000
  Fe  Fe88      1.0  0.07607  0.63938  0.85478  1.0000
  S   S177      1.0  0.04885  0.64128  0.85095  1.0000
  S   S178      1.0  0.12203  0.63460  0.86453  1.0000
  S   S179      1.0  0.09974  0.64467  0.83343  1.0000
  C   C594      1.0  0.10356  0.63204  0.92118  1.0000
  C   C595      1.0  0.09853  0.65029  0.91590  1.0000
  C   C596      1.0  0.10158  0.66114  0.92495  1.0000
  C   C597      1.0  0.10969  0.65371  0.93921  1.0000
  C   C598      1.0  0.11547  0.63549  0.94388  1.0000
  C   C599      1.0  0.11239  0.62468  0.93490  1.0000
  H   H1015     1.0  0.09180  0.65604  0.90521  1.0000
  H   H1016     1.0  0.09730  0.67524  0.92113  1.0000
  H   H1017     1.0  0.08086  0.59079  0.82390  1.0000
  H   H1018     1.0  0.11672  0.61059  0.93869  1.0000
  H   H1019     1.0  0.47986  0.72258  0.97121  1.0000
  H   H1020     1.0  0.25630  0.72562  0.96426  1.0000
  H   H1021     1.0  0.20465  0.69231  0.94459  1.0000
  H   H1022     1.0  0.03187  0.56058  0.82726  1.0000
  C   C600      1.0  0.37138  0.69497  0.92860  1.0000
  C   C601      1.0  0.16565  0.68896  0.84121  1.0000
  C   C602      1.0  0.16235  0.67365  0.83930  1.0000
  C   C603      1.0  0.14503  0.67259  0.84015  1.0000
  C   C604      1.0  0.13099  0.68699  0.84252  1.0000
  C   C605      1.0  0.13431  0.70240  0.84421  1.0000
  C   C606      1.0  0.15159  0.70333  0.84376  1.0000
  H   H1023     1.0  0.17321  0.66255  0.83722  1.0000
  H   H1024     1.0  0.14262  0.66074  0.83859  1.0000
  H   H1025     1.0  0.12346  0.71357  0.84605  1.0000
  H   H1026     1.0  0.15407  0.71521  0.84516  1.0000
  H   H1027     1.0  0.04384  0.69573  0.79020  1.0000
  H   H1028     1.0  0.15461  0.72286  0.92832  1.0000
  Fe  Fe89      1.0  0.45074  0.73272  0.89231  1.0000
  H   H1029     1.0  0.13593  0.72371  0.92018  1.0000
  C   C607      1.0  0.14532  0.71504  0.92833  1.0000
  H   H1030     1.0  0.04712  0.55072  0.77270  1.0000
  C   C608      1.0  0.38339  0.65864  0.92243  1.0000
  H   H1031     1.0  0.15263  0.70409  0.92173  1.0000
  C   C609      1.0  0.06165  0.51878  0.77430  1.0000
  H   H1032     1.0  0.12005  0.56806  0.93804  1.0000
  C   C610      1.0  0.04191  0.65765  0.79462  1.0000
  C   C611      1.0  0.02710  0.65787  0.80852  1.0000
  C   C612      1.0  0.02935  0.65268  0.82581  1.0000
  C   C613      1.0  0.04638  0.64693  0.82924  1.0000
  C   C614      1.0  0.06114  0.64608  0.81534  1.0000
  C   C615      1.0  0.05892  0.65172  0.79806  1.0000
  H   H1033     1.0  0.08164  0.68229  0.82787  1.0000
  H   H1034     1.0  0.01787  0.65337  0.83653  1.0000
  H   H1035     1.0  0.07428  0.64110  0.81783  1.0000
  H   H1036     1.0  0.07040  0.65143  0.78733  1.0000
  C   C616      1.0  0.03733  0.66480  0.69105  1.0000
  C   C617      1.0  0.04273  0.67440  0.69961  1.0000
  C   C618      1.0  0.04802  0.69011  0.69040  1.0000
  C   C619      1.0  0.04750  0.69653  0.67272  1.0000
  C   C620      1.0  0.04231  0.68686  0.66406  1.0000
  C   C621      1.0  0.03737  0.67091  0.67320  1.0000
  H   H1037     1.0  0.04308  0.66958  0.71329  1.0000
  H   H1038     1.0  0.05223  0.69745  0.69710  1.0000
  H   H1039     1.0  0.06370  0.48977  0.93022  1.0000
  H   H1040     1.0  0.03333  0.66344  0.66652  1.0000
  H   H1041     1.0  0.06928  0.55327  0.76512  1.0000
  H   H1042     1.0  0.34551  0.70638  0.92238  1.0000
  C   C622      1.0  0.24831  0.70811  0.91529  1.0000
  C   C623      1.0  0.09411  0.50494  0.91980  1.0000
  H   H1043     1.0  0.24351  0.69688  0.92495  1.0000
  C   C624      1.0  0.08562  0.52472  0.78298  1.0000
  H   H1044     1.0  0.01012  0.57502  0.82935  1.0000
  H   H1045     1.0  0.05835  0.70544  0.77152  1.0000
  H   H1046     1.0  0.09141  0.57611  0.87500  1.0000
  C   C625      1.0  0.09764  0.51436  0.94404  1.0000
  H   H1047     1.0  0.10902  0.71170  0.65099  1.0000
  C   C626      1.0  0.27272  0.71563  0.86605  1.0000
  C   C627      1.0  0.25835  0.72175  0.85781  1.0000
  C   C628      1.0  0.13477  0.70839  0.94687  1.0000
  S   S180      1.0  0.07961  0.55438  0.83608  1.0000
  H   H1048     1.0  0.10148  0.57959  0.92859  1.0000
  H   H1049     1.0  0.27369  0.70341  0.87571  1.0000
  H   H1050     1.0  0.24820  0.71432  0.86122  1.0000
  H   H1051     1.0  0.09015  0.51038  0.78819  1.0000
  C   C629      1.0  0.09304  0.53461  0.79188  1.0000
  S   S181      1.0  0.05336  0.71669  0.66185  1.0000
  H   H1052     1.0  0.03295  0.51605  0.80270  1.0000
  H   H1053     1.0  0.11864  0.58841  0.88987  1.0000
  C   C630      1.0  0.05692  0.52361  0.80345  1.0000
  C   C631      1.0  0.05954  0.54866  0.77707  1.0000
  H   H1054     1.0  0.14808  0.58273  0.87621  1.0000
  C   C632      1.0  0.01374  0.54968  0.76969  1.0000
  N   N44       1.0  0.38172  0.68072  0.94054  1.0000
  H   H1055     1.0  0.11633  0.54896  0.87888  1.0000
  C   C633      1.0  0.11085  0.55700  0.84182  1.0000
  H   H1056     1.0  0.30348  0.70116  0.90981  1.0000
  H   H1057     1.0  0.08195  0.55803  0.88898  1.0000
  H   H1058     1.0  0.24694  0.69921  0.95142  1.0000
  H   H1059     1.0  0.34826  0.68353  0.93224  1.0000
  S   S182      1.0  0.10852  0.50773  0.85753  1.0000
  H   H1060     1.0  0.99691  0.57922  0.72377  1.0000
  H   H1061     1.0  0.39690  0.65982  0.91477  1.0000
  S   S183      1.0  0.45840  0.73180  0.91695  1.0000
  H   H1062     1.0  0.11071  0.58436  0.96796  1.0000
  H   H1063     1.0  0.05690  0.60675  0.94578  1.0000
  C   C634      1.0  0.30221  0.69753  0.92418  1.0000
  H   H1064     1.0  0.18042  0.67930  0.96773  1.0000
  H   H1065     1.0  0.01424  0.72025  0.68727  1.0000
  C   C635      1.0  0.26956  0.67770  0.94791  1.0000
  C   C636      1.0  0.02701  0.56946  0.74440  1.0000
  H   H1066     1.0  0.03378  0.57219  0.73080  1.0000
  H   H1067     1.0  0.00769  0.60840  0.85108  1.0000
  H   H1068     1.0  0.31989  0.72920  0.97067  1.0000
  H   H1069     1.0  0.03147  0.52343  0.82170  1.0000
  H   H1070     1.0  0.08003  0.73089  0.80113  1.0000
  C   C637      1.0  0.07057  0.52159  0.75465  1.0000
  C   C638      1.0  0.05540  0.56149  0.78928  1.0000
  C   C639      1.0  0.28734  0.71080  0.93321  1.0000
  C   C640      1.0  0.26695  0.70877  0.91633  1.0000
  N   N45       1.0  0.15766  0.66338  0.89633  1.0000
  C   C641      1.0  0.14052  0.67348  0.89088  1.0000
  C   C642      1.0  0.16449  0.64789  0.88771  1.0000
  C   C643      1.0  0.17053  0.67542  0.88992  1.0000
  C   C644      1.0  0.15376  0.65785  0.91596  1.0000
  C   C645      1.0  0.13208  0.69112  0.89654  1.0000
  C   C646      1.0  0.15277  0.63426  0.89346  1.0000
  C   C647      1.0  0.19047  0.66680  0.88683  1.0000
  C   C648      1.0  0.16913  0.64632  0.92450  1.0000
  H   H1071     1.0  0.14242  0.67633  0.87641  1.0000
  H   H1072     1.0  0.13016  0.66564  0.89616  1.0000
  H   H1073     1.0  0.17775  0.64042  0.88991  1.0000
  H   H1074     1.0  0.16647  0.65254  0.87325  1.0000
  H   H1075     1.0  0.16861  0.68429  0.87715  1.0000
  H   H1076     1.0  0.16802  0.68422  0.89904  1.0000
  H   H1077     1.0  0.14895  0.66953  0.92190  1.0000
  H   H1078     1.0  0.14256  0.65113  0.92091  1.0000
  H   H1079     1.0  0.14097  0.70048  0.89143  1.0000
  H   H1080     1.0  0.12009  0.69740  0.89102  1.0000
  H   H1081     1.0  0.12756  0.68929  0.91093  1.0000
  H   H1082     1.0  0.15106  0.62819  0.90762  1.0000
  H   H1083     1.0  0.13964  0.63982  0.89009  1.0000
  H   H1084     1.0  0.15932  0.62350  0.88638  1.0000
  H   H1085     1.0  0.19805  0.67698  0.88464  1.0000
  H   H1086     1.0  0.19482  0.66146  0.87483  1.0000
  H   H1087     1.0  0.19427  0.65645  0.89799  1.0000
  H   H1088     1.0  0.17717  0.65451  0.92629  1.0000
  H   H1089     1.0  0.17775  0.63631  0.91726  1.0000
  H   H1090     1.0  0.16357  0.63867  0.93751  1.0000
  S   S184      1.0  0.47874  0.72277  0.87857  1.0000
  C   C649      1.0  0.11920  0.58485  0.83656  1.0000
  H   H1091     1.0  0.05951  0.53055  0.81201  1.0000
  H   H1092     1.0  0.05443  0.62933  0.96018  1.0000
  H   H1093     1.0  0.08941  0.72555  0.64580  1.0000
  H   H1094     1.0  0.06241  0.58299  0.95054  1.0000
  C   C650      1.0  0.09231  0.58396  0.82936  1.0000
  H   H1095     1.0  0.09270  0.71425  0.81591  1.0000
  H   H1096     1.0  0.37271  0.70800  0.92900  1.0000
  C   C651      1.0  0.10388  0.59354  0.83028  1.0000
  C   C652      1.0  0.12291  0.56652  0.84194  1.0000
  H   H1097     1.0  0.07426  0.67410  0.81390  1.0000
  H   H1098     1.0  0.14544  0.53621  0.89050  1.0000
  H   H1099     1.0  0.10438  0.51221  0.95444  1.0000
  C   C653      1.0  0.37958  0.66289  0.94056  1.0000
  C   C654      1.0  0.34762  0.72902  0.96551  1.0000
  H   H1100     1.0  0.06470  0.54319  0.92572  1.0000
  Fe  Fe90      1.0  0.09030  0.49758  0.88234  1.0000
  H   H1101     1.0  0.27599  0.69677  0.91252  1.0000
  N   N46       1.0  0.11326  0.56210  0.89965  1.0000
  S   S185      1.0  0.17012  0.72188  0.87269  1.0000
  H   H1102     1.0  0.24885  0.70634  0.90215  1.0000
  H   H1103     1.0  0.13483  0.55975  0.84668  1.0000
  H   H1104     1.0  0.11826  0.57849  0.87379  1.0000
  H   H1105     1.0  0.09105  0.58402  0.90434  1.0000
  H   H1106     1.0  0.07179  0.71583  0.78771  1.0000
  C   C655      1.0  0.05733  0.69849  0.78544  1.0000
  S   S186      1.0  0.01212  0.50082  0.78134  1.0000
  C   C656      1.0  0.37489  0.68371  0.95886  1.0000
  H   H1107     1.0  0.17967  0.66113  0.96018  1.0000
  H   H1108     1.0  0.39915  0.70993  0.92989  1.0000
  C   C657      1.0  0.15439  0.71193  0.96328  1.0000
  H   H1109     1.0  0.30056  0.68388  0.92925  1.0000
  H   H1110     1.0  0.14541  0.72519  0.96233  1.0000
  H   H1111     1.0  0.27310  0.67527  0.93461  1.0000
  H   H1112     1.0  0.26406  0.69835  0.96110  1.0000
  H   H1113     1.0  0.10743  0.52888  0.79091  1.0000
  C   C658      1.0  0.40640  0.69720  0.93644  1.0000
  H   H1114     1.0  0.05882  0.57411  0.78134  1.0000
  H   H1115     1.0  0.06265  0.55715  0.79992  1.0000
  C   C659      1.0  0.11568  0.57308  0.92547  1.0000
  H   H1116     1.0  0.04094  0.56488  0.79474  1.0000
  Fe  Fe91      1.0  0.06276  0.49746  0.86399  1.0000
  C   C660      1.0  0.35130  0.69587  0.93257  1.0000
  H   H1117     1.0  0.10103  0.60768  0.82594  1.0000
  H   H1118     1.0  0.13412  0.52091  0.88901  1.0000
  C   C661      1.0  0.02729  0.48454  0.83798  1.0000
  S   S187      1.0  0.06585  0.51747  0.87634  1.0000
  H   H1119     1.0  0.08636  0.56324  0.91522  1.0000
  H   H1120     1.0  0.10528  0.53880  0.89969  1.0000
  N   N47       1.0  0.14547  0.69910  0.96067  1.0000
  N   N48       1.0  0.06583  0.52938  0.78457  1.0000
  H   H1121     1.0  0.08286  0.60772  0.95074  1.0000
  H   H1122     1.0  0.99553  0.71948  0.66898  1.0000
  S   S188      1.0  0.07867  0.50765  0.83773  1.0000
  H   H1123     1.0  0.12259  0.62971  0.95425  1.0000
  H   H1124     1.0  0.11140  0.54781  0.92647  1.0000
  Fe  Fe92      1.0  0.99703  0.48718  0.77186  1.0000
  H   H1125     1.0  0.12358  0.58282  0.91722  1.0000
  H   H1126     1.0  0.00778  0.60594  0.81435  1.0000
  S   S189      1.0  0.99728  0.63283  0.74523  1.0000
  H   H1127     1.0  0.43107  0.72085  0.95065  1.0000
  H   H1128     1.0  0.13284  0.55101  0.91585  1.0000
  Fe  Fe93      1.0  0.10166  0.48839  0.84704  1.0000
  C   C662      1.0  0.20313  0.70640  0.94057  1.0000
  H   H1129     1.0  0.06514  0.50443  0.78012  1.0000
  H   H1130     1.0  0.07364  0.52176  0.90674  1.0000
  C   C663      1.0  0.15891  0.68391  0.95419  1.0000
  C   C664      1.0  0.11632  0.54565  0.89306  1.0000
  H   H1131     1.0  0.13216  0.52486  0.90988  1.0000
  C   C665      1.0  0.08403  0.52917  0.94126  1.0000
  H   H1132     1.0  0.14913  0.56330  0.89251  1.0000
  C   C666      1.0  0.11868  0.55756  0.91689  1.0000
  C   C667      1.0  0.08462  0.57767  0.97371  1.0000
  C   C668      1.0  0.02282  0.58229  0.75421  1.0000
  S   S190      1.0  0.00656  0.49876  0.74347  1.0000
  C   C669      1.0  0.02254  0.55312  0.75213  1.0000
  H   H1133     1.0  0.24282  0.72865  0.93862  1.0000
  H   H1134     1.0  0.44666  0.70046  0.94962  1.0000
  C   C670      1.0  0.13310  0.53133  0.89583  1.0000
  C   C671      1.0  0.10270  0.50231  0.93330  1.0000
  C   C672      1.0  0.08045  0.51973  0.91701  1.0000
  Fe  Fe94      1.0  0.08376  0.52607  0.85054  1.0000
  H   H1135     1.0  0.12682  0.69973  0.94563  1.0000
  N   N49       1.0  0.03139  0.59387  0.83672  1.0000
  C   C673      1.0  0.04388  0.59705  0.84568  1.0000
  C   C674      1.0  0.04131  0.59281  0.81826  1.0000
  C   C675      1.0  0.02641  0.57656  0.84660  1.0000
  H   H1136     1.0  0.01911  0.62169  0.83339  1.0000
  C   C676      1.0  0.03661  0.59815  0.86503  1.0000
  C   C677      1.0  0.04650  0.60983  0.80633  1.0000
  S   S191      1.0  0.03709  0.49150  0.86448  1.0000
  H   H1137     1.0  0.07377  0.63798  0.95483  1.0000
  H   H1138     1.0  0.05607  0.58644  0.84528  1.0000
  H   H1139     1.0  0.04832  0.60948  0.83893  1.0000
  H   H1140     1.0  0.03366  0.58889  0.81120  1.0000
  H   H1141     1.0  0.05365  0.58234  0.81840  1.0000
  H   H1142     1.0  0.03785  0.56705  0.85156  1.0000
  H   H1143     1.0  0.15210  0.67527  0.95117  1.0000
  H   H1144     1.0  0.99562  0.61238  0.70561  1.0000
  H   H1145     1.0  0.06440  0.51531  0.74815  1.0000
  H   H1146     1.0  0.38861  0.65236  0.94799  1.0000
  H   H1147     1.0  0.04748  0.59937  0.87021  1.0000
  H   H1148     1.0  0.40468  0.69718  0.95037  1.0000
  H   H1149     1.0  0.05257  0.60763  0.79291  1.0000
  H   H1150     1.0  0.03484  0.62088  0.80525  1.0000
  H   H1151     1.0  0.05657  0.61361  0.81053  1.0000
  H   H1152     1.0  0.16625  0.71363  0.95256  1.0000
  Fe  Fe95      1.0  0.01051  0.62149  0.76782  1.0000
  C   C678      1.0  0.00169  0.60962  0.82703  1.0000
  H   H1153     1.0  0.01001  0.53726  0.77568  1.0000
  H   H1154     1.0  0.03996  0.59455  0.95487  1.0000
  C   C679      1.0  0.19788  0.71540  0.92488  1.0000
  H   H1155     1.0  0.34438  0.69961  0.94521  1.0000
  H   H1156     1.0  0.01571  0.57830  0.85842  1.0000
  H   H1157     1.0  0.01393  0.66262  0.80592  1.0000
  C   C680      1.0  0.36246  0.73310  0.95287  1.0000
  H   H1158     1.0  0.37349  0.66698  0.91475  1.0000
  H   H1159     1.0  0.39199  0.71801  0.90059  1.0000
  H   H1160     1.0  0.04436  0.68452  0.81848  1.0000
  C   C681      1.0  0.02038  0.56665  0.83650  1.0000
  C   C682      1.0  0.25710  0.72853  0.93627  1.0000
  H   H1161     1.0  0.03387  0.70579  0.82237  1.0000
  H   H1162     1.0  0.10685  0.68165  0.80698  1.0000
  H   H1163     1.0  0.39920  0.67065  0.96916  1.0000
  H   H1164     1.0  0.01379  0.48997  0.84393  1.0000
  Fe  Fe96      1.0  0.48636  0.72488  0.90222  1.0000
  H   H1165     1.0  0.04158  0.69763  0.85109  1.0000
  H   H1166     1.0  0.05595  0.67706  0.84660  1.0000
  C   C683      1.0  0.38484  0.67092  0.97267  1.0000
  C   C684      1.0  0.08416  0.57108  0.88836  1.0000
  C   C685      1.0  0.45060  0.71420  0.96711  1.0000
  H   H1167     1.0  0.28929  0.70874  0.94669  1.0000
  C   C686      1.0  0.14298  0.57048  0.88130  1.0000
  H   H1168     1.0  0.01179  0.70603  0.70894  1.0000
  H   H1169     1.0  0.40963  0.66926  0.94023  1.0000
  C   C687      1.0  0.07542  0.53188  0.92773  1.0000
  H   H1170     1.0  0.02641  0.59483  0.74820  1.0000
  H   H1171     1.0  0.09275  0.52742  0.76908  1.0000
  H   H1172     1.0  0.99993  0.69688  0.65221  1.0000
  H   H1173     1.0  0.00667  0.72925  0.70620  1.0000
  S   S192      1.0  0.99819  0.64468  0.78029  1.0000
  H   H1174     1.0  0.21038  0.70858  0.96323  1.0000
  H   H1175     1.0  0.14757  0.56289  0.87088  1.0000
  H   H1176     1.0  0.40533  0.68167  0.91973  1.0000
  C   C688      1.0  0.09363  0.57030  0.90274  1.0000
  H   H1177     1.0  0.37485  0.69728  0.95916  1.0000
  Fe  Fe97      1.0  0.02327  0.51038  0.75286  1.0000
  C   C689      1.0  0.07903  0.60967  0.96436  1.0000
  H   H1178     1.0  0.06572  0.70833  0.83673  1.0000
  H   H1179     1.0  0.31500  0.69800  0.92646  1.0000
  H   H1180     1.0  0.06861  0.53566  0.74796  1.0000
  C   C690      1.0  0.07991  0.72367  0.81481  1.0000
  C   C691      1.0  0.03668  0.52583  0.80732  1.0000
  H   H1181     1.0  0.27135  0.71966  0.90561  1.0000
  C   C692      1.0  0.12261  0.57542  0.88624  1.0000
  H   H1182     1.0  0.11354  0.54295  0.84642  1.0000
  H   H1183     1.0  0.06729  0.68595  0.78578  1.0000
  H   H1184     1.0  0.09142  0.61037  0.96733  1.0000
  N   N50       1.0  0.06259  0.70137  0.81417  1.0000
  C   C693      1.0  0.04580  0.69502  0.82393  1.0000
  C   C694      1.0  0.06034  0.71022  0.79580  1.0000
  C   C695      1.0  0.06419  0.71460  0.82309  1.0000
  C   C696      1.0  0.07808  0.68584  0.81491  1.0000
  C   C697      1.0  0.04415  0.68730  0.84371  1.0000
  S   S193      1.0  0.00925  0.59443  0.78436  1.0000
  H   H1185     1.0  0.37688  0.69404  0.91471  1.0000
  C   C698      1.0  0.09529  0.68750  0.80073  1.0000
  H   H1186     1.0  0.03196  0.58624  0.87326  1.0000
  H   H1187     1.0  0.04891  0.72172  0.79598  1.0000
  C   C699      1.0  0.39335  0.73012  0.89120  1.0000
  H   H1188     1.0  0.36599  0.66104  0.94752  1.0000
  H   H1189     1.0  0.16803  0.68864  0.94182  1.0000
  H   H1190     1.0  0.08709  0.57681  0.95988  1.0000
  H   H1191     1.0  0.00200  0.68450  0.70580  1.0000
  H   H1192     1.0  0.05186  0.72511  0.82407  1.0000
  H   H1193     1.0  0.00265  0.55989  0.79307  1.0000
  H   H1194     1.0  0.12499  0.72015  0.95063  1.0000
  H   H1195     1.0  0.38251  0.64483  0.92421  1.0000
  S   S194      1.0  0.04618  0.48738  0.75102  1.0000
  C   C700      1.0  0.00594  0.71849  0.70073  1.0000
  H   H1196     1.0  0.09179  0.54864  0.78515  1.0000
  H   H1197     1.0  0.46165  0.71837  0.95637  1.0000
  H   H1198     1.0  0.00822  0.69877  0.67711  1.0000
  H   H1199     1.0  0.29038  0.72382  0.92624  1.0000
  H   H1200     1.0  0.00225  0.60442  0.72627  1.0000
  C   C701      1.0  0.10329  0.72550  0.64514  1.0000
  H   H1201     1.0  0.28128  0.67249  0.95394  1.0000
  H   H1202     1.0  0.11332  0.49093  0.93551  1.0000
  S   S195      1.0  0.38177  0.73135  0.95957  1.0000
  S   S196      1.0  0.10037  0.48923  0.90702  1.0000
  H   H1203     1.0  0.42069  0.69652  0.93040  1.0000
  C   C702      1.0  0.17123  0.67214  0.96628  1.0000
  C   C703      1.0  0.05362  0.59470  0.95517  1.0000
  H   H1204     1.0  0.42889  0.70192  0.96838  1.0000
  H   H1205     1.0  0.36081  0.68263  0.96382  1.0000
  H   H1206     1.0  0.10646  0.72999  0.66884  1.0000
  H   H1207     1.0  0.38278  0.65743  0.97517  1.0000
  H   H1208     1.0  0.45713  0.70190  0.97513  1.0000
  H   H1209     1.0  0.12670  0.68262  0.97437  1.0000
  C   C704      1.0  0.05413  0.59425  0.97406  1.0000
  C   C705      1.0  0.99450  0.70585  0.67620  1.0000
  H   H1210     1.0  0.01654  0.94812  0.24548  1.0000
  H   H1211     1.0  0.17404  0.74405  0.11212  1.0000
  C   C706      1.0  0.14239  0.84988  0.24242  1.0000
  C   C707      1.0  0.18726  0.82219  0.14941  1.0000
  C   C708      1.0  0.41351  0.77561  0.07025  1.0000
  H   H1212     1.0  0.04328  0.97847  0.20745  1.0000
  C   C709      1.0  0.33111  0.96230  0.10714  1.0000
  H   H1213     1.0  0.16558  0.78178  0.12230  1.0000
  H   H1214     1.0  0.40715  0.78836  0.07417  1.0000
  H   H1215     1.0  0.04963  0.76901  0.29807  1.0000
  S   S197      1.0  0.46317  0.82510  0.11707  1.0000
  H   H1216     1.0  0.46236  0.92674  0.04887  1.0000
  Fe  Fe98      1.0  0.48613  0.83839  0.10657  1.0000
  H   H1217     1.0  0.17786  0.86586  0.14343  1.0000
  C   C710      1.0  0.28403  0.77355  0.01931  1.0000
  H   H1218     1.0  0.13417  0.90106  0.24526  1.0000
  Fe  Fe99      1.0  0.36335  0.84194  0.05069  1.0000
  Fe  Fe100     1.0  0.36201  0.84766  0.08602  1.0000
  S   S198      1.0  0.37901  0.82119  0.09424  1.0000
  S   S199      1.0  0.35177  0.86829  0.10177  1.0000
  Fe  Fe101     1.0  0.39556  0.82711  0.06712  1.0000
  C   C711      1.0  0.48527  0.97418  0.08324  1.0000
  H   H1219     1.0  0.26032  0.89354  0.05422  1.0000
  H   H1220     1.0  0.41908  0.80887  0.99117  1.0000
  S   S200      1.0  0.37969  0.85435  0.05968  1.0000
  S   S201      1.0  0.34416  0.83764  0.07644  1.0000
  H   H1221     1.0  0.02887  0.95683  0.27249  1.0000
  H   H1222     1.0  0.39792  0.76724  0.12265  1.0000
  H   H1223     1.0  0.09122  0.74371  0.22667  1.0000
  Fe  Fe102     1.0  0.41476  0.96319  0.09060  1.0000
  S   S202      1.0  0.42357  0.95255  0.06637  1.0000
  Fe  Fe103     1.0  0.39862  0.97051  0.05943  1.0000
  C   C712      1.0  0.40174  0.76998  0.02414  1.0000
  C   C713      1.0  0.45436  0.97306  0.08790  1.0000
  Fe  Fe104     1.0  0.40610  0.93375  0.08124  1.0000
  S   S203      1.0  0.41600  0.90521  0.08103  1.0000
  H   H1224     1.0  0.06586  0.94777  0.29670  1.0000
  S   S204      1.0  0.39893  0.94295  0.10616  1.0000
  H   H1225     1.0  0.29059  0.89374  0.05964  1.0000
  H   H1226     1.0  0.27333  0.86500  0.04224  1.0000
  C   C714      1.0  0.47013  0.87353  0.01221  1.0000
  C   C715      1.0  0.32297  0.91423  0.13136  1.0000
  S   S205      1.0  0.48125  0.86701  0.09371  1.0000
  H   H1227     1.0  0.39661  0.84617  0.01568  1.0000
  H   H1228     1.0  0.28910  0.77892  0.09378  1.0000
  C   C716      1.0  0.43825  0.86758  0.12991  1.0000
  H   H1229     1.0  0.44830  0.88178  0.06444  1.0000
  H   H1230     1.0  0.40404  0.91196  0.03673  1.0000
  H   H1231     1.0  0.19789  0.85438  0.13065  1.0000
  H   H1232     1.0  0.39790  0.85790  0.98706  1.0000
  H   H1233     1.0  0.12171  0.87354  0.18062  1.0000
  S   S206      1.0  0.23577  0.86621  0.06884  1.0000
  H   H1234     1.0  0.01798  0.76630  0.24702  1.0000
  H   H1235     1.0  0.09278  0.77255  0.22071  1.0000
  S   S207      1.0  0.34364  0.75686  0.98943  1.0000
  H   H1236     1.0  0.43962  0.85781  0.05930  1.0000
  Fe  Fe105     1.0  0.22551  0.94137  0.11320  1.0000
  S   S208      1.0  0.24259  0.94497  0.12876  1.0000
  S   S209      1.0  0.21855  0.91485  0.12184  1.0000
  Fe  Fe106     1.0  0.22401  0.97125  0.12899  1.0000
  C   C717      1.0  0.25311  0.78795  0.99884  1.0000
  Fe  Fe107     1.0  0.25735  0.95817  0.10309  1.0000
  S   S210      1.0  0.28648  0.95002  0.09148  1.0000
  S   S211      1.0  0.20594  0.96689  0.11492  1.0000
  S   S212      1.0  0.24160  0.95246  0.08745  1.0000
  H   H1237     1.0  0.02158  0.81596  0.29592  1.0000
  H   H1238     1.0  0.46712  0.86403  0.06338  1.0000
  S   S213      1.0  0.08161  0.89242  0.18896  1.0000
  H   H1239     1.0  0.31073  0.97426  0.12643  1.0000
  S   S214      1.0  0.23123  0.73993  0.99704  1.0000
  Fe  Fe108     1.0  0.09299  0.94772  0.24244  1.0000
  S   S215      1.0  0.12036  0.93731  0.24708  1.0000
  S   S216      1.0  0.07468  0.92925  0.24975  1.0000
  Fe  Fe109     1.0  0.11514  0.96052  0.25881  1.0000
  S   S217      1.0  0.12228  0.95532  0.28475  1.0000
  Fe  Fe110     1.0  0.12873  0.95540  0.22156  1.0000
  S   S218      1.0  0.14993  0.94332  0.20104  1.0000
  S   S219      1.0  0.08684  0.96934  0.25643  1.0000
  S   S220      1.0  0.10148  0.96427  0.21607  1.0000
  C   C718      1.0  0.07789  0.90344  0.20573  1.0000
  C   C719      1.0  0.07322  0.89483  0.22320  1.0000
  C   C720      1.0  0.07152  0.90317  0.23663  1.0000
  C   C721      1.0  0.07518  0.91985  0.23267  1.0000
  C   C722      1.0  0.07954  0.92862  0.21520  1.0000
  C   C723      1.0  0.08067  0.92051  0.20173  1.0000
  H   H1240     1.0  0.07081  0.88174  0.22639  1.0000
  H   H1241     1.0  0.06777  0.89646  0.25010  1.0000
  H   H1242     1.0  0.08198  0.94164  0.21204  1.0000
  H   H1243     1.0  0.08411  0.92727  0.18824  1.0000
  C   C724      1.0  0.23909  0.77502  0.05209  1.0000
  C   C725      1.0  0.19204  0.95567  0.16344  1.0000
  C   C726      1.0  0.17816  0.94763  0.17385  1.0000
  C   C727      1.0  0.16793  0.95305  0.18912  1.0000
  S   S221      1.0  0.38206  0.95059  0.07170  1.0000
  H   H1244     1.0  0.42076  0.85837  0.04052  1.0000
  H   H1245     1.0  0.19980  0.95135  0.15169  1.0000
  H   H1246     1.0  0.17528  0.93734  0.16986  1.0000
  H   H1247     1.0  0.08740  0.80180  0.28975  1.0000
  C   C728      1.0  0.24441  0.75860  0.04769  1.0000
  C   C729      1.0  0.23327  0.88008  0.08281  1.0000
  C   C730      1.0  0.23697  0.87316  0.09942  1.0000
  C   C731      1.0  0.23320  0.88411  0.11112  1.0000
  C   C732      1.0  0.22622  0.90211  0.10606  1.0000
  C   C733      1.0  0.22364  0.90925  0.08904  1.0000
  C   C734      1.0  0.22706  0.89820  0.07746  1.0000
  H   H1248     1.0  0.24254  0.85937  0.10338  1.0000
  H   H1249     1.0  0.23530  0.87857  0.12426  1.0000
  H   H1250     1.0  0.21823  0.92316  0.08510  1.0000
  H   H1251     1.0  0.22440  0.90366  0.06452  1.0000
  H   H1252     1.0  0.34292  0.84015  0.97689  1.0000
  H   H1253     1.0  0.17153  0.88388  0.25083  1.0000
  H   H1254     1.0  0.49310  0.95645  0.04259  1.0000
  S   S222      1.0  0.03276  0.73618  0.20336  1.0000
  H   H1255     1.0  0.42075  0.77933  0.05653  1.0000
  H   H1256     1.0  0.38978  0.76418  0.08276  1.0000
  H   H1257     1.0  0.27838  0.76175  0.02440  1.0000
  C   C735      1.0  0.48290  0.91609  0.02841  1.0000
  C   C736      1.0  0.15022  0.86804  0.28732  1.0000
  H   H1258     1.0  0.42586  0.75109  0.10863  1.0000
  C   C737      1.0  0.18234  0.77315  0.09069  1.0000
  C   C738      1.0  0.08527  0.84183  0.29067  1.0000
  C   C739      1.0  0.19248  0.76472  0.11866  1.0000
  H   H1259     1.0  0.47391  0.87637  0.99771  1.0000
  H   H1260     1.0  0.46000  0.96062  0.04335  1.0000
  H   H1261     1.0  0.09473  0.76447  0.24328  1.0000
  C   C740      1.0  0.47818  0.93495  0.06854  1.0000
  H   H1262     1.0  0.07001  0.75522  0.30408  1.0000
  H   H1263     1.0  0.21442  0.75519  0.07881  1.0000
  C   C741      1.0  0.41231  0.90118  0.03017  1.0000
  H   H1264     1.0  0.45288  0.89630  0.02063  1.0000
  C   C742      1.0  0.45809  0.87387  0.05548  1.0000
  H   H1265     1.0  0.17222  0.91941  0.07777  1.0000
  H   H1266     1.0  0.11917  0.92315  0.20080  1.0000
  N   N51       1.0  0.43935  0.87516  0.03390  1.0000
  H   H1267     1.0  0.31299  0.92410  0.13803  1.0000
  H   H1268     1.0  0.11583  0.90586  0.21954  1.0000
  H   H1269     1.0  0.34008  0.75815  0.06381  1.0000
  C   C743      1.0  0.33461  0.95325  0.09392  1.0000
  C   C744      1.0  0.32073  0.94961  0.08936  1.0000
  C   C745      1.0  0.30320  0.95482  0.09810  1.0000
  Fe  Fe111     1.0  0.35554  0.77440  0.99716  1.0000
  H   H1270     1.0  0.41068  0.78291  0.10938  1.0000
  H   H1271     1.0  0.34800  0.94888  0.08727  1.0000
  H   H1272     1.0  0.32367  0.94266  0.07902  1.0000
  Fe  Fe112     1.0  0.00911  0.75774  0.20934  1.0000
  H   H1273     1.0  0.19907  0.77574  0.11632  1.0000
  C   C746      1.0  0.17269  0.91058  0.09083  1.0000
  H   H1274     1.0  0.14690  0.84874  0.27602  1.0000
  H   H1275     1.0  0.48482  0.94367  0.07158  1.0000
  H   H1276     1.0  0.33330  0.76975  0.12645  1.0000
  H   H1277     1.0  0.30103  0.77374  0.13888  1.0000
  C   C747      1.0  0.36965  0.87807  0.09812  1.0000
  C   C748      1.0  0.36672  0.89555  0.09917  1.0000
  C   C749      1.0  0.38103  0.90382  0.09444  1.0000
  C   C750      1.0  0.39822  0.89462  0.08858  1.0000
  C   C751      1.0  0.40120  0.87688  0.08840  1.0000
  C   C752      1.0  0.38693  0.86865  0.09309  1.0000
  H   H1278     1.0  0.35340  0.90290  0.10298  1.0000
  H   H1279     1.0  0.37866  0.91738  0.09509  1.0000
  H   H1280     1.0  0.41451  0.86950  0.08444  1.0000
  H   H1281     1.0  0.38934  0.85502  0.09265  1.0000
  S   S223      1.0  0.38335  0.75940  0.98992  1.0000
  H   H1282     1.0  0.15992  0.85538  0.13634  1.0000
  C   C753      1.0  0.03054  0.80978  0.30517  1.0000
  H   H1283     1.0  0.22801  0.74726  0.11260  1.0000
  C   C754      1.0  0.17347  0.76983  0.12935  1.0000
  C   C755      1.0  0.44240  0.84847  0.02083  1.0000
  H   H1284     1.0  0.39244  0.77984  0.10250  1.0000
  H   H1285     1.0  0.30683  0.76304  0.00142  1.0000
  H   H1286     1.0  0.39013  0.77690  0.06115  1.0000
  C   C756      1.0  0.29057  0.85390  0.08696  1.0000
  C   C757      1.0  0.27073  0.78980  0.98527  1.0000
  C   C758      1.0  0.22199  0.78496  0.05129  1.0000
  H   H1287     1.0  0.29291  0.83961  0.03952  1.0000
  H   H1288     1.0  0.27414  0.80189  0.98600  1.0000
  C   C759      1.0  0.18421  0.79235  0.08719  1.0000
  C   C760      1.0  0.45298  0.82394  0.10116  1.0000
  C   C761      1.0  0.43502  0.82336  0.10575  1.0000
  C   C762      1.0  0.42640  0.82313  0.09315  1.0000
  C   C763      1.0  0.43586  0.82270  0.07605  1.0000
  C   C764      1.0  0.45401  0.82255  0.07161  1.0000
  C   C765      1.0  0.46248  0.82362  0.08402  1.0000
  H   H1289     1.0  0.42765  0.82356  0.11901  1.0000
  H   H1290     1.0  0.41247  0.82318  0.09676  1.0000
  H   H1291     1.0  0.46149  0.82182  0.05848  1.0000
  H   H1292     1.0  0.47640  0.82385  0.08043  1.0000
  C   C766      1.0  0.06133  0.78652  0.18969  1.0000
  H   H1293     1.0  0.03191  0.95339  0.22569  1.0000
  H   H1294     1.0  0.31939  0.76774  0.09067  1.0000
  N   N52       1.0  0.19407  0.75959  0.10183  1.0000
  C   C767      1.0  0.43753  0.76253  0.02525  1.0000
  H   H1295     1.0  0.07135  0.84814  0.29302  1.0000
  H   H1296     1.0  0.28019  0.91415  0.09985  1.0000
  N   N53       1.0  0.48724  0.93052  0.05100  1.0000
  C   C768      1.0  0.23270  0.75192  0.04279  1.0000
  H   H1297     1.0  0.01792  0.74075  0.29233  1.0000
  H   H1298     1.0  0.41774  0.87563  0.11447  1.0000
  H   H1299     1.0  0.08839  0.88628  0.30902  1.0000
  H   H1300     1.0  0.02013  0.81330  0.21603  1.0000
  H   H1301     1.0  0.48984  0.91053  0.08558  1.0000
  H   H1302     1.0  0.29141  0.75247  0.11814  1.0000
  C   C769      1.0  0.43611  0.74841  0.07435  1.0000
  C   C770      1.0  0.17697  0.81703  0.14133  1.0000
  C   C771      1.0  0.41635  0.75839  0.10009  1.0000
  C   C772      1.0  0.04598  0.75524  0.23841  1.0000
  H   H1303     1.0  0.29476  0.83136  0.06217  1.0000
  H   H1304     1.0  0.27286  0.85480  0.07117  1.0000
  H   H1305     1.0  0.13560  0.91020  0.14061  1.0000
  C   C773      1.0  0.41033  0.78363  0.02129  1.0000
  C   C774      1.0  0.22694  0.74398  0.10070  1.0000
  Fe  Fe113     1.0  0.34162  0.74153  0.01704  1.0000
  N   N54       1.0  0.42615  0.76437  0.08164  1.0000
  S   S224      1.0  0.35136  0.76059  0.02541  1.0000
  H   H1306     1.0  0.40287  0.79701  0.01919  1.0000
  H   H1307     1.0  0.29259  0.77201  0.05740  1.0000
  N   N55       1.0  0.28637  0.77450  0.98675  1.0000
  C   C775      1.0  0.04479  0.78215  0.19339  1.0000
  H   H1308     1.0  0.05355  0.81597  0.28592  1.0000
  C   C776      1.0  0.21542  0.76156  0.04253  1.0000
  H   H1309     1.0  0.42061  0.76189  0.98363  1.0000
  C   C777      1.0  0.39860  0.76735  0.06976  1.0000
  H   H1310     1.0  0.01709  0.73363  0.26478  1.0000
  S   S225      1.0  0.48549  0.76462  0.01139  1.0000
  H   H1311     1.0  0.47126  0.92430  0.09637  1.0000
  H   H1312     1.0  0.16002  0.86727  0.23610  1.0000
  C   C778      1.0  0.41091  0.75257  0.02806  1.0000
  C   C779      1.0  0.30496  0.76926  0.06213  1.0000
  H   H1313     1.0  0.38784  0.77295  0.02388  1.0000
  C   C780      1.0  0.42836  0.77998  0.02135  1.0000
  H   H1314     1.0  0.45110  0.83921  0.02932  1.0000
  S   S226      1.0  0.23617  0.78955  0.10596  1.0000
  H   H1315     1.0  0.13510  0.81930  0.28231  1.0000
  C   C781      1.0  0.29953  0.96360  0.11159  1.0000
  H   H1316     1.0  0.25379  0.77611  0.00951  1.0000
  C   C782      1.0  0.04821  0.81020  0.20493  1.0000
  S   S227      1.0  0.00927  0.78556  0.20910  1.0000
  H   H1317     1.0  0.07282  0.77899  0.18233  1.0000
  C   C783      1.0  0.30024  0.80496  0.10122  1.0000
  C   C784      1.0  0.15169  0.82202  0.16542  1.0000
  H   H1318     1.0  0.40852  0.74880  0.10076  1.0000
  H   H1319     1.0  0.47697  0.90720  0.05629  1.0000
  H   H1320     1.0  0.29819  0.79571  0.06756  1.0000
  C   C785      1.0  0.30742  0.86623  0.12678  1.0000
  C   C786      1.0  0.42873  0.74883  0.02892  1.0000
  C   C787      1.0  0.31653  0.89726  0.13409  1.0000
  C   C788      1.0  0.08642  0.77362  0.23442  1.0000
  H   H1321     1.0  0.04530  0.76078  0.22451  1.0000
  H   H1322     1.0  0.06056  0.77588  0.25163  1.0000
  H   H1323     1.0  0.19851  0.87145  0.13978  1.0000
  C   C789      1.0  0.40372  0.77311  0.10893  1.0000
  H   H1324     1.0  0.32347  0.81093  0.08180  1.0000
  H   H1325     1.0  0.24819  0.79937  0.00516  1.0000
  Fe  Fe114     1.0  0.21368  0.81310  0.10689  1.0000
  C   C790      1.0  0.21017  0.77821  0.04652  1.0000
  H   H1326     1.0  0.16815  0.77289  0.09668  1.0000
  H   H1327     1.0  0.10966  0.87929  0.24339  1.0000
  C   C791      1.0  0.18846  0.74237  0.10618  1.0000
  C   C792      1.0  0.03080  0.76694  0.24916  1.0000
  C   C793      1.0  0.29535  0.77441  0.00067  1.0000
  S   S228      1.0  0.38097  0.81520  0.05536  1.0000
  C   C794      1.0  0.30908  0.78728  0.05995  1.0000
  H   H1328     1.0  0.24267  0.78823  0.99225  1.0000
  H   H1329     1.0  0.15635  0.87954  0.28386  1.0000
  C   C795      1.0  0.28155  0.75699  0.99038  1.0000
  N   N56       1.0  0.30078  0.89926  0.12660  1.0000
  C   C796      1.0  0.28582  0.91385  0.13228  1.0000
  H   H1330     1.0  0.31995  0.86298  0.13127  1.0000
  H   H1331     1.0  0.32701  0.92028  0.11736  1.0000
  C   C797      1.0  0.29439  0.88235  0.13299  1.0000
  C   C798      1.0  0.27942  0.91243  0.15218  1.0000
  H   H1332     1.0  0.30990  0.91666  0.10229  1.0000
  C   C799      1.0  0.29254  0.90421  0.09689  1.0000
  C   C800      1.0  0.33056  0.79031  0.10349  1.0000
  H   H1333     1.0  0.28930  0.92686  0.12627  1.0000
  H   H1334     1.0  0.27393  0.91455  0.12755  1.0000
  H   H1335     1.0  0.43292  0.83196  0.98940  1.0000
  Fe  Fe115     1.0  0.22389  0.97862  0.09056  1.0000
  H   H1336     1.0  0.27357  0.78561  0.02040  1.0000
  H   H1337     1.0  0.43391  0.84065  0.01916  1.0000
  H   H1338     1.0  0.29139  0.87861  0.14751  1.0000
  H   H1339     1.0  0.28168  0.88395  0.12923  1.0000
  H   H1340     1.0  0.25744  0.75077  0.04864  1.0000
  H   H1341     1.0  0.26915  0.92441  0.15454  1.0000
  H   H1342     1.0  0.27305  0.90111  0.15865  1.0000
  S   S229      1.0  0.08451  0.80425  0.19191  1.0000
  H   H1343     1.0  0.29809  0.90818  0.08268  1.0000
  H   H1344     1.0  0.47144  0.91972  0.02212  1.0000
  S   S230      1.0  0.99774  0.74259  0.23569  1.0000
  S   S231      1.0  0.25403  0.78240  0.05893  1.0000
  Fe  Fe116     1.0  0.37601  0.96156  0.09555  1.0000
  H   H1345     1.0  0.35499  0.81781  0.03636  1.0000
  H   H1346     1.0  0.45123  0.75956  0.02593  1.0000
  H   H1347     1.0  0.44101  0.92647  0.11261  1.0000
  H   H1348     1.0  0.46618  0.88229  0.04516  1.0000
  H   H1349     1.0  0.31531  0.87215  0.07457  1.0000
  C   C801      1.0  0.26821  0.89258  0.04095  1.0000
  H   H1350     1.0  0.16515  0.85812  0.26438  1.0000
  H   H1351     1.0  0.26914  0.76359  0.11755  1.0000
  N   N57       1.0  0.30297  0.75792  0.08034  1.0000
  H   H1352     1.0  0.46906  0.96469  0.10822  1.0000
  H   H1353     1.0  0.31512  0.85800  0.03483  1.0000
  H   H1354     1.0  0.08621  0.78714  0.23506  1.0000
  H   H1355     1.0  0.06082  0.78089  0.22902  1.0000
  H   H1356     1.0  0.21785  0.79775  0.05445  1.0000
  H   H1357     1.0  0.32170  0.78616  0.06352  1.0000
  C   C802      1.0  0.03162  0.80583  0.20862  1.0000
  H   H1358     1.0  0.31392  0.89132  0.14834  1.0000
  C   C803      1.0  0.30111  0.74027  0.07952  1.0000
  H   H1359     1.0  0.31876  0.89436  0.10224  1.0000
  C   C804      1.0  0.28115  0.75574  0.11041  1.0000
  H   H1360     1.0  0.46263  0.76639  0.06253  1.0000
  H   H1361     1.0  0.25914  0.76481  0.97713  1.0000
  H   H1362     1.0  0.31044  0.79417  0.04598  1.0000
  H   H1363     1.0  0.44536  0.76937  0.09288  1.0000
  H   H1364     1.0  0.15787  0.85737  0.29599  1.0000
  H   H1365     1.0  0.45666  0.74224  0.08999  1.0000
  S   S232      1.0  0.10895  0.81520  0.22018  1.0000
  H   H1366     1.0  0.18505  0.79854  0.07310  1.0000
  C   C805      1.0  0.04949  0.80390  0.29475  1.0000
  C   C806      1.0  0.30639  0.90363  0.10694  1.0000
  H   H1367     1.0  0.04358  0.77139  0.18882  1.0000
  H   H1368     1.0  0.45027  0.85313  0.00765  1.0000
  C   C807      1.0  0.33706  0.74873  0.07638  1.0000
  C   C808      1.0  0.21300  0.75798  0.09171  1.0000
  H   H1369     1.0  0.12809  0.84988  0.24590  1.0000
  C   C809      1.0  0.30152  0.83707  0.04882  1.0000
  C   C810      1.0  0.47679  0.91923  0.08423  1.0000
  H   H1370     1.0  0.21725  0.77057  0.08866  1.0000
  H   H1371     1.0  0.29103  0.81454  0.09409  1.0000
  C   C811      1.0  0.45500  0.98015  0.07011  1.0000
  H   H1372     1.0  0.03798  0.94895  0.24644  1.0000
  H   H1373     1.0  0.46440  0.94261  0.06852  1.0000
  C   C812      1.0  0.19581  0.96924  0.16818  1.0000
  H   H1374     1.0  0.16366  0.89862  0.23224  1.0000
  C   C813      1.0  0.45285  0.77858  0.06497  1.0000
  H   H1375     1.0  0.17416  0.77302  0.14147  1.0000
  H   H1376     1.0  0.47203  0.85914  0.01655  1.0000
  H   H1377     1.0  0.46689  0.95151  0.02412  1.0000
  H   H1378     1.0  0.05658  0.96608  0.23588  1.0000
  H   H1379     1.0  0.29012  0.91174  0.15856  1.0000
  H   H1380     1.0  0.24009  0.74369  0.09154  1.0000
  N   N58       1.0  0.06443  0.75318  0.24087  1.0000
  C   C814      1.0  0.14212  0.89243  0.25482  1.0000
  H   H1381     1.0  0.08392  0.91487  0.29989  1.0000
  H   H1382     1.0  0.44222  0.75206  0.06019  1.0000
  H   H1383     1.0  0.18480  0.76996  0.07773  1.0000
  C   C815      1.0  0.44899  0.86412  0.04805  1.0000
  H   H1384     1.0  0.41659  0.88282  0.05397  1.0000
  H   H1385     1.0  0.43083  0.89785  0.04568  1.0000
  C   C816      1.0  0.02991  0.79164  0.20308  1.0000
  H   H1386     1.0  0.04947  0.82097  0.20947  1.0000
  H   H1387     1.0  0.14202  0.92838  0.14424  1.0000
  H   H1388     1.0  0.12013  0.93049  0.14197  1.0000
  H   H1389     1.0  0.16281  0.88754  0.19648  1.0000
  H   H1390     1.0  0.40379  0.75555  0.06411  1.0000
  H   H1391     1.0  0.45932  0.85306  0.04374  1.0000
  H   H1392     1.0  0.13821  0.86467  0.13241  1.0000
  S   S233      1.0  0.35350  0.78671  0.09479  1.0000
  S   S234      1.0  0.43886  0.79750  0.01700  1.0000
  H   H1393     1.0  0.16290  0.90633  0.25117  1.0000
  H   H1394     1.0  0.44869  0.85242  0.16028  1.0000
  H   H1395     1.0  0.19294  0.88969  0.08123  1.0000
  H   H1396     1.0  0.20022  0.88340  0.10931  1.0000
  C   C817      1.0  0.42501  0.88901  0.04180  1.0000
  H   H1397     1.0  0.43167  0.85783  0.14034  1.0000
  H   H1398     1.0  0.45486  0.86408  0.17227  1.0000
  H   H1399     1.0  0.41242  0.87807  0.15566  1.0000
  C   C818      1.0  0.16115  0.89530  0.24675  1.0000
  C   C819      1.0  0.44537  0.86514  0.16425  1.0000
  H   H1400     1.0  0.43195  0.86713  0.17281  1.0000
  C   C820      1.0  0.43184  0.86924  0.11338  1.0000
  C   C821      1.0  0.30588  0.78191  0.12644  1.0000
  H   H1401     1.0  0.43320  0.85596  0.11146  1.0000
  H   H1402     1.0  0.23679  0.73901  0.03987  1.0000
  C   C822      1.0  0.31721  0.87957  0.06089  1.0000
  H   H1403     1.0  0.30496  0.89067  0.03921  1.0000
  H   H1404     1.0  0.27506  0.90367  0.03547  1.0000
  H   H1405     1.0  0.32907  0.87255  0.05281  1.0000
  C   C823      1.0  0.29388  0.79448  0.11735  1.0000
  H   H1406     1.0  0.39513  0.88694  0.13551  1.0000
  H   H1407     1.0  0.20087  0.85919  0.09603  1.0000
  C   C824      1.0  0.30077  0.88379  0.05306  1.0000
  H   H1408     1.0  0.28930  0.89129  0.09928  1.0000
  S   S235      1.0  0.35358  0.85531  0.02607  1.0000
  H   H1409     1.0  0.34508  0.86079  0.99308  1.0000
  C   C825      1.0  0.41658  0.88954  0.14576  1.0000
  H   H1410     1.0  0.45261  0.86117  0.12718  1.0000
  C   C826      1.0  0.31859  0.80300  0.09435  1.0000
  H   H1411     1.0  0.32037  0.89207  0.06073  1.0000
  H   H1412     1.0  0.03021  0.76257  0.26336  1.0000
  H   H1413     1.0  0.40294  0.89422  0.02871  1.0000
  S   S236      1.0  0.49045  0.89239  0.12221  1.0000
  H   H1414     1.0  0.03161  0.78095  0.24474  1.0000
  C   C827      1.0  0.44751  0.88064  0.14834  1.0000
  H   H1415     1.0  0.15925  0.91313  0.09928  1.0000
  C   C828      1.0  0.05687  0.76343  0.30873  1.0000
  H   H1416     1.0  0.04243  0.74229  0.24149  1.0000
  C   C829      1.0  0.47668  0.92014  0.04688  1.0000
  C   C830      1.0  0.43853  0.77519  0.08183  1.0000
  S   S237      1.0  0.10542  0.84451  0.18324  1.0000
  C   C831      1.0  0.28143  0.86326  0.07155  1.0000
  H   H1417     1.0  0.12016  0.92712  0.17267  1.0000
  C   C832      1.0  0.30753  0.85363  0.04834  1.0000
  N   N59       1.0  0.43543  0.88429  0.13596  1.0000
  C   C833      1.0  0.40200  0.89721  0.13508  1.0000
  H   H1418     1.0  0.41546  0.89903  0.15375  1.0000
  C   C834      1.0  0.17892  0.89136  0.08879  1.0000
  H   H1419     1.0  0.44002  0.87604  0.10147  1.0000
  H   H1420     1.0  0.16506  0.86041  0.08835  1.0000
  H   H1421     1.0  0.11528  0.89400  0.19647  1.0000
  H   H1422     1.0  0.46163  0.87781  0.14132  1.0000
  C   C835      1.0  0.28687  0.76679  0.09193  1.0000
  H   H1423     1.0  0.30377  0.84551  0.08335  1.0000
  H   H1424     1.0  0.27174  0.87490  0.07560  1.0000
  H   H1425     1.0  0.25872  0.89429  0.03271  1.0000
  S   S238      1.0  0.07953  0.83453  0.26244  1.0000
  C   C836      1.0  0.09303  0.83467  0.27587  1.0000
  C   C837      1.0  0.34672  0.84692  0.99904  1.0000
  H   H1426     1.0  0.44577  0.89232  0.15370  1.0000
  H   H1427     1.0  0.39197  0.90778  0.14077  1.0000
  C   C838      1.0  0.18634  0.86001  0.10095  1.0000
  H   H1428     1.0  0.46038  0.78744  0.06638  1.0000
  H   H1429     1.0  0.29368  0.74628  0.99025  1.0000
  C   C839      1.0  0.27179  0.75502  0.97755  1.0000
  C   C840      1.0  0.31888  0.75537  0.08777  1.0000
  C   C841      1.0  0.17957  0.85580  0.08700  1.0000
  H   H1430     1.0  0.17117  0.89004  0.08006  1.0000
  H   H1431     1.0  0.18632  0.86172  0.07366  1.0000
  H   H1432     1.0  0.11244  0.91029  0.16939  1.0000
  H   H1433     1.0  0.15357  0.88843  0.15598  1.0000
  C   C842      1.0  0.43036  0.86390  0.02891  1.0000
  C   C843      1.0  0.15921  0.81684  0.14945  1.0000
  H   H1434     1.0  0.47986  0.87791  0.01637  1.0000
  H   H1435     1.0  0.40660  0.90343  0.12128  1.0000
  C   C844      1.0  0.12847  0.89631  0.19567  1.0000
  C   C845      1.0  0.13074  0.87689  0.16782  1.0000
  H   H1436     1.0  0.13553  0.88345  0.20232  1.0000
  H   H1437     1.0  0.12285  0.88525  0.15815  1.0000
  C   C846      1.0  0.18700  0.88124  0.11703  1.0000
  C   C847      1.0  0.16181  0.82758  0.17334  1.0000
  H   H1438     1.0  0.13762  0.90982  0.21028  1.0000
  C   C848      1.0  0.45118  0.88415  0.01812  1.0000
  H   H1439     1.0  0.31754  0.84923  0.05641  1.0000
  C   C849      1.0  0.28140  0.87471  0.04058  1.0000
  H   H1440     1.0  0.33822  0.73568  0.07392  1.0000
  Fe  Fe117     1.0  0.12291  0.83620  0.20239  1.0000
  H   H1441     1.0  0.42689  0.74032  0.07472  1.0000
  S   S239      1.0  0.10727  0.85638  0.21796  1.0000
  C   C850      1.0  0.12471  0.91508  0.16730  1.0000
  C   C851      1.0  0.14491  0.88551  0.16918  1.0000
  C   C852      1.0  0.12520  0.90967  0.20704  1.0000
  Fe  Fe118     1.0  0.08881  0.86339  0.19993  1.0000
  Fe  Fe119     1.0  0.09013  0.82495  0.20195  1.0000
  S   S240      1.0  0.15231  0.83496  0.19297  1.0000
  N   N60       1.0  0.29299  0.86863  0.05379  1.0000
  H   H1442     1.0  0.28961  0.87577  0.02699  1.0000
  H   H1443     1.0  0.29147  0.86345  0.09386  1.0000
  H   H1444     1.0  0.31538  0.76226  0.05269  1.0000
  C   C853      1.0  0.44106  0.89859  0.12069  1.0000
  N   N61       1.0  0.17728  0.87751  0.10560  1.0000
  S   S241      1.0  0.22905  0.82951  0.11190  1.0000
  N   N62       1.0  0.13789  0.90156  0.17686  1.0000
  H   H1445     1.0  0.33489  0.91095  0.13693  1.0000
  H   H1446     1.0  0.27332  0.75353  0.00362  1.0000
  H   H1447     1.0  0.09507  0.73383  0.25279  1.0000
  H   H1448     1.0  0.44701  0.78522  0.05339  1.0000
  Fe  Fe120     1.0  0.24308  0.80094  0.07722  1.0000
  H   H1449     1.0  0.43392  0.90123  0.11015  1.0000
  H   H1450     1.0  0.45523  0.89433  0.11434  1.0000
  S   S242      1.0  0.48325  0.80447  0.98676  1.0000
  H   H1451     1.0  0.18519  0.84906  0.11260  1.0000
  H   H1452     1.0  0.18267  0.84138  0.08823  1.0000
  H   H1453     1.0  0.07591  0.77494  0.27770  1.0000
  C   C854      1.0  0.13129  0.92117  0.14741  1.0000
  H   H1454     1.0  0.15362  0.87514  0.17713  1.0000
  H   H1455     1.0  0.13734  0.86438  0.16357  1.0000
  H   H1456     1.0  0.42242  0.87182  0.01910  1.0000
  H   H1457     1.0  0.07656  0.79747  0.26695  1.0000
  H   H1458     1.0  0.28059  0.97745  0.05375  1.0000
  C   C855      1.0  0.39549  0.81021  0.98292  1.0000
  H   H1459     1.0  0.28600  0.96759  0.11846  1.0000
  H   H1460     1.0  0.35331  0.79713  0.01999  1.0000
  Fe  Fe121     1.0  0.09136  0.83646  0.23369  1.0000
  H   H1461     1.0  0.14869  0.92227  0.17920  1.0000
  H   H1462     1.0  0.42537  0.92128  0.13239  1.0000
  H   H1463     1.0  0.44891  0.91610  0.13209  1.0000
  S   S243      1.0  0.42536  0.82217  0.06008  1.0000
  H   H1464     1.0  0.18004  0.89361  0.12152  1.0000
  H   H1465     1.0  0.18220  0.91429  0.09597  1.0000
  Fe  Fe122     1.0  0.37117  0.74049  0.98463  1.0000
  Fe  Fe123     1.0  0.23640  0.83795  0.08271  1.0000
  H   H1466     1.0  0.41942  0.90737  0.01720  1.0000
  H   H1467     1.0  0.31342  0.82697  0.04483  1.0000
  H   H1468     1.0  0.14767  0.84670  0.22930  1.0000
  H   H1469     1.0  0.44697  0.73706  0.99795  1.0000
  S   S244      1.0  0.07149  0.84485  0.21672  1.0000
  H   H1470     1.0  0.32817  0.88793  0.12824  1.0000
  C   C856      1.0  0.17966  0.82757  0.16533  1.0000
  H   H1471     1.0  0.43577  0.73534  0.03223  1.0000
  S   S245      1.0  0.21201  0.98058  0.15420  1.0000
  C   C857      1.0  0.32413  0.77966  0.11942  1.0000
  C   C858      1.0  0.11099  0.82647  0.27289  1.0000
  C   C859      1.0  0.43887  0.91648  0.12500  1.0000
  S   S246      1.0  0.27107  0.79622  0.12633  1.0000
  H   H1472     1.0  0.39813  0.79570  0.98496  1.0000
  C   C860      1.0  0.15326  0.90940  0.17533  1.0000
  H   H1473     1.0  0.20106  0.82201  0.14347  1.0000
  H   H1474     1.0  0.27528  0.77150  0.08571  1.0000
  H   H1475     1.0  0.04840  0.79631  0.28591  1.0000
  C   C861      1.0  0.09539  0.84088  0.30247  1.0000
  C   C862      1.0  0.34554  0.83526  0.98987  1.0000
  C   C863      1.0  0.12117  0.82557  0.28466  1.0000
  H   H1476     1.0  0.14957  0.88324  0.10428  1.0000
  H   H1477     1.0  0.07567  0.75362  0.21347  1.0000
  H   H1478     1.0  0.16034  0.91276  0.16145  1.0000
  H   H1479     1.0  0.44481  0.88857  0.00670  1.0000
  H   H1480     1.0  0.31054  0.86797  0.11238  1.0000
  C   C864      1.0  0.15788  0.87865  0.11422  1.0000
  H   H1481     1.0  0.09651  0.78173  0.26970  1.0000
  C   C865      1.0  0.35047  0.84063  0.01567  1.0000
  C   C866      1.0  0.16766  0.89761  0.18525  1.0000
  H   H1482     1.0  0.17888  0.89080  0.17630  1.0000
  H   H1483     1.0  0.18480  0.74221  0.08029  1.0000
  S   S247      1.0  0.34846  0.96749  0.11253  1.0000
  H   H1484     1.0  0.30738  0.97494  0.06183  1.0000
  H   H1485     1.0  0.28249  0.84485  0.09651  1.0000
  C   C867      1.0  0.31352  0.96735  0.11609  1.0000
  H   H1486     1.0  0.43095  0.78828  0.08427  1.0000
  H   H1487     1.0  0.49310  0.92304  0.01948  1.0000
  C   C868      1.0  0.07813  0.94149  0.30169  1.0000
  H   H1488     1.0  0.05631  0.74845  0.26909  1.0000
  H   H1489     1.0  0.17276  0.90585  0.19067  1.0000
  H   H1490     1.0  0.11641  0.87878  0.27898  1.0000
  H   H1491     1.0  0.14931  0.83923  0.25165  1.0000
  H   H1492     1.0  0.13653  0.87112  0.29508  1.0000
  H   H1493     1.0  0.19687  0.78579  0.04609  1.0000
  C   C869      1.0  0.17203  0.96618  0.19430  1.0000
  C   C870      1.0  0.06315  0.80043  0.19556  1.0000
  H   H1494     1.0  0.11695  0.82061  0.26165  1.0000
  H   H1495     1.0  0.15306  0.88871  0.12228  1.0000
  Fe  Fe124     1.0  0.36287  0.81170  0.08191  1.0000
  H   H1496     1.0  0.13654  0.89825  0.26657  1.0000
  H   H1497     1.0  0.38758  0.82880  0.01537  1.0000
  S   S248      1.0  0.31631  0.73357  0.03337  1.0000
  H   H1498     1.0  0.30064  0.78642  0.99760  1.0000
  H   H1499     1.0  0.19598  0.79387  0.09054  1.0000
  Fe  Fe125     1.0  0.25230  0.80697  0.10820  1.0000
  H   H1500     1.0  0.30131  0.85462  0.13239  1.0000
  H   H1501     1.0  0.29270  0.77262  0.02810  1.0000
  H   H1502     1.0  0.38618  0.81360  0.99492  1.0000
  H   H1503     1.0  0.08976  0.94247  0.29059  1.0000
  H   H1504     1.0  0.17219  0.80027  0.09425  1.0000
  Fe  Fe126     1.0  0.46852  0.79137  0.01245  1.0000
  C   C871      1.0  0.14560  0.86794  0.24156  1.0000
  S   S249      1.0  0.26093  0.81669  0.07939  1.0000
  C   C872      1.0  0.34809  0.81727  0.99731  1.0000
  H   H1505     1.0  0.11877  0.85997  0.27123  1.0000
  H   H1506     1.0  0.09384  0.88187  0.26309  1.0000
  H   H1507     1.0  0.31246  0.73452  0.06990  1.0000
  N   N63       1.0  0.13988  0.87388  0.25856  1.0000
  S   S250      1.0  0.21927  0.82313  0.07772  1.0000
  H   H1508     1.0  0.48850  0.90184  0.02930  1.0000
  C   C873      1.0  0.06719  0.77122  0.23932  1.0000
  H   H1509     1.0  0.18765  0.83163  0.17148  1.0000
  S   S251      1.0  0.34787  0.80296  0.98493  1.0000
  H   H1510     1.0  0.15392  0.85178  0.11830  1.0000
  C   C874      1.0  0.12071  0.87358  0.26689  1.0000
  C   C875      1.0  0.03817  0.96541  0.27035  1.0000
  H   H1511     1.0  0.10636  0.89826  0.25250  1.0000
  C   C876      1.0  0.08236  0.78575  0.27611  1.0000
  C   C877      1.0  0.39859  0.83562  0.00869  1.0000
  H   H1512     1.0  0.15120  0.81272  0.14337  1.0000
  H   H1513     1.0  0.13807  0.82154  0.17165  1.0000
  C   C878      1.0  0.01956  0.97513  0.23934  1.0000
  C   C879      1.0  0.35242  0.82271  0.02339  1.0000
  C   C880      1.0  0.05064  0.98003  0.23108  1.0000
  C   C881      1.0  0.19025  0.86720  0.13357  1.0000
  C   C882      1.0  0.15246  0.86161  0.12594  1.0000
  C   C883      1.0  0.15098  0.86157  0.27104  1.0000
  C   C884      1.0  0.02730  0.95543  0.23927  1.0000
  H   H1514     1.0  0.13899  0.87766  0.23149  1.0000
  S   S252      1.0  0.18559  0.81132  0.12084  1.0000
  C   C885      1.0  0.10736  0.96827  0.29893  1.0000
  C   C886      1.0  0.11339  0.83285  0.29942  1.0000
  C   C887      1.0  0.10717  0.88393  0.25555  1.0000
  C   C888      1.0  0.35134  0.81100  0.01417  1.0000
  C   C889      1.0  0.07724  0.74494  0.22646  1.0000
  H   H1515     1.0  0.41818  0.73511  0.99695  1.0000
  S   S253      1.0  0.48371  0.79793  0.02809  1.0000
  H   H1516     1.0  0.16443  0.97017  0.20627  1.0000
  C   C890      1.0  0.08131  0.79021  0.29359  1.0000
  H   H1517     1.0  0.01492  0.98097  0.22689  1.0000
  H   H1518     1.0  0.41107  0.82637  0.01084  1.0000
  S   S254      1.0  0.19982  0.75227  0.03903  1.0000
  C   C891      1.0  0.46948  0.97023  0.09445  1.0000
  H   H1519     1.0  0.46766  0.91153  0.08367  1.0000
  C   C892      1.0  0.06558  0.74183  0.25878  1.0000
  H   H1520     1.0  0.11247  0.90896  0.30624  1.0000
  H   H1521     1.0  0.11003  0.98033  0.17749  1.0000
  C   C893      1.0  0.09509  0.98309  0.29275  1.0000
  S   S255      1.0  0.43483  0.96783  0.10225  1.0000
  H   H1522     1.0  0.09050  0.77941  0.30060  1.0000
  H   H1523     1.0  0.08554  0.74617  0.26978  1.0000
  H   H1524     1.0  0.19962  0.75378  0.12757  1.0000
  H   H1525     1.0  0.27758  0.74364  0.11014  1.0000
  C   C894      1.0  0.41312  0.81578  0.97975  1.0000
  H   H1526     1.0  0.13114  0.97791  0.16278  1.0000
  H   H1527     1.0  0.26865  0.74183  0.98193  1.0000
  C   C895      1.0  0.08374  0.73633  0.26376  1.0000
  H   H1528     1.0  0.44333  0.76393  0.97806  1.0000
  C   C896      1.0  0.28442  0.74014  0.07385  1.0000
  Fe  Fe127     1.0  0.37828  0.74384  0.01753  1.0000
  H   H1529     1.0  0.34755  0.74730  0.08339  1.0000
  H   H1530     1.0  0.00741  0.97610  0.24999  1.0000
  C   C897      1.0  0.45036  0.73569  0.08397  1.0000
  C   C898      1.0  0.47097  0.95810  0.03205  1.0000
  H   H1531     1.0  0.16640  0.75897  0.13338  1.0000
  H   H1532     1.0  0.27208  0.74756  0.08087  1.0000
  H   H1533     1.0  0.33733  0.97659  0.04400  1.0000
  C   C899      1.0  0.39774  0.84380  0.98932  1.0000
  H   H1534     1.0  0.31793  0.74580  0.10056  1.0000
  C   C900      1.0  0.18600  0.97425  0.18383  1.0000
  S   S256      1.0  0.40016  0.73543  0.03209  1.0000
  H   H1535     1.0  0.06649  0.97550  0.20570  1.0000
  H   H1536     1.0  0.03851  0.96652  0.28349  1.0000
  H   H1537     1.0  0.05177  0.95914  0.26449  1.0000
  S   S257      1.0  0.12600  0.97798  0.23358  1.0000
  H   H1538     1.0  0.28557  0.74549  0.05961  1.0000
  H   H1539     1.0  0.38441  0.84376  0.98788  1.0000
  N   N64       1.0  0.06318  0.79396  0.30543  1.0000
  C   C901      1.0  0.48838  0.94752  0.03764  1.0000
  H   H1540     1.0  0.47304  0.97107  0.02372  1.0000
  C   C902      1.0  0.48590  0.98140  0.06547  1.0000
  S   S258      1.0  0.39117  0.98294  0.08249  1.0000
  H   H1541     1.0  0.44340  0.98225  0.06499  1.0000
  C   C903      1.0  0.42956  0.83820  0.97643  1.0000
  N   N65       1.0  0.41204  0.83525  0.97597  1.0000
  H   H1542     1.0  0.06385  0.81917  0.30896  1.0000
  C   C904      1.0  0.19171  0.73367  0.09066  1.0000
  C   C905      1.0  0.05322  0.98298  0.21111  1.0000
  C   C906      1.0  0.03506  0.95738  0.48627  1.0000
  N   N66       1.0  0.03760  0.74920  0.42023  1.0000
  H   H1543     1.0  0.08539  0.94889  0.59405  1.0000
  Fe  Fe128     1.0  0.06439  0.83818  0.49773  1.0000
  S   S259      1.0  0.08499  0.81542  0.50754  1.0000
  S   S260      1.0  0.03891  0.83652  0.49299  1.0000
  Fe  Fe129     1.0  0.08460  0.86488  0.49602  1.0000
  S   S261      1.0  0.10703  0.84458  0.50561  1.0000
  S   S262      1.0  0.08658  0.89304  0.48782  1.0000
  Fe  Fe130     1.0  0.10420  0.82999  0.48733  1.0000
  S   S263      1.0  0.12890  0.81673  0.47100  1.0000
  Fe  Fe131     1.0  0.08576  0.83212  0.52495  1.0000
  S   S264      1.0  0.08545  0.82029  0.55351  1.0000
  S   S265      1.0  0.08353  0.85139  0.47606  1.0000
  S   S266      1.0  0.06336  0.85373  0.51684  1.0000
  Fe  Fe132     1.0  0.08275  0.95242  0.53794  1.0000
  S   S267      1.0  0.10896  0.95996  0.52597  1.0000
  S   S268      1.0  0.07993  0.92510  0.55171  1.0000
  Fe  Fe133     1.0  0.08618  0.85013  0.36880  1.0000
  H   H1544     1.0  0.06072  0.92667  0.39430  1.0000
  H   H1545     1.0  0.12047  0.73420  0.44392  1.0000
  Fe  Fe134     1.0  0.12094  0.82858  0.37655  1.0000
  S   S269      1.0  0.14281  0.82670  0.38935  1.0000
  H   H1546     1.0  0.14859  0.89948  0.60388  1.0000
  S   S270      1.0  0.09306  0.82807  0.39106  1.0000
  S   S271      1.0  0.08413  0.83284  0.35264  1.0000
  S   S272      1.0  0.06453  0.96517  0.41369  1.0000
  S   S273      1.0  0.09676  0.92651  0.39448  1.0000
  C   C907      1.0  0.02699  0.84826  0.44351  1.0000
  S   S274      1.0  0.00932  0.76854  0.61136  1.0000
  H   H1547     1.0  0.00481  0.79968  0.54043  1.0000
  Fe  Fe135     1.0  0.01181  0.76269  0.48137  1.0000
  S   S275      1.0  0.03904  0.73759  0.57984  1.0000
  H   H1548     1.0  0.06517  0.78737  0.55086  1.0000
  H   H1549     1.0  0.15232  0.77839  0.43371  1.0000
  Fe  Fe136     1.0  0.11160  0.85202  0.62115  1.0000
  H   H1550     1.0  0.04908  0.81108  0.56563  1.0000
  S   S276      1.0  0.11738  0.85832  0.59170  1.0000
  H   H1551     1.0  0.02146  0.83805  0.40864  1.0000
  C   C908      1.0  0.00832  0.84485  0.44676  1.0000
  H   H1552     1.0  0.09497  0.96190  0.57405  1.0000
  S   S277      1.0  0.03584  0.79893  0.61867  1.0000
  C   C909      1.0  0.01876  0.78092  0.41989  1.0000
  H   H1553     1.0  0.07049  0.83209  0.42593  1.0000
  C   C910      1.0  0.10850  0.97181  0.44365  1.0000
  H   H1554     1.0  0.15031  0.95297  0.56893  1.0000
  H   H1555     1.0  0.08703  0.77356  0.61246  1.0000
  H   H1556     1.0  0.12870  0.88949  0.56358  1.0000
  H   H1557     1.0  0.06419  0.86455  0.42184  1.0000
  H   H1558     1.0  0.14276  0.75476  0.43348  1.0000
  H   H1559     1.0  0.05081  0.81013  0.53105  1.0000
  H   H1560     1.0  0.01933  0.77881  0.43371  1.0000
  C   C911      1.0  0.09618  0.79412  0.44066  1.0000
  H   H1561     1.0  0.11988  0.89190  0.33567  1.0000
  S   S278      1.0  0.00921  0.76863  0.32286  1.0000
  H   H1562     1.0  0.01574  0.86158  0.40663  1.0000
  C   C912      1.0  0.02518  0.82304  0.54386  1.0000
  H   H1563     1.0  0.04872  0.75473  0.31866  1.0000
  H   H1564     1.0  0.02817  0.92549  0.45958  1.0000
  C   C913      1.0  0.08359  0.76461  0.62535  1.0000
  H   H1565     1.0  0.04503  0.76363  0.36210  1.0000
  H   H1566     1.0  0.14065  0.90507  0.57775  1.0000
  H   H1567     1.0  0.01547  0.79629  0.56906  1.0000
  C   C914      1.0  0.04731  0.77491  0.36496  1.0000
  C   C915      1.0  0.14298  0.77807  0.39801  1.0000
  C   C916      1.0  0.08056  0.92433  0.33962  1.0000
  H   H1568     1.0  0.07832  0.94943  0.31059  1.0000
  H   H1569     1.0  0.05130  0.80688  0.32721  1.0000
  C   C917      1.0  0.08711  0.90767  0.60162  1.0000
  H   H1570     1.0  0.02106  0.95643  0.48861  1.0000
  Fe  Fe137     1.0  0.09369  0.81075  0.37378  1.0000
  H   H1571     1.0  0.05664  0.93520  0.35689  1.0000
  H   H1572     1.0  0.06882  0.77032  0.32510  1.0000
  N   N67       1.0  0.04171  0.83908  0.43083  1.0000
  C   C918      1.0  0.09331  0.76694  0.63805  1.0000
  C   C919      1.0  0.12430  0.78366  0.40915  1.0000
  H   H1573     1.0  0.12392  0.79623  0.41211  1.0000
  H   H1574     1.0  0.02885  0.84004  0.62596  1.0000
  H   H1575     1.0  0.05003  0.92975  0.47225  1.0000
  Fe  Fe138     1.0  0.02811  0.77276  0.62491  1.0000
  H   H1576     1.0  0.08178  0.79793  0.44619  1.0000
  C   C920      1.0  0.07341  0.88738  0.38233  1.0000
  C   C921      1.0  0.09123  0.88336  0.38318  1.0000
  C   C922      1.0  0.09828  0.89538  0.38704  1.0000
  C   C923      1.0  0.08742  0.91127  0.39059  1.0000
  H   H1577     1.0  0.09971  0.87110  0.38068  1.0000
  H   H1578     1.0  0.11224  0.89246  0.38701  1.0000
  C   C924      1.0  0.06021  0.92899  0.34553  1.0000
  H   H1579     1.0  0.13783  0.77746  0.45459  1.0000
  H   H1580     1.0  0.05269  0.86266  0.44468  1.0000
  C   C925      1.0  0.09509  0.83045  0.56382  1.0000
  C   C926      1.0  0.09620  0.82339  0.58135  1.0000
  C   C927      1.0  0.10309  0.83177  0.59005  1.0000
  C   C928      1.0  0.10914  0.84713  0.58116  1.0000
  C   C929      1.0  0.10829  0.85401  0.56355  1.0000
  C   C930      1.0  0.10113  0.84581  0.55496  1.0000
  H   H1581     1.0  0.09168  0.81144  0.58821  1.0000
  H   H1582     1.0  0.10386  0.82630  0.60357  1.0000
  H   H1583     1.0  0.11289  0.86591  0.55661  1.0000
  H   H1584     1.0  0.10020  0.85147  0.54152  1.0000
  C   C931      1.0  0.13195  0.82183  0.44818  1.0000
  C   C932      1.0  0.14920  0.81813  0.43829  1.0000
  C   C933      1.0  0.15228  0.82040  0.42018  1.0000
  C   C934      1.0  0.13812  0.82620  0.41179  1.0000
  C   C935      1.0  0.12079  0.83059  0.42153  1.0000
  C   C936      1.0  0.11769  0.82837  0.43980  1.0000
  H   H1585     1.0  0.16025  0.81308  0.44471  1.0000
  H   H1586     1.0  0.16568  0.81709  0.41271  1.0000
  H   H1587     1.0  0.10983  0.83544  0.41506  1.0000
  H   H1588     1.0  0.10432  0.83110  0.44744  1.0000
  C   C937      1.0  0.08634  0.90043  0.50610  1.0000
  C   C938      1.0  0.09506  0.91377  0.50395  1.0000
  C   C939      1.0  0.09389  0.92064  0.51824  1.0000
  C   C940      1.0  0.08378  0.91440  0.53467  1.0000
  C   C941      1.0  0.07559  0.90064  0.53694  1.0000
  C   C942      1.0  0.07698  0.89354  0.52270  1.0000
  H   H1589     1.0  0.10264  0.91889  0.49124  1.0000
  H   H1590     1.0  0.10063  0.93098  0.51643  1.0000
  H   H1591     1.0  0.06759  0.89602  0.54949  1.0000
  H   H1592     1.0  0.07023  0.88324  0.52446  1.0000
  H   H1593     1.0  0.08566  0.91679  0.35153  1.0000
  H   H1594     1.0  0.11860  0.95990  0.44281  1.0000
  C   C943      1.0  0.05858  0.77725  0.31734  1.0000
  C   C944      1.0  0.12834  0.92429  0.59939  1.0000
  H   H1595     1.0  0.09508  0.96897  0.34222  1.0000
  C   C945      1.0  0.03926  0.78726  0.47671  1.0000
  C   C946      1.0  0.02354  0.79967  0.48022  1.0000
  C   C947      1.0  0.02360  0.81463  0.48542  1.0000
  C   C948      1.0  0.03943  0.81741  0.48684  1.0000
  C   C949      1.0  0.05529  0.80521  0.48298  1.0000
  C   C950      1.0  0.05519  0.79008  0.47796  1.0000
  H   H1596     1.0  0.01135  0.79802  0.47850  1.0000
  H   H1597     1.0  0.01134  0.82413  0.48823  1.0000
  H   H1598     1.0  0.06760  0.80742  0.48385  1.0000
  H   H1599     1.0  0.06737  0.78048  0.47526  1.0000
  H   H1600     1.0  0.03508  0.77770  0.52901  1.0000
  S   S279      1.0  0.11400  0.96732  0.47621  1.0000
  H   H1601     1.0  0.10847  0.92869  0.31297  1.0000
  C   C951      1.0  0.06237  0.90294  0.38655  1.0000
  Fe  Fe139     1.0  0.00001  0.75069  0.63692  1.0000
  C   C952      1.0  0.02197  0.73874  0.56985  1.0000
  H   H1602     1.0  0.06404  0.97233  0.46567  1.0000
  H   H1603     1.0  0.13106  0.90267  0.62282  1.0000
  Fe  Fe140     1.0  0.09748  0.97214  0.50218  1.0000
  H   H1604     1.0  0.08088  0.91766  0.59147  1.0000
  H   H1605     1.0  0.09076  0.77947  0.42528  1.0000
  H   H1606     1.0  0.10629  0.90267  0.61655  1.0000
  C   C953      1.0  0.02670  0.85012  0.40420  1.0000
  Fe  Fe141     1.0  0.11299  0.83235  0.34119  1.0000
  H   H1607     1.0  0.05874  0.79257  0.58010  1.0000
  C   C954      1.0  0.06289  0.77468  0.52539  1.0000
  S   S280      1.0  0.08346  0.85685  0.63601  1.0000
  H   H1608     1.0  0.00366  0.84734  0.43463  1.0000
  H   H1609     1.0  0.06514  0.81527  0.61134  1.0000
  C   C955      1.0  0.05279  0.75729  0.41898  1.0000
  H   H1610     1.0  0.15318  0.77241  0.40592  1.0000
  H   H1611     1.0  0.09292  0.89511  0.59735  1.0000
  H   H1612     1.0  0.10075  0.93156  0.57171  1.0000
  C   C956      1.0  0.06280  0.85578  0.43504  1.0000
  Fe  Fe142     1.0  0.08005  0.95394  0.39051  1.0000
  H   H1613     1.0  0.04849  0.90598  0.38627  1.0000
  H   H1614     1.0  0.12057  0.93867  0.56787  1.0000
  H   H1615     1.0  0.05399  0.93865  0.33518  1.0000
  C   C957      1.0  0.09984  0.77714  0.43419  1.0000
  C   C958      1.0  0.06524  0.78798  0.37513  1.0000
  H   H1616     1.0  0.03552  0.79689  0.58206  1.0000
  N   N68       1.0  0.11604  0.91903  0.59177  1.0000
  C   C959      1.0  0.05349  0.80419  0.37203  1.0000
  C   C960      1.0  0.04418  0.94133  0.46291  1.0000
  C   C961      1.0  0.03213  0.85150  0.62816  1.0000
  H   H1617     1.0  0.02967  0.81840  0.36303  1.0000
  H   H1618     1.0  0.09956  0.80532  0.43001  1.0000
  C   C962      1.0  0.03554  0.79118  0.36193  1.0000
  H   H1619     1.0  0.10675  0.90134  0.57019  1.0000
  H   H1620     1.0  0.01950  0.94837  0.45302  1.0000
  C   C963      1.0  0.04823  0.79740  0.57244  1.0000
  H   H1621     1.0  0.07357  0.76916  0.53278  1.0000
  C   C964      1.0  0.06935  0.91481  0.39082  1.0000
  S   S281      1.0  0.06995  0.97659  0.54859  1.0000
  S   S282      1.0  0.11420  0.85182  0.35526  1.0000
  H   H1622     1.0  0.09520  0.76739  0.44602  1.0000
  N   N69       1.0  0.04394  0.86449  0.59537  1.0000
  C   C965      1.0  0.04733  0.85805  0.61363  1.0000
  C   C966      1.0  0.06130  0.86720  0.58315  1.0000
  C   C967      1.0  0.03780  0.85041  0.59131  1.0000
  C   C968      1.0  0.02987  0.88121  0.59505  1.0000
  H   H1623     1.0  0.14848  0.98225  0.48111  1.0000
  C   C969      1.0  0.06932  0.88107  0.58594  1.0000
  C   C970      1.0  0.04001  0.85061  0.57189  1.0000
  C   C971      1.0  0.02585  0.89164  0.57716  1.0000
  H   H1624     1.0  0.05932  0.84718  0.61394  1.0000
  H   H1625     1.0  0.05032  0.86852  0.61795  1.0000
  H   H1626     1.0  0.06055  0.87073  0.56925  1.0000
  H   H1627     1.0  0.07128  0.85463  0.58432  1.0000
  H   H1628     1.0  0.04517  0.83713  0.59684  1.0000
  H   H1629     1.0  0.02359  0.85067  0.59767  1.0000
  H   H1630     1.0  0.01702  0.87843  0.60340  1.0000
  H   H1631     1.0  0.03274  0.89037  0.60128  1.0000
  H   H1632     1.0  0.12425  0.75821  0.45104  1.0000
  N   N70       1.0  0.08778  0.91426  0.32524  1.0000
  S   S283      1.0  0.11961  0.86892  0.63369  1.0000
  H   H1633     1.0  0.06021  0.89417  0.58496  1.0000
  H   H1634     1.0  0.07362  0.87682  0.59850  1.0000
  H   H1635     1.0  0.08144  0.88262  0.57555  1.0000
  H   H1636     1.0  0.03324  0.84081  0.57106  1.0000
  H   H1637     1.0  0.05417  0.84652  0.56559  1.0000
  H   H1638     1.0  0.03419  0.86339  0.56428  1.0000
  H   H1639     1.0  0.01523  0.88733  0.57431  1.0000
  H   H1640     1.0  0.03749  0.89100  0.56615  1.0000
  H   H1641     1.0  0.02129  0.90581  0.57736  1.0000
  N   N71       1.0  0.12447  0.88511  0.44289  1.0000
  C   C972      1.0  0.12519  0.86801  0.45635  1.0000
  C   C973      1.0  0.10662  0.89016  0.43814  1.0000
  C   C974      1.0  0.12656  0.89878  0.45111  1.0000
  C   C975      1.0  0.13946  0.88222  0.42737  1.0000
  C   C976      1.0  0.14213  0.86093  0.46375  1.0000
  C   C977      1.0  0.10248  0.87722  0.42998  1.0000
  C   C978      1.0  0.11674  0.91796  0.44533  1.0000
  C   C979      1.0  0.13977  0.89743  0.41117  1.0000
  H   H1642     1.0  0.11374  0.86926  0.46767  1.0000
  H   H1643     1.0  0.12416  0.85732  0.45098  1.0000
  H   H1644     1.0  0.10490  0.90299  0.42868  1.0000
  H   H1645     1.0  0.09586  0.89198  0.44994  1.0000
  H   H1646     1.0  0.12163  0.89563  0.46557  1.0000
  H   H1647     1.0  0.14079  0.89882  0.44916  1.0000
  H   H1648     1.0  0.15248  0.87956  0.43088  1.0000
  H   H1649     1.0  0.13954  0.87029  0.42317  1.0000
  H   H1650     1.0  0.14040  0.84913  0.47439  1.0000
  H   H1651     1.0  0.15385  0.85656  0.45375  1.0000
  H   H1652     1.0  0.14479  0.87049  0.46951  1.0000
  H   H1653     1.0  0.08968  0.88316  0.42589  1.0000
  H   H1654     1.0  0.11259  0.87445  0.41816  1.0000
  H   H1655     1.0  0.10083  0.86480  0.43949  1.0000
  H   H1656     1.0  0.10222  0.91939  0.45027  1.0000
  H   H1657     1.0  0.11956  0.92299  0.43101  1.0000
  H   H1658     1.0  0.12081  0.92657  0.45122  1.0000
  H   H1659     1.0  0.12777  0.90057  0.40584  1.0000
  H   H1660     1.0  0.15120  0.89350  0.40067  1.0000
  H   H1661     1.0  0.14162  0.90930  0.41386  1.0000
  H   H1662     1.0  0.13238  0.74851  0.41261  1.0000
  S   S284      1.0  0.08340  0.78591  0.38403  1.0000
  H   H1663     1.0  0.07613  0.74142  0.40454  1.0000
  C   C980      1.0  0.09503  0.97298  0.32846  1.0000
  S   S285      1.0  0.14842  0.95804  0.60309  1.0000
  S   S286      1.0  0.06508  0.87356  0.37508  1.0000
  C   C981      1.0  0.04209  0.84937  0.41230  1.0000
  H   H1664     1.0  0.10543  0.95618  0.59191  1.0000
  H   H1665     1.0  0.02569  0.86275  0.43935  1.0000
  C   C982      1.0  0.04326  0.73620  0.40862  1.0000
  S   S287      1.0  0.07218  0.96290  0.51359  1.0000
  C   C983      1.0  0.06214  0.77331  0.37161  1.0000
  Fe  Fe143     1.0  0.00934  0.77098  0.34956  1.0000
  C   C984      1.0  0.05903  0.83812  0.43519  1.0000
  H   H1666     1.0  0.05446  0.91719  0.34984  1.0000
  H   H1667     1.0  0.06451  0.78760  0.51684  1.0000
  H   H1668     1.0  0.07131  0.76078  0.37384  1.0000
  C   C985      1.0  0.13090  0.76477  0.43788  1.0000
  C   C986      1.0  0.04521  0.94486  0.63972  1.0000
  C   C987      1.0  0.12659  0.90393  0.58311  1.0000
  S   S288      1.0  0.12100  0.82721  0.63987  1.0000
  H   H1669     1.0  0.06917  0.96037  0.44939  1.0000
  H   H1670     1.0  0.07125  0.89525  0.33724  1.0000
  C   C988      1.0  0.10114  0.91369  0.60651  1.0000
  H   H1671     1.0  0.12099  0.93410  0.60749  1.0000
  H   H1672     1.0  0.00824  0.77599  0.54638  1.0000
  H   H1673     1.0  0.09419  0.92451  0.61344  1.0000
  H   H1674     1.0  0.08832  0.94808  0.47083  1.0000
  H   H1675     1.0  0.04155  0.81290  0.44654  1.0000
  H   H1676     1.0  0.02251  0.77384  0.56973  1.0000
  C   C989      1.0  0.11879  0.75424  0.41929  1.0000
  H   H1677     1.0  0.06740  0.80842  0.42072  1.0000
  C   C990      1.0  0.06112  0.81118  0.62535  1.0000
  H   H1678     1.0  0.02264  0.82129  0.55816  1.0000
  H   H1679     1.0  0.11054  0.75791  0.40936  1.0000
  S   S289      1.0  0.05743  0.96210  0.37692  1.0000
  H   H1680     1.0  0.08934  0.84668  0.31369  1.0000
  C   C991      1.0  0.07501  0.94510  0.47407  1.0000
  H   H1681     1.0  0.01241  0.82692  0.53964  1.0000
  H   H1682     1.0  0.09129  0.86956  0.32799  1.0000
  N   N72       1.0  0.03845  0.78932  0.54852  1.0000
  C   C992      1.0  0.04435  0.77560  0.53763  1.0000
  C   C993      1.0  0.02085  0.78682  0.56046  1.0000
  C   C994      1.0  0.05201  0.78573  0.55934  1.0000
  C   C995      1.0  0.03739  0.80722  0.53638  1.0000
  H   H1683     1.0  0.04636  0.77986  0.32755  1.0000
  S   S290      1.0  0.00875  0.73539  0.49534  1.0000
  H   H1684     1.0  0.99875  0.85380  0.45488  1.0000
  H   H1685     1.0  0.04853  0.74270  0.39491  1.0000
  S   S291      1.0  0.04966  0.75015  0.61749  1.0000
  C   C996      1.0  0.03036  0.74108  0.43899  1.0000
  C   C997      1.0  0.07802  0.92207  0.31061  1.0000
  H   H1686     1.0  0.08075  0.75296  0.41763  1.0000
  H   H1687     1.0  0.09085  0.89004  0.34495  1.0000
  H   H1688     1.0  0.01909  0.97491  0.46138  1.0000
  C   C998      1.0  0.11261  0.73886  0.43369  1.0000
  H   H1689     1.0  0.03249  0.80738  0.52486  1.0000
  H   H1690     1.0  0.10745  0.76620  0.63117  1.0000
  H   H1691     1.0  0.05276  0.94034  0.44973  1.0000
  H   H1692     1.0  0.02586  0.76730  0.39912  1.0000
  H   H1693     1.0  0.03160  0.85156  0.38983  1.0000
  C   C999      1.0  0.08553  0.89565  0.33290  1.0000
  H   H1694     1.0  0.08533  0.93674  0.33603  1.0000
  H   H1695     1.0  0.01696  0.93768  0.47602  1.0000
  H   H1696     1.0  0.11697  0.95200  0.32163  1.0000
  H   H1697     1.0  0.11549  0.91258  0.34210  1.0000
  H   H1698     1.0  0.10412  0.97535  0.41789  1.0000
  H   H1699     1.0  0.00074  0.74696  0.59068  1.0000
  S   S292      1.0  0.09179  0.97760  0.37655  1.0000
  C   C1000     1.0  0.10928  0.93472  0.57841  1.0000
  H   H1700     1.0  0.12704  0.89119  0.59286  1.0000
  H   H1701     1.0  0.07564  0.85309  0.43885  1.0000
  C   C1001     1.0  0.07146  0.74532  0.41732  1.0000
  C   C1002     1.0  0.02603  0.93834  0.46298  1.0000
  C   C1003     1.0  0.12080  0.90196  0.56737  1.0000
  N   N73       1.0  0.04394  0.95830  0.46725  1.0000
  H   H1702     1.0  0.07002  0.94394  0.48833  1.0000
  H   H1703     1.0  0.14766  0.91517  0.61572  1.0000
  H   H1704     1.0  0.06466  0.76567  0.51672  1.0000
  H   H1705     1.0  0.00764  0.83131  0.45436  1.0000
  H   H1706     1.0  0.04427  0.76229  0.54616  1.0000
  S   S293      1.0  0.10912  0.97451  0.63730  1.0000
  H   H1707     1.0  0.12345  0.91270  0.55578  1.0000
  H   H1708     1.0  0.05562  0.81552  0.37491  1.0000
  C   C1004     1.0  0.09819  0.95118  0.58533  1.0000
  H   H1709     1.0  0.05392  0.77184  0.56689  1.0000
  C   C1005     1.0  0.03870  0.80578  0.36544  1.0000
  S   S294      1.0  0.01708  0.79409  0.35318  1.0000
  H   H1710     1.0  0.07643  0.90512  0.61340  1.0000
  C   C1006     1.0  0.13937  0.90936  0.61105  1.0000
  H   H1711     1.0  0.13247  0.96917  0.54671  1.0000
  C   C1007     1.0  0.04015  0.82044  0.43319  1.0000
  C   C1008     1.0  0.00418  0.74381  0.57798  1.0000
  H   H1712     1.0  0.05038  0.76326  0.43039  1.0000
  H   H1713     1.0  0.05389  0.76827  0.40736  1.0000
  H   H1714     1.0  0.09212  0.80039  0.31678  1.0000
  H   H1715     1.0  0.10283  0.79217  0.45146  1.0000
  H   H1716     1.0  0.05984  0.82957  0.44840  1.0000
  C   C1009     1.0  0.06358  0.80560  0.31677  1.0000
  H   H1717     1.0  0.04218  0.86329  0.41120  1.0000
  H   H1718     1.0  0.03648  0.84700  0.64076  1.0000
  H   H1719     1.0  0.05472  0.84471  0.40334  1.0000
  H   H1720     1.0  0.08059  0.82161  0.63045  1.0000
  C   C1010     1.0  0.05351  0.81001  0.42008  1.0000
  H   H1721     1.0  0.08791  0.78079  0.63930  1.0000
  H   H1722     1.0  0.10591  0.91512  0.64079  1.0000
  C   C1011     1.0  0.03414  0.97303  0.49387  1.0000
  H   H1723     1.0  0.14317  0.76874  0.39030  1.0000
  H   H1724     1.0  0.02969  0.81982  0.31235  1.0000
  C   C1012     1.0  0.13731  0.97051  0.58643  1.0000
  C   C1013     1.0  0.06772  0.97131  0.62609  1.0000
  H   H1725     1.0  0.13810  0.93066  0.58877  1.0000
  H   H1726     1.0  0.02690  0.81968  0.43239  1.0000
  H   H1727     1.0  0.01744  0.73767  0.44074  1.0000
  H   H1728     1.0  0.05106  0.79657  0.42333  1.0000
  H   H1729     1.0  0.02804  0.78938  0.41162  1.0000
  C   C1014     1.0  0.04738  0.80210  0.63257  1.0000
  Fe  Fe144     1.0  0.01883  0.73984  0.33274  1.0000
  H   H1730     1.0  0.03016  0.84456  0.45668  1.0000
  H   H1731     1.0  0.04089  0.94507  0.49482  1.0000
  C   C1015     1.0  0.13817  0.77932  0.44050  1.0000
  H   H1732     1.0  0.07731  0.80896  0.33458  1.0000
  H   H1733     1.0  0.07701  0.93226  0.47082  1.0000
  H   H1734     1.0  0.03547  0.97029  0.44274  1.0000
  C   C1016     1.0  0.09407  0.88261  0.32075  1.0000
  C   C1017     1.0  0.02631  0.73500  0.55325  1.0000
  H   H1735     1.0  0.01026  0.75905  0.41746  1.0000
  S   S295      1.0  0.12246  0.80901  0.36127  1.0000
  C   C1018     1.0  0.06294  0.95989  0.46347  1.0000
  H   H1736     1.0  0.02702  0.75085  0.44719  1.0000
  C   C1019     1.0  0.14031  0.96465  0.57105  1.0000
  H   H1737     1.0  0.02006  0.86205  0.62986  1.0000
  H   H1738     1.0  0.06187  0.96759  0.61721  1.0000
  C   C1020     1.0  0.13033  0.97388  0.55841  1.0000
  Fe  Fe145     1.0  0.13817  0.97087  0.62605  1.0000
  H   H1739     1.0  0.03139  0.83457  0.53802  1.0000
  H   H1740     1.0  0.06903  0.76853  0.62991  1.0000
  N   N74       1.0  0.11868  0.77022  0.42534  1.0000
  C   C1021     1.0  0.07920  0.79977  0.32610  1.0000
  H   H1741     1.0  0.14689  0.78978  0.38838  1.0000
  H   H1742     1.0  0.11477  0.78728  0.40046  1.0000
  H   H1743     1.0  0.13076  0.79275  0.43639  1.0000
  H   H1744     1.0  0.09831  0.74214  0.43980  1.0000
  C   C1022     1.0  0.03358  0.97324  0.45573  1.0000
  Fe  Fe146     1.0  0.03007  0.74461  0.60612  1.0000
  C   C1023     1.0  0.02289  0.76362  0.41368  1.0000
  H   H1745     1.0  0.05191  0.81598  0.40648  1.0000
  H   H1746     1.0  0.07981  0.78653  0.33474  1.0000
  S   S296      1.0  0.03896  0.76864  0.47014  1.0000
  S   S297      1.0  0.02108  0.74247  0.35877  1.0000
  C   C1024     1.0  0.00607  0.78800  0.55131  1.0000
  H   H1747     1.0  0.03319  0.96852  0.50820  1.0000
  H   H1748     1.0  0.06410  0.92038  0.31479  1.0000
  C   C1025     1.0  0.06987  0.81480  0.63616  1.0000
  H   H1749     1.0  0.08719  0.75117  0.62312  1.0000
  C   C1026     1.0  0.10354  0.97838  0.45883  1.0000
  C   C1027     1.0  0.99515  0.74074  0.55316  1.0000
  C   C1028     1.0  0.11932  0.90617  0.33085  1.0000
  C   C1029     1.0  0.01293  0.73617  0.54483  1.0000
  C   C1030     1.0  0.10740  0.96334  0.31679  1.0000
  S   S298      1.0  0.01531  0.97409  0.41483  1.0000
  H   H1750     1.0  0.07238  0.73356  0.42810  1.0000
  Fe  Fe147     1.0  0.04281  0.97544  0.39903  1.0000
  H   H1751     1.0  0.10867  0.88081  0.31689  1.0000
  H   H1752     1.0  0.02531  0.79861  0.31434  1.0000
  H   H1753     1.0  0.08051  0.96159  0.62696  1.0000
  H   H1754     1.0  0.13300  0.90771  0.32402  1.0000
  H   H1755     1.0  0.00522  0.78839  0.41844  1.0000
  H   H1756     1.0  0.04612  0.97855  0.48894  1.0000
  H   H1757     1.0  0.01818  0.73727  0.40209  1.0000
  H   H1758     1.0  0.05545  0.94136  0.62820  1.0000
  C   C1031     1.0  0.10700  0.91487  0.31791  1.0000
  H   H1759     1.0  0.14956  0.96907  0.51196  1.0000
  H   H1760     1.0  0.03340  0.98286  0.63156  1.0000
  S   S299      1.0  0.12667  0.83333  0.31293  1.0000
  C   C1032     1.0  0.10033  0.98052  0.42957  1.0000
  H   H1761     1.0  0.03330  0.95394  0.63559  1.0000
  C   C1033     1.0  0.14897  0.98335  0.50676  1.0000
  S   S300      1.0  0.29971  0.87156  0.77097  1.0000
  S   S301      1.0  0.31442  0.82510  0.75696  1.0000
  Fe  Fe148     1.0  0.32456  0.88118  0.76613  1.0000
  S   S302      1.0  0.32723  0.90681  0.74709  1.0000
  Fe  Fe149     1.0  0.30199  0.86371  0.79894  1.0000
  S   S303      1.0  0.27816  0.86816  0.82058  1.0000
  S   S304      1.0  0.35816  0.95926  0.76812  1.0000
  S   S305      1.0  0.27132  0.79996  0.87961  1.0000
  C   C1034     1.0  0.35523  0.76626  0.81273  1.0000
  H   H1762     1.0  0.19956  0.92731  0.71179  1.0000
  Fe  Fe150     1.0  0.29606  0.77888  0.88112  1.0000
  C   C1035     1.0  0.17821  0.77538  0.75510  1.0000
  C   C1036     1.0  0.09616  0.93244  0.67658  1.0000
  C   C1037     1.0  0.06507  0.80917  0.65429  1.0000
  H   H1763     1.0  0.23171  0.82237  0.81712  1.0000
  H   H1764     1.0  0.28484  0.80210  0.78880  1.0000
  C   C1038     1.0  0.16167  0.80566  0.82969  1.0000
  Fe  Fe151     1.0  0.18499  0.83805  0.74278  1.0000
  S   S306      1.0  0.17403  0.85281  0.76434  1.0000
  Fe  Fe152     1.0  0.22208  0.84433  0.73684  1.0000
  S   S307      1.0  0.21419  0.85964  0.75761  1.0000
  S   S308      1.0  0.24998  0.83766  0.72143  1.0000
  Fe  Fe153     1.0  0.19917  0.83885  0.77328  1.0000
  S   S309      1.0  0.20342  0.82689  0.80045  1.0000
  Fe  Fe154     1.0  0.18994  0.87227  0.74660  1.0000
  S   S310      1.0  0.17748  0.90113  0.74218  1.0000
  S   S311      1.0  0.20900  0.82238  0.75326  1.0000
  S   S312      1.0  0.19899  0.85861  0.72425  1.0000
  C   C1039     1.0  0.18983  0.91384  0.74616  1.0000
  C   C1040     1.0  0.18140  0.93042  0.74972  1.0000
  C   C1041     1.0  0.19129  0.94143  0.75130  1.0000
  C   C1042     1.0  0.20821  0.90827  0.74430  1.0000
  H   H1765     1.0  0.16721  0.93486  0.75110  1.0000
  H   H1766     1.0  0.18466  0.95425  0.75381  1.0000
  H   H1767     1.0  0.21492  0.89574  0.74107  1.0000
  C   C1043     1.0  0.19865  0.79620  0.82303  1.0000
  C   C1044     1.0  0.19028  0.81253  0.81446  1.0000
  C   C1045     1.0  0.17176  0.81735  0.81783  1.0000
  H   H1768     1.0  0.21295  0.79242  0.82054  1.0000
  H   H1769     1.0  0.16526  0.83014  0.81146  1.0000
  H   H1770     1.0  0.14694  0.94718  0.70962  1.0000
  H   H1771     1.0  0.18661  0.95446  0.71804  1.0000
  C   C1046     1.0  0.06487  0.97381  0.65611  1.0000
  H   H1772     1.0  0.19856  0.77252  0.79923  1.0000
  H   H1773     1.0  0.29837  0.80470  0.96422  1.0000
  S   S313      1.0  0.09916  0.84868  0.67147  1.0000
  H   H1774     1.0  0.05343  0.95960  0.68231  1.0000
  C   C1047     1.0  0.20468  0.73380  0.94586  1.0000
  H   H1775     1.0  0.42196  0.84628  0.80091  1.0000
  H   H1776     1.0  0.43544  0.89287  0.72543  1.0000
  Fe  Fe155     1.0  0.45446  0.89150  0.78521  1.0000
  N   N75       1.0  0.22653  0.80284  0.70094  1.0000
  H   H1777     1.0  0.38634  0.98055  0.81730  1.0000
  H   H1778     1.0  0.41801  0.78680  0.90446  1.0000
  H   H1779     1.0  0.41514  0.80648  0.87589  1.0000
  H   H1780     1.0  0.39159  0.81021  0.88192  1.0000
  C   C1048     1.0  0.46685  0.78670  0.94384  1.0000
  H   H1781     1.0  0.43298  0.78371  0.84194  1.0000
  H   H1782     1.0  0.14041  0.78453  0.78029  1.0000
  C   C1049     1.0  0.37303  0.76080  0.81847  1.0000
  C   C1050     1.0  0.29610  0.82928  0.74742  1.0000
  C   C1051     1.0  0.29394  0.81595  0.74100  1.0000
  C   C1052     1.0  0.27959  0.81857  0.73336  1.0000
  C   C1053     1.0  0.26696  0.83440  0.73245  1.0000
  C   C1054     1.0  0.26888  0.84773  0.73910  1.0000
  C   C1055     1.0  0.28359  0.84528  0.74635  1.0000
  H   H1783     1.0  0.30358  0.80361  0.74168  1.0000
  H   H1784     1.0  0.27836  0.80831  0.72803  1.0000
  H   H1785     1.0  0.25937  0.86015  0.73809  1.0000
  H   H1786     1.0  0.28529  0.85578  0.75096  1.0000
  C   C1056     1.0  0.27728  0.84990  0.83814  1.0000
  C   C1057     1.0  0.26129  0.84892  0.85032  1.0000
  C   C1058     1.0  0.25970  0.83363  0.86328  1.0000
  C   C1059     1.0  0.27416  0.81936  0.86422  1.0000
  H   H1787     1.0  0.24999  0.85983  0.84944  1.0000
  H   H1788     1.0  0.24721  0.83285  0.87248  1.0000
  C   C1060     1.0  0.33468  0.92169  0.75374  1.0000
  C   C1061     1.0  0.33835  0.93691  0.74164  1.0000
  C   C1062     1.0  0.34501  0.94870  0.74628  1.0000
  C   C1063     1.0  0.34829  0.94524  0.76297  1.0000
  C   C1064     1.0  0.34426  0.93022  0.77524  1.0000
  C   C1065     1.0  0.33742  0.91849  0.77063  1.0000
  H   H1789     1.0  0.33630  0.93950  0.72854  1.0000
  H   H1790     1.0  0.34803  0.96021  0.73671  1.0000
  H   H1791     1.0  0.34665  0.92754  0.78822  1.0000
  H   H1792     1.0  0.33453  0.90692  0.78011  1.0000
  Fe  Fe156     1.0  0.31809  0.84566  0.76845  1.0000
  H   H1793     1.0  0.43960  0.83160  0.83172  1.0000
  C   C1066     1.0  0.33016  0.73877  0.94348  1.0000
  N   N76       1.0  0.22097  0.78626  0.87937  1.0000
  C   C1067     1.0  0.23542  0.77390  0.88805  1.0000
  C   C1068     1.0  0.22176  0.80485  0.87827  1.0000
  C   C1069     1.0  0.22333  0.78396  0.86112  1.0000
  C   C1070     1.0  0.20342  0.78233  0.89006  1.0000
  C   C1071     1.0  0.23843  0.75434  0.88795  1.0000
  C   C1072     1.0  0.21760  0.81030  0.89587  1.0000
  C   C1073     1.0  0.24139  0.78587  0.84884  1.0000
  C   C1074     1.0  0.18681  0.79470  0.88404  1.0000
  H   H1794     1.0  0.24832  0.77784  0.88211  1.0000
  H   H1795     1.0  0.23266  0.77451  0.90202  1.0000
  H   H1796     1.0  0.21277  0.81443  0.87011  1.0000
  H   H1797     1.0  0.23524  0.80713  0.87156  1.0000
  H   H1798     1.0  0.22102  0.77105  0.86130  1.0000
  H   H1799     1.0  0.21330  0.79385  0.85442  1.0000
  H   H1800     1.0  0.20269  0.76889  0.89012  1.0000
  H   H1801     1.0  0.20193  0.78237  0.90400  1.0000
  C   C1075     1.0  0.48938  0.78594  0.84145  1.0000
  H   H1802     1.0  0.25883  0.79136  0.71364  1.0000
  H   H1803     1.0  0.04337  0.95092  0.66404  1.0000
  H   H1804     1.0  0.21866  0.82417  0.89324  1.0000
  H   H1805     1.0  0.20395  0.80965  0.90343  1.0000
  H   H1806     1.0  0.22732  0.80243  0.90394  1.0000
  H   H1807     1.0  0.25263  0.77657  0.85403  1.0000
  H   H1808     1.0  0.24330  0.79942  0.84602  1.0000
  H   H1809     1.0  0.24181  0.78295  0.83622  1.0000
  H   H1810     1.0  0.18551  0.80844  0.88470  1.0000
  H   H1811     1.0  0.17485  0.79035  0.89291  1.0000
  H   H1812     1.0  0.18649  0.79428  0.87069  1.0000
  C   C1076     1.0  0.23762  0.83409  0.81138  1.0000
  H   H1813     1.0  0.26096  0.80410  0.81702  1.0000
  H   H1814     1.0  0.25955  0.79571  0.78451  1.0000
  C   C1077     1.0  0.24799  0.80585  0.78899  1.0000
  H   H1815     1.0  0.24275  0.83373  0.77824  1.0000
  H   H1816     1.0  0.37296  0.74203  0.92547  1.0000
  S   S314      1.0  0.22255  0.94989  0.75009  1.0000
  C   C1078     1.0  0.26743  0.81524  0.80993  1.0000
  H   H1817     1.0  0.38275  0.83685  0.76876  1.0000
  C   C1079     1.0  0.19376  0.91698  0.69336  1.0000
  H   H1818     1.0  0.29272  0.79674  0.80837  1.0000
  H   H1819     1.0  0.23800  0.80682  0.78155  1.0000
  H   H1820     1.0  0.26544  0.82321  0.77417  1.0000
  H   H1821     1.0  0.35895  0.81278  0.77192  1.0000
  H   H1822     1.0  0.18192  0.84595  0.70447  1.0000
  H   H1823     1.0  0.16577  0.93564  0.71904  1.0000
  C   C1080     1.0  0.12069  0.90540  0.71403  1.0000
  H   H1824     1.0  0.23265  0.78263  0.68630  1.0000
  C   C1081     1.0  0.48019  0.82231  0.83819  1.0000
  C   C1082     1.0  0.26391  0.84528  0.79243  1.0000
  C   C1083     1.0  0.25243  0.86223  0.78355  1.0000
  H   H1825     1.0  0.26813  0.84846  0.80280  1.0000
  H   H1826     1.0  0.24837  0.86037  0.77244  1.0000
  H   H1827     1.0  0.24059  0.86753  0.79292  1.0000
  N   N77       1.0  0.27855  0.94898  0.73922  1.0000
  C   C1084     1.0  0.28624  0.94873  0.75419  1.0000
  C   C1085     1.0  0.26901  0.93406  0.74512  1.0000
  C   C1086     1.0  0.26515  0.96605  0.73618  1.0000
  C   C1087     1.0  0.29344  0.94745  0.72329  1.0000
  H   H1828     1.0  0.44112  0.97856  0.75905  1.0000
  C   C1088     1.0  0.28066  0.91548  0.74913  1.0000
  C   C1089     1.0  0.43847  0.74568  0.96507  1.0000
  C   C1090     1.0  0.29983  0.77609  0.96954  1.0000
  H   H1829     1.0  0.27576  0.94899  0.76644  1.0000
  H   H1830     1.0  0.29622  0.93634  0.75702  1.0000
  H   H1831     1.0  0.26155  0.93409  0.73563  1.0000
  H   H1832     1.0  0.25855  0.93563  0.75720  1.0000
  H   H1833     1.0  0.42397  0.75449  0.86927  1.0000
  H   H1834     1.0  0.47360  0.78475  0.86766  1.0000
  H   H1835     1.0  0.23055  0.80423  0.67329  1.0000
  H   H1836     1.0  0.30555  0.93832  0.72721  1.0000
  S   S315      1.0  0.30966  0.74261  0.93825  1.0000
  C   C1091     1.0  0.40966  0.73504  0.88592  1.0000
  H   H1837     1.0  0.06529  0.94274  0.65320  1.0000
  H   H1838     1.0  0.29224  0.91298  0.73832  1.0000
  H   H1839     1.0  0.28523  0.91295  0.76139  1.0000
  H   H1840     1.0  0.27265  0.90568  0.75115  1.0000
  H   H1841     1.0  0.19336  0.91941  0.67948  1.0000
  H   H1842     1.0  0.46569  0.75760  0.82652  1.0000
  H   H1843     1.0  0.34265  0.78714  0.83681  1.0000
  H   H1844     1.0  0.06180  0.97766  0.68213  1.0000
  H   H1845     1.0  0.27642  0.94080  0.70937  1.0000
  H   H1846     1.0  0.42890  0.95806  0.69437  1.0000
  C   C1092     1.0  0.44858  0.81125  0.81682  1.0000
  H   H1847     1.0  0.21484  0.95620  0.67292  1.0000
  C   C1093     1.0  0.46348  0.79948  0.78317  1.0000
  C   C1094     1.0  0.25598  0.79266  0.67988  1.0000
  H   H1848     1.0  0.42025  0.96212  0.80868  1.0000
  C   C1095     1.0  0.47868  0.79311  0.85557  1.0000
  H   H1849     1.0  0.15730  0.95892  0.71776  1.0000
  Fe  Fe157     1.0  0.17650  0.74791  0.85774  1.0000
  C   C1096     1.0  0.46938  0.94327  0.74500  1.0000
  H   H1850     1.0  0.41745  0.80255  0.82077  1.0000
  H   H1851     1.0  0.13489  0.82398  0.69426  1.0000
  C   C1097     1.0  0.14556  0.87543  0.73021  1.0000
  H   H1852     1.0  0.30357  0.96016  0.76180  1.0000
  C   C1098     1.0  0.33000  0.77511  0.78860  1.0000
  H   H1853     1.0  0.29385  0.77667  0.95861  1.0000
  C   C1099     1.0  0.46137  0.78737  0.80158  1.0000
  Fe  Fe158     1.0  0.46067  0.75947  0.90489  1.0000
  H   H1854     1.0  0.42295  0.91390  0.72894  1.0000
  H   H1855     1.0  0.29465  0.74861  0.84596  1.0000
  H   H1856     1.0  0.42209  0.82228  0.83164  1.0000
  H   H1857     1.0  0.32940  0.80149  0.79027  1.0000
  H   H1858     1.0  0.29439  0.96821  0.78956  1.0000
  C   C1100     1.0  0.05147  0.79990  0.66153  1.0000
  H   H1859     1.0  0.25983  0.73895  0.92431  1.0000
  H   H1860     1.0  0.48643  0.97746  0.82916  1.0000
  C   C1101     1.0  0.19932  0.74276  0.93025  1.0000
  H   H1861     1.0  0.42733  0.95531  0.78024  1.0000
  C   C1102     1.0  0.14968  0.75754  0.81043  1.0000
  Fe  Fe159     1.0  0.47918  0.75139  0.86940  1.0000
  H   H1862     1.0  0.26060  0.80495  0.67730  1.0000
  H   H1863     1.0  0.42731  0.80856  0.79877  1.0000
  N   N78       1.0  0.35175  0.78411  0.80080  1.0000
  C   C1103     1.0  0.46764  0.77486  0.93400  1.0000
  C   C1104     1.0  0.19891  0.79039  0.70529  1.0000
  S   S316      1.0  0.31839  0.83703  0.79686  1.0000
  C   C1105     1.0  0.40884  0.84016  0.76738  1.0000
  C   C1106     1.0  0.15997  0.94814  0.71089  1.0000
  S   S317      1.0  0.47262  0.97727  0.73149  1.0000
  H   H1864     1.0  0.21934  0.79095  0.72865  1.0000
  H   H1865     1.0  0.41660  0.77447  0.81987  1.0000
  C   C1107     1.0  0.39625  0.84242  0.80235  1.0000
  H   H1866     1.0  0.43440  0.77323  0.80059  1.0000
  C   C1108     1.0  0.28570  0.80763  0.79939  1.0000
  H   H1867     1.0  0.17068  0.89638  0.67874  1.0000
  H   H1868     1.0  0.40191  0.74684  0.91810  1.0000
  H   H1869     1.0  0.41625  0.83560  0.94841  1.0000
  H   H1870     1.0  0.37857  0.78484  0.78603  1.0000
  H   H1871     1.0  0.30178  0.80979  0.85371  1.0000
  H   H1872     1.0  0.39143  0.84315  0.81595  1.0000
  C   C1109     1.0  0.41353  0.84424  0.79383  1.0000
  C   C1110     1.0  0.16211  0.83058  0.71620  1.0000
  H   H1873     1.0  0.40937  0.77840  0.89148  1.0000
  H   H1874     1.0  0.24213  0.75201  0.87457  1.0000
  H   H1875     1.0  0.38448  0.75976  0.80721  1.0000
  H   H1876     1.0  0.41377  0.83910  0.75388  1.0000
  C   C1111     1.0  0.40364  0.80654  0.88721  1.0000
  C   C1112     1.0  0.43655  0.97031  0.71111  1.0000
  H   H1877     1.0  0.23191  0.84632  0.68443  1.0000
  C   C1113     1.0  0.44671  0.93436  0.77013  1.0000
  H   H1878     1.0  0.39838  0.77321  0.85676  1.0000
  H   H1879     1.0  0.46758  0.91644  0.75675  1.0000
  H   H1880     1.0  0.07171  0.74483  0.69155  1.0000
  H   H1881     1.0  0.45569  0.78341  0.83923  1.0000
  H   H1882     1.0  0.28629  0.97626  0.75300  1.0000
  C   C1114     1.0  0.15134  0.88615  0.71150  1.0000
  H   H1883     1.0  0.15195  0.80138  0.76973  1.0000
  C   C1115     1.0  0.40893  0.86262  0.95063  1.0000
  S   S318      1.0  0.01679  0.75720  0.65108  1.0000
  C   C1116     1.0  0.08531  0.90962  0.66346  1.0000
  H   H1884     1.0  0.44887  0.97205  0.70108  1.0000
  H   H1885     1.0  0.13085  0.86119  0.71171  1.0000
  S   S319      1.0  0.45059  0.76128  0.88141  1.0000
  H   H1886     1.0  0.11470  0.89555  0.72469  1.0000
  S   S320      1.0  0.19782  0.74542  0.87146  1.0000
  H   H1887     1.0  0.20195  0.78010  0.71687  1.0000
  C   C1117     1.0  0.11215  0.77134  0.66163  1.0000
  H   H1888     1.0  0.41381  0.78726  0.79848  1.0000
  H   H1889     1.0  0.48078  0.93994  0.73485  1.0000
  H   H1890     1.0  0.23305  0.77596  0.71569  1.0000
  H   H1891     1.0  0.19762  0.75685  0.92639  1.0000
  H   H1892     1.0  0.20280  0.90403  0.69664  1.0000
  N   N79       1.0  0.16611  0.77978  0.78666  1.0000
  H   H1893     1.0  0.15569  0.86307  0.73235  1.0000
  H   H1894     1.0  0.31585  0.79304  0.95000  1.0000
  H   H1895     1.0  0.35503  0.75590  0.80635  1.0000
  Fe  Fe160     1.0  0.09308  0.83316  0.65569  1.0000
  C   C1118     1.0  0.36563  0.78437  0.78396  1.0000
  C   C1119     1.0  0.36152  0.79986  0.76859  1.0000
  H   H1896     1.0  0.36842  0.77203  0.77937  1.0000
  H   H1897     1.0  0.37315  0.79932  0.75742  1.0000
  H   H1898     1.0  0.35015  0.79914  0.76387  1.0000
  H   H1899     1.0  0.34446  0.76513  0.82472  1.0000
  H   H1900     1.0  0.46717  0.81172  0.78289  1.0000
  H   H1901     1.0  0.19531  0.97271  0.67113  1.0000
  H   H1902     1.0  0.36291  0.80543  0.89838  1.0000
  C   C1120     1.0  0.19584  0.73362  0.91983  1.0000
  H   H1903     1.0  0.27115  0.97740  0.73395  1.0000
  H   H1904     1.0  0.12650  0.81191  0.79082  1.0000
  H   H1905     1.0  0.32054  0.78250  0.78005  1.0000
  H   H1906     1.0  0.24316  0.80221  0.72990  1.0000
  S   S321      1.0  0.31706  0.77809  0.89464  1.0000
  C   C1121     1.0  0.17012  0.78911  0.83796  1.0000
  C   C1122     1.0  0.38507  0.83992  0.79330  1.0000
  C   C1123     1.0  0.40587  0.78828  0.89966  1.0000
  H   H1907     1.0  0.14137  0.81619  0.72389  1.0000
  S   S322      1.0  0.48182  0.84425  0.78536  1.0000
  H   H1908     1.0  0.11002  0.91240  0.70678  1.0000
  Fe  Fe161     1.0  0.34169  0.84944  0.79007  1.0000
  H   H1909     1.0  0.44403  0.83598  0.94939  1.0000
  S   S323      1.0  0.43693  0.91815  0.78564  1.0000
  H   H1910     1.0  0.18049  0.91569  0.70161  1.0000
  C   C1124     1.0  0.21809  0.91929  0.74588  1.0000
  C   C1125     1.0  0.20967  0.93595  0.74927  1.0000
  C   C1126     1.0  0.14881  0.82443  0.71324  1.0000
  S   S324      1.0  0.28943  0.75377  0.89797  1.0000
  C   C1127     1.0  0.33339  0.78780  0.79767  1.0000
  H   H1911     1.0  0.14735  0.80934  0.83234  1.0000
  H   H1912     1.0  0.22811  0.84374  0.80386  1.0000
  S   S325      1.0  0.16730  0.82403  0.73702  1.0000
  H   H1913     1.0  0.24208  0.80117  0.80292  1.0000
  H   H1914     1.0  0.22036  0.94795  0.70630  1.0000
  C   C1128     1.0  0.27065  0.74680  0.84047  1.0000
  N   N80       1.0  0.39055  0.78476  0.91485  1.0000
  C   C1129     1.0  0.39786  0.77019  0.92883  1.0000
  C   C1130     1.0  0.38225  0.80069  0.92267  1.0000
  C   C1131     1.0  0.18861  0.78445  0.83454  1.0000
  C   C1132     1.0  0.37725  0.77864  0.90946  1.0000
  C   C1133     1.0  0.40936  0.75333  0.92293  1.0000
  C   C1134     1.0  0.36660  0.79874  0.93860  1.0000
  C   C1135     1.0  0.36680  0.79190  0.89634  1.0000
  H   H1915     1.0  0.40613  0.77482  0.93477  1.0000
  H   H1916     1.0  0.38699  0.76595  0.93972  1.0000
  H   H1917     1.0  0.37728  0.81234  0.91300  1.0000
  H   H1918     1.0  0.39245  0.80455  0.92678  1.0000
  H   H1919     1.0  0.23231  0.91498  0.74423  1.0000
  H   H1920     1.0  0.21062  0.96674  0.71560  1.0000
  H   H1921     1.0  0.38389  0.76725  0.90327  1.0000
  H   H1922     1.0  0.36753  0.77330  0.92098  1.0000
  H   H1923     1.0  0.32628  0.80364  0.82625  1.0000
  C   C1136     1.0  0.07317  0.75180  0.66301  1.0000
  H   H1924     1.0  0.11357  0.77672  0.67213  1.0000
  H   H1925     1.0  0.37075  0.78913  0.95015  1.0000
  H   H1926     1.0  0.36110  0.81152  0.94259  1.0000
  H   H1927     1.0  0.35563  0.79524  0.93554  1.0000
  H   H1928     1.0  0.37423  0.79180  0.88267  1.0000
  C   C1137     1.0  0.25310  0.82385  0.78453  1.0000
  H   H1929     1.0  0.35406  0.78813  0.89807  1.0000
  N   N81       1.0  0.39964  0.89821  0.76125  1.0000
  C   C1138     1.0  0.38480  0.88839  0.76842  1.0000
  C   C1139     1.0  0.41023  0.89350  0.77510  1.0000
  C   C1140     1.0  0.41120  0.89174  0.74528  1.0000
  C   C1141     1.0  0.39164  0.91760  0.75677  1.0000
  C   C1142     1.0  0.37413  0.88854  0.75536  1.0000
  C   C1143     1.0  0.39958  0.89721  0.79308  1.0000
  H   H1930     1.0  0.19532  0.77175  0.84066  1.0000
  C   C1144     1.0  0.40295  0.93040  0.75623  1.0000
  H   H1931     1.0  0.38997  0.87441  0.77418  1.0000
  H   H1932     1.0  0.37493  0.89368  0.77934  1.0000
  H   H1933     1.0  0.42134  0.90024  0.77104  1.0000
  H   H1934     1.0  0.41678  0.87932  0.77723  1.0000
  H   H1935     1.0  0.41627  0.87725  0.74874  1.0000
  H   H1936     1.0  0.40353  0.89415  0.73515  1.0000
  H   H1937     1.0  0.38743  0.92126  0.74412  1.0000
  H   H1938     1.0  0.37943  0.92079  0.76677  1.0000
  H   H1939     1.0  0.38152  0.87913  0.74689  1.0000
  H   H1940     1.0  0.36171  0.88415  0.76273  1.0000
  H   H1941     1.0  0.37036  0.90180  0.74721  1.0000
  H   H1942     1.0  0.30539  0.96555  0.73888  1.0000
  H   H1943     1.0  0.39139  0.88737  0.80015  1.0000
  H   H1944     1.0  0.40890  0.89612  0.80129  1.0000
  C   C1145     1.0  0.39131  0.83891  0.77576  1.0000
  H   H1945     1.0  0.23337  0.83145  0.67143  1.0000
  H   H1946     1.0  0.43594  0.89918  0.74436  1.0000
  H   H1947     1.0  0.39944  0.94264  0.74648  1.0000
  H   H1948     1.0  0.41744  0.92565  0.75273  1.0000
  H   H1949     1.0  0.39934  0.93455  0.76886  1.0000
  Fe  Fe162     1.0  0.45598  0.85701  0.77733  1.0000
  C   C1146     1.0  0.09536  0.76364  0.66815  1.0000
  H   H1950     1.0  0.32346  0.78716  0.81027  1.0000
  S   S326      1.0  0.15771  0.77383  0.85170  1.0000
  H   H1951     1.0  0.46078  0.77454  0.79986  1.0000
  H   H1952     1.0  0.18009  0.80039  0.77140  1.0000
  C   C1147     1.0  0.35282  0.79820  0.80891  1.0000
  H   H1953     1.0  0.43808  0.81045  0.84511  1.0000
  C   C1148     1.0  0.42723  0.90008  0.73570  1.0000
  H   H1954     1.0  0.45021  0.75390  0.84660  1.0000
  H   H1955     1.0  0.16303  0.75945  0.77617  1.0000
  C   C1149     1.0  0.41995  0.84292  0.77638  1.0000
  C   C1150     1.0  0.17193  0.95226  0.69254  1.0000
  H   H1956     1.0  0.21712  0.96997  0.69246  1.0000
  S   S327      1.0  0.15213  0.84362  0.66101  1.0000
  C   C1151     1.0  0.41142  0.75069  0.87358  1.0000
  H   H1957     1.0  0.39106  0.91059  0.79203  1.0000
  H   H1958     1.0  0.24962  0.77888  0.73430  1.0000
  H   H1959     1.0  0.27002  0.75872  0.83039  1.0000
  H   H1960     1.0  0.20619  0.79067  0.78417  1.0000
  C   C1152     1.0  0.17163  0.84120  0.70236  1.0000
  N   N82       1.0  0.19130  0.95002  0.69201  1.0000
  H   H1961     1.0  0.06358  0.76452  0.66371  1.0000
  Fe  Fe163     1.0  0.31202  0.75177  0.90954  1.0000
  H   H1962     1.0  0.16663  0.78427  0.75010  1.0000
  C   C1153     1.0  0.20039  0.95822  0.67393  1.0000
  C   C1154     1.0  0.20681  0.80649  0.70241  1.0000
  C   C1155     1.0  0.06979  0.73956  0.68125  1.0000
  S   S328      1.0  0.32513  0.87560  0.79444  1.0000
  C   C1156     1.0  0.29044  0.82062  0.85265  1.0000
  C   C1157     1.0  0.29202  0.83598  0.83969  1.0000
  H   H1963     1.0  0.26032  0.87253  0.77821  1.0000
  S   S329      1.0  0.34309  0.85576  0.76125  1.0000
  N   N83       1.0  0.25553  0.82958  0.79959  1.0000
  H   H1964     1.0  0.27637  0.84233  0.78259  1.0000
  H   H1965     1.0  0.30471  0.83715  0.83118  1.0000
  H   H1966     1.0  0.32430  0.76443  0.79844  1.0000
  C   C1158     1.0  0.16829  0.84519  0.68557  1.0000
  C   C1159     1.0  0.23720  0.84147  0.82694  1.0000
  H   H1967     1.0  0.27012  0.82003  0.82024  1.0000
  H   H1968     1.0  0.29395  0.81754  0.79385  1.0000
  S   S330      1.0  0.36373  0.83721  0.80455  1.0000
  C   C1160     1.0  0.08231  0.92426  0.68661  1.0000
  H   H1969     1.0  0.16990  0.94420  0.68465  1.0000
  H   H1970     1.0  0.34420  0.74760  0.91714  1.0000
  C   C1161     1.0  0.20049  0.93107  0.69747  1.0000
  H   H1971     1.0  0.21497  0.92909  0.69170  1.0000
  C   C1162     1.0  0.46244  0.96079  0.74611  1.0000
  H   H1972     1.0  0.39997  0.87138  0.95919  1.0000
  H   H1973     1.0  0.36655  0.79695  0.81013  1.0000
  H   H1974     1.0  0.14849  0.91999  0.69417  1.0000
  S   S331      1.0  0.47987  0.88225  0.79438  1.0000
  C   C1163     1.0  0.25391  0.97303  0.81456  1.0000
  H   H1975     1.0  0.26215  0.78247  0.68992  1.0000
  H   H1976     1.0  0.34966  0.81125  0.80021  1.0000
  H   H1977     1.0  0.40374  0.81683  0.89367  1.0000
  H   H1978     1.0  0.17605  0.85302  0.67480  1.0000
  C   C1164     1.0  0.19253  0.96018  0.70436  1.0000
  H   H1979     1.0  0.15941  0.77802  0.81470  1.0000
  C   C1165     1.0  0.22680  0.83505  0.68418  1.0000
  S   S332      1.0  0.44345  0.86815  0.80114  1.0000
  H   H1980     1.0  0.39451  0.97673  0.75184  1.0000
  H   H1981     1.0  0.47405  0.78483  0.80583  1.0000
  H   H1982     1.0  0.45606  0.79810  0.94427  1.0000
  H   H1983     1.0  0.24250  0.85354  0.82279  1.0000
  H   H1984     1.0  0.24435  0.83151  0.83641  1.0000
  H   H1985     1.0  0.22322  0.84507  0.83400  1.0000
  S   S333      1.0  0.07660  0.81264  0.66801  1.0000
  H   H1986     1.0  0.07748  0.96384  0.65676  1.0000
  H   H1987     1.0  0.13573  0.91373  0.72812  1.0000
  C   C1166     1.0  0.15500  0.83905  0.68256  1.0000
  C   C1167     1.0  0.16314  0.76942  0.80526  1.0000
  S   S334      1.0  0.31493  0.76633  0.85972  1.0000
  H   H1988     1.0  0.44687  0.82160  0.80481  1.0000
  H   H1989     1.0  0.43693  0.95761  0.82059  1.0000
  C   C1168     1.0  0.43621  0.81907  0.83229  1.0000
  H   H1990     1.0  0.04771  0.79549  0.67556  1.0000
  H   H1991     1.0  0.22417  0.82487  0.71187  1.0000
  C   C1169     1.0  0.23078  0.78963  0.71728  1.0000
  H   H1992     1.0  0.13281  0.87153  0.73313  1.0000
  C   C1170     1.0  0.28456  0.74110  0.84927  1.0000
  H   H1993     1.0  0.21236  0.83990  0.68510  1.0000
  H   H1994     1.0  0.22678  0.74876  0.89552  1.0000
  C   C1171     1.0  0.23113  0.81995  0.69975  1.0000
  H   H1995     1.0  0.13327  0.92076  0.68179  1.0000
  S   S335      1.0  0.45105  0.77845  0.92249  1.0000
  C   C1172     1.0  0.21137  0.96110  0.70445  1.0000
  H   H1996     1.0  0.39392  0.84270  0.95862  1.0000
  H   H1997     1.0  0.40774  0.97016  0.83654  1.0000
  H   H1998     1.0  0.20653  0.93807  0.65863  1.0000
  C   C1173     1.0  0.14509  0.82884  0.69650  1.0000
  C   C1174     1.0  0.42845  0.79762  0.81041  1.0000
  S   S336      1.0  0.44187  0.84426  0.76571  1.0000
  C   C1175     1.0  0.43921  0.95193  0.77060  1.0000
  H   H1999     1.0  0.40474  0.86708  0.93795  1.0000
  H   H2000     1.0  0.34198  0.76906  0.77995  1.0000
  C   C1176     1.0  0.44615  0.78134  0.83283  1.0000
  H   H2001     1.0  0.46236  0.80985  0.81795  1.0000
  H   H2002     1.0  0.42269  0.86437  0.94784  1.0000
  N   N84       1.0  0.44601  0.79406  0.81533  1.0000
  C   C1177     1.0  0.42321  0.78208  0.80736  1.0000
  C   C1178     1.0  0.09953  0.91739  0.65365  1.0000
  C   C1179     1.0  0.24658  0.79069  0.72388  1.0000
  H   H2003     1.0  0.13886  0.76267  0.80329  1.0000
  C   C1180     1.0  0.45153  0.76154  0.83290  1.0000
  H   H2004     1.0  0.16485  0.91784  0.66556  1.0000
  H   H2005     1.0  0.45043  0.74734  0.95448  1.0000
  S   S337      1.0  0.10199  0.94747  0.68457  1.0000
  C   C1181     1.0  0.47404  0.81129  0.85393  1.0000
  S   S338      1.0  0.23930  0.74555  0.83485  1.0000
  C   C1182     1.0  0.14914  0.79185  0.78239  1.0000
  S   S339      1.0  0.36258  0.76966  0.86277  1.0000
  H   H2006     1.0  0.18468  0.97387  0.70164  1.0000
  C   C1183     1.0  0.40768  0.84326  0.95824  1.0000
  C   C1184     1.0  0.46176  0.92999  0.75726  1.0000
  C   C1185     1.0  0.39692  0.76123  0.86646  1.0000
  S   S340      1.0  0.33198  0.73653  0.89110  1.0000
  H   H2007     1.0  0.31813  0.79092  0.97152  1.0000
  H   H2008     1.0  0.37391  0.74765  0.82746  1.0000
  C   C1186     1.0  0.44716  0.96510  0.75872  1.0000
  S   S341      1.0  0.47222  0.84494  0.83554  1.0000
  H   H2009     1.0  0.18491  0.95304  0.65803  1.0000
  H   H2010     1.0  0.15538  0.90094  0.66457  1.0000
  C   C1187     1.0  0.23567  0.79557  0.68484  1.0000
  H   H2011     1.0  0.29849  0.92738  0.70820  1.0000
  H   H2012     1.0  0.31191  0.96745  0.79909  1.0000
  Fe  Fe164     1.0  0.11665  0.96572  0.66316  1.0000
  H   H2013     1.0  0.19967  0.81314  0.71340  1.0000
  N   N85       1.0  0.13686  0.89708  0.70207  1.0000
  H   H2014     1.0  0.11842  0.86555  0.69560  1.0000
  H   H2015     1.0  0.11214  0.92114  0.73373  1.0000
  C   C1188     1.0  0.29579  0.96364  0.75157  1.0000
  H   H2016     1.0  0.45145  0.80269  0.77784  1.0000
  H   H2017     1.0  0.42225  0.80997  0.96880  1.0000
  C   C1189     1.0  0.15962  0.90612  0.67358  1.0000
  H   H2018     1.0  0.43631  0.97588  0.80269  1.0000
  C   C1190     1.0  0.19881  0.95167  0.65861  1.0000
  H   H2019     1.0  0.07547  0.92703  0.69930  1.0000
  H   H2020     1.0  0.16085  0.87690  0.70367  1.0000
  H   H2021     1.0  0.10944  0.87672  0.71302  1.0000
  C   C1191     1.0  0.14392  0.91175  0.68826  1.0000
  H   H2022     1.0  0.18889  0.78259  0.75210  1.0000
  H   H2023     1.0  0.16631  0.96594  0.68640  1.0000
  H   H2024     1.0  0.29722  0.96036  0.71718  1.0000
  C   C1192     1.0  0.12361  0.91860  0.72275  1.0000
  C   C1193     1.0  0.17914  0.79091  0.78427  1.0000
  H   H2025     1.0  0.24971  0.74686  0.89416  1.0000
  H   H2026     1.0  0.18323  0.76478  0.74770  1.0000
  C   C1194     1.0  0.13149  0.88640  0.69278  1.0000
  H   H2027     1.0  0.20323  0.78468  0.69355  1.0000
  C   C1195     1.0  0.40775  0.97835  0.74357  1.0000
  H   H2028     1.0  0.12260  0.89513  0.68404  1.0000
  H   H2029     1.0  0.25022  0.95943  0.72066  1.0000
  C   C1196     1.0  0.13801  0.80290  0.79589  1.0000
  Fe  Fe165     1.0  0.33563  0.76310  0.87492  1.0000
  H   H2030     1.0  0.25418  0.96688  0.74801  1.0000
  H   H2031     1.0  0.42149  0.75566  0.91299  1.0000
  H   H2032     1.0  0.14323  0.87974  0.68416  1.0000
  Fe  Fe166     1.0  0.12638  0.84470  0.65408  1.0000
  H   H2033     1.0  0.17440  0.79925  0.79399  1.0000
  H   H2034     1.0  0.06889  0.74643  0.65423  1.0000
  Fe  Fe167     1.0  0.20812  0.97752  0.75256  1.0000
  H   H2035     1.0  0.24545  0.81823  0.69899  1.0000
  C   C1197     1.0  0.03792  0.98317  0.64313  1.0000
  H   H2036     1.0  0.29495  0.94924  0.69579  1.0000
  C   C1198     1.0  0.29029  0.94079  0.70864  1.0000
  C   C1199     1.0  0.17307  0.76708  0.77475  1.0000
  C   C1200     1.0  0.04265  0.79635  0.65070  1.0000
  C   C1201     1.0  0.34044  0.79949  0.82692  1.0000
  H   H2037     1.0  0.44165  0.94324  0.70925  1.0000
  C   C1202     1.0  0.12200  0.87176  0.70428  1.0000
  H   H2038     1.0  0.12413  0.93142  0.71341  1.0000
  H   H2039     1.0  0.26543  0.96301  0.81001  1.0000
  H   H2040     1.0  0.46523  0.81684  0.86467  1.0000
  H   H2041     1.0  0.41888  0.95188  0.71749  1.0000
  H   H2042     1.0  0.14561  0.81120  0.79814  1.0000
  Fe  Fe168     1.0  0.47009  0.85765  0.80786  1.0000
  H   H2043     1.0  0.18473  0.75700  0.77854  1.0000
  C   C1203     1.0  0.48163  0.76009  0.93353  1.0000
  H   H2044     1.0  0.42964  0.77390  0.96267  1.0000
  C   C1204     1.0  0.07675  0.91306  0.67997  1.0000
  C   C1205     1.0  0.43085  0.95519  0.70785  1.0000
  H   H2045     1.0  0.15924  0.89476  0.71289  1.0000
  C   C1206     1.0  0.38054  0.75629  0.87188  1.0000
  H   H2046     1.0  0.14552  0.88246  0.74009  1.0000
  C   C1207     1.0  0.05443  0.97319  0.67516  1.0000
  C   C1208     1.0  0.10492  0.92885  0.66015  1.0000
  H   H2047     1.0  0.20477  0.77310  0.77596  1.0000
  C   C1209     1.0  0.19814  0.78094  0.78602  1.0000
  S   S342      1.0  0.46537  0.88112  0.76082  1.0000
  H   H2048     1.0  0.24489  0.97703  0.80541  1.0000
  C   C1210     1.0  0.30833  0.79221  0.96377  1.0000
  H   H2049     1.0  0.44074  0.96550  0.72377  1.0000
  H   H2050     1.0  0.13260  0.79461  0.80852  1.0000
  H   H2051     1.0  0.29216  0.96179  0.81318  1.0000
  H   H2052     1.0  0.44315  0.75736  0.82690  1.0000
  H   H2053     1.0  0.11573  0.93502  0.65237  1.0000
  H   H2054     1.0  0.26648  0.97240  0.70790  1.0000
  H   H2055     1.0  0.06553  0.90736  0.68747  1.0000
  H   H2056     1.0  0.48191  0.75031  0.92684  1.0000
  C   C1211     1.0  0.25669  0.96984  0.72040  1.0000
  H   H2057     1.0  0.24652  0.96651  0.82726  1.0000
  C   C1212     1.0  0.05268  0.95212  0.65103  1.0000
  H   H2058     1.0  0.39953  0.97645  0.72165  1.0000
  Fe  Fe169     1.0  0.09220  0.87186  0.65007  1.0000
  H   H2059     1.0  0.44882  0.81636  0.96616  1.0000
  C   C1213     1.0  0.29724  0.97079  0.80095  1.0000
  C   C1214     1.0  0.48014  0.78388  0.95295  1.0000
  H   H2060     1.0  0.47447  0.79263  0.77409  1.0000
  H   H2061     1.0  0.26092  0.78779  0.66758  1.0000
  H   H2062     1.0  0.18424  0.79474  0.70759  1.0000
  H   H2063     1.0  0.03200  0.78941  0.65640  1.0000
  H   H2064     1.0  0.34327  0.80971  0.83172  1.0000
  H   H2065     1.0  0.41680  0.96528  0.74561  1.0000
  H   H2066     1.0  0.47952  0.79321  0.96025  1.0000
  S   S343      1.0  0.14587  0.95964  0.65200  1.0000
  C   C1215     1.0  0.44571  0.83092  0.96303  1.0000
  H   H2067     1.0  0.20294  0.81558  0.69044  1.0000
  H   H2068     1.0  0.37417  0.76983  0.82582  1.0000
  H   H2069     1.0  0.17567  0.76049  0.80814  1.0000
  H   H2070     1.0  0.04106  0.98190  0.67613  1.0000
  C   C1216     1.0  0.42777  0.96845  0.81365  1.0000
  C   C1217     1.0  0.41536  0.97941  0.82674  1.0000
  H   H2071     1.0  0.40392  0.97685  0.69223  1.0000
  H   H2072     1.0  0.39903  0.97671  0.78999  1.0000
  C   C1218     1.0  0.49188  0.81511  0.82447  1.0000
  H   H2073     1.0  0.26762  0.79274  0.97214  1.0000
  H   H2074     1.0  0.12437  0.76132  0.65853  1.0000
  C   C1219     1.0  0.36137  0.73940  0.93535  1.0000
  H   H2075     1.0  0.04130  0.93240  0.64756  1.0000
  H   H2076     1.0  0.24611  0.98196  0.72068  1.0000
  H   H2077     1.0  0.31092  0.76426  0.96972  1.0000
  H   H2078     1.0  0.14315  0.75662  0.82449  1.0000
  C   C1220     1.0  0.10540  0.73778  0.65544  1.0000
  H   H2079     1.0  0.05573  0.73841  0.68487  1.0000
  H   H2080     1.0  0.38898  0.81588  0.97169  1.0000
  H   H2081     1.0  0.19121  0.74071  0.90809  1.0000
  H   H2082     1.0  0.41376  0.74378  0.93436  1.0000
  C   C1221     1.0  0.34514  0.74237  0.93063  1.0000
  H   H2083     1.0  0.20471  0.95998  0.64620  1.0000
  H   H2084     1.0  0.09663  0.75445  0.68092  1.0000
  S   S344      1.0  0.48920  0.75264  0.89169  1.0000
  H   H2085     1.0  0.42806  0.74647  0.95818  1.0000
  S   S345      1.0  0.07598  0.89855  0.65391  1.0000
  H   H2086     1.0  0.15644  0.74410  0.80841  1.0000
  H   H2087     1.0  0.28014  0.75558  0.96422  1.0000
  C   C1222     1.0  0.43268  0.76207  0.97307  1.0000
  S   S346      1.0  0.20948  0.74571  0.95821  1.0000
  H   H2088     1.0  0.38621  0.98073  0.85621  1.0000
  H   H2089     1.0  0.08402  0.77465  0.67127  1.0000
  H   H2090     1.0  0.02764  0.97882  0.65470  1.0000
  Fe  Fe170     1.0  0.30979  0.74096  0.87791  1.0000
  H   H2091     1.0  0.45750  0.83494  0.96382  1.0000
  C   C1223     1.0  0.25909  0.73492  0.95157  1.0000
  H   H2092     1.0  0.47045  0.74555  0.97112  1.0000
  H   H2093     1.0  0.24938  0.74751  0.95269  1.0000
  C   C1224     1.0  0.25735  0.73732  0.84496  1.0000
  C   C1225     1.0  0.37880  0.74078  0.88439  1.0000
  N   N86       1.0  0.09177  0.75475  0.65592  1.0000
  H   H2094     1.0  0.11112  0.78253  0.65020  1.0000
  Fe  Fe171     1.0  0.49009  0.86965  0.77130  1.0000
  H   H2095     1.0  0.27241  0.73753  0.94930  1.0000
  S   S347      1.0  0.19462  0.73761  0.83484  1.0000
  H   H2096     1.0  0.11886  0.74044  0.64956  1.0000
  S   S348      1.0  0.49294  0.76350  0.84271  1.0000
  H   H2097     1.0  0.36636  0.73680  0.88868  1.0000
  H   H2098     1.0  0.42386  0.98248  0.83370  1.0000
  Fe  Fe172     1.0  0.03711  0.73420  0.64268  1.0000
  Fe  Fe173     1.0  0.21574  0.73375  0.84929  1.0000
  N   N87       1.0  0.05560  0.97062  0.64399  1.0000
  H   H2099     1.0  0.07885  0.73352  0.82233  1.0000
  C   C1226     1.0  0.49437  0.76935  0.95213  1.0000
  H   H2100     1.0  0.42894  0.85239  0.97483  1.0000
  C   C1227     1.0  0.57426  0.08111  0.04232  1.0000
  C   C1228     1.0  0.79673  0.20751  0.03161  1.0000
  H   H2101     1.0  0.88599  0.04148  0.26502  1.0000
  S   S349      1.0  0.49892  0.07963  0.98460  1.0000
  H   H2102     1.0  0.89443  0.16004  0.14387  1.0000
  C   C1229     1.0  0.89875  0.04343  0.30161  1.0000
  Fe  Fe174     1.0  0.61843  0.11042  0.97766  1.0000
  H   H2103     1.0  0.56903  0.03114  0.05008  1.0000
  S   S350      1.0  0.72119  0.19648  0.02838  1.0000
  H   H2104     1.0  0.74477  0.20803  0.05808  1.0000
  H   H2105     1.0  0.77997  0.20124  0.01896  1.0000
  S   S351      1.0  0.50553  0.98634  0.05097  1.0000
  H   H2106     1.0  0.90093  0.01298  0.29487  1.0000
  H   H2107     1.0  0.55923  0.98901  0.01941  1.0000
  C   C1230     1.0  0.68835  0.98598  0.16827  1.0000
  Fe  Fe175     1.0  0.96851  0.20270  0.15641  1.0000
  S   S352      1.0  0.97889  0.18875  0.13426  1.0000
  S   S353      1.0  0.96649  0.19190  0.18546  1.0000
  C   C1231     1.0  0.58174  0.99529  0.10528  1.0000
  N   N88       1.0  0.58687  0.04897  0.03897  1.0000
  Fe  Fe176     1.0  0.95345  0.20379  0.12588  1.0000
  S   S354      1.0  0.93564  0.18920  0.12141  1.0000
  H   H2108     1.0  0.51828  0.02718  0.04226  1.0000
  S   S355      1.0  0.94251  0.21615  0.14903  1.0000
  Fe  Fe177     1.0  0.83713  0.18906  0.10596  1.0000
  S   S356      1.0  0.85199  0.19683  0.07822  1.0000
  S   S357      1.0  0.84524  0.16081  0.11979  1.0000
  H   H2109     1.0  0.69389  0.11939  0.05478  1.0000
  H   H2110     1.0  0.53332  0.11634  0.00806  1.0000
  H   H2111     1.0  0.96992  0.22769  0.17800  1.0000
  H   H2112     1.0  0.66459  0.98996  0.01709  1.0000
  H   H2113     1.0  0.78416  0.22163  0.07327  1.0000
  H   H2114     1.0  0.76932  0.21480  0.10186  1.0000
  C   C1232     1.0  0.70439  0.98576  0.18962  1.0000
  S   S358      1.0  0.81033  0.20273  0.10015  1.0000
  S   S359      1.0  0.84088  0.21144  0.11461  1.0000
  Fe  Fe178     1.0  0.63723  0.99690  0.12421  1.0000
  S   S360      1.0  0.98209  0.06922  0.24642  1.0000
  H   H2115     1.0  0.56256  0.09198  0.04037  1.0000
  Fe  Fe179     1.0  0.52463  0.06960  0.99347  1.0000
  S   S361      1.0  0.97294  0.06989  0.28792  1.0000
  S   S362      1.0  0.69285  0.16941  0.01918  1.0000
  H   H2116     1.0  0.87669  0.14873  0.14801  1.0000
  Fe  Fe180     1.0  0.95813  0.07765  0.26660  1.0000
  S   S363      1.0  0.93154  0.07050  0.27433  1.0000
  H   H2117     1.0  0.51116  0.02447  0.08182  1.0000
  S   S364      1.0  0.96017  0.10579  0.25957  1.0000
  Fe  Fe181     1.0  0.83012  0.09070  0.25205  1.0000
  S   S365      1.0  0.85159  0.06884  0.24287  1.0000
  S   S366      1.0  0.81821  0.08780  0.28094  1.0000
  Fe  Fe182     1.0  0.82689  0.11018  0.21493  1.0000
  S   S367      1.0  0.84782  0.08954  0.20301  1.0000
  S   S368      1.0  0.81146  0.13433  0.19958  1.0000
  Fe  Fe183     1.0  0.83473  0.07022  0.22462  1.0000
  S   S369      1.0  0.83183  0.04431  0.22201  1.0000
  Fe  Fe184     1.0  0.86249  0.09025  0.22231  1.0000
  S   S370      1.0  0.89147  0.09041  0.21297  1.0000
  S   S371      1.0  0.81249  0.09074  0.23503  1.0000
  S   S372      1.0  0.84242  0.11223  0.23297  1.0000
  S   S373      1.0  0.62490  0.08182  0.98989  1.0000
  S   S374      1.0  0.72134  0.20239  0.98706  1.0000
  H   H2118     1.0  0.75946  0.22244  0.04873  1.0000
  Fe  Fe185     1.0  0.75911  0.00446  0.21367  1.0000
  S   S375      1.0  0.76343  0.03221  0.20704  1.0000
  H   H2119     1.0  0.54806  0.00688  0.99319  1.0000
  H   H2120     1.0  0.56486  0.04549  0.01868  1.0000
  Fe  Fe186     1.0  0.67538  0.99490  0.12572  1.0000
  Fe  Fe187     1.0  0.81540  0.22591  0.10636  1.0000
  S   S376      1.0  0.69517  0.00416  0.13397  1.0000
  Fe  Fe188     1.0  0.66639  0.99490  0.09190  1.0000
  S   S377      1.0  0.67279  0.00377  0.06255  1.0000
  H   H2121     1.0  0.61130  0.99814  0.99398  1.0000
  H   H2122     1.0  0.93920  0.16920  0.16809  1.0000
  H   H2123     1.0  0.57365  0.02898  0.13369  1.0000
  H   H2124     1.0  0.58181  0.02636  0.07628  1.0000
  Fe  Fe189     1.0  0.55132  0.98812  0.08251  1.0000
  S   S378      1.0  0.66283  0.08833  0.99164  1.0000
  H   H2125     1.0  0.74338  0.00199  0.26187  1.0000
  H   H2126     1.0  0.75927  0.06777  0.26639  1.0000
  C   C1233     1.0  0.75834  0.22661  0.10013  1.0000
  Fe  Fe190     1.0  0.63522  0.09056  0.00797  1.0000
  S   S379      1.0  0.62742  0.07907  0.03669  1.0000
  H   H2127     1.0  0.96952  0.22635  0.20015  1.0000
  H   H2128     1.0  0.97252  0.09429  0.19297  1.0000
  H   H2129     1.0  0.92003  0.09147  0.29988  1.0000
  H   H2130     1.0  0.62514  0.03416  0.03014  1.0000
  H   H2131     1.0  0.91179  0.12265  0.17416  1.0000
  H   H2132     1.0  0.65344  0.14555  0.00057  1.0000
  H   H2133     1.0  0.93366  0.12563  0.16756  1.0000
  C   C1234     1.0  0.65958  0.02427  0.05512  1.0000
  C   C1235     1.0  0.64519  0.03214  0.06665  1.0000
  C   C1236     1.0  0.63539  0.04897  0.06087  1.0000
  C   C1237     1.0  0.63960  0.05780  0.04342  1.0000
  C   C1238     1.0  0.65351  0.04965  0.03166  1.0000
  C   C1239     1.0  0.66355  0.03292  0.03754  1.0000
  H   H2134     1.0  0.64166  0.02535  0.08009  1.0000
  H   H2135     1.0  0.62460  0.05517  0.07002  1.0000
  H   H2136     1.0  0.75404  0.05586  0.29870  1.0000
  H   H2137     1.0  0.76081  0.20500  0.07998  1.0000
  C   C1240     1.0  0.65124  0.99586  0.02404  1.0000
  C   C1241     1.0  0.71395  0.99730  0.17700  1.0000
  C   C1242     1.0  0.71067  0.00320  0.16008  1.0000
  C   C1243     1.0  0.69796  0.99745  0.15563  1.0000
  H   H2138     1.0  0.80042  0.21794  0.02075  1.0000
  H   H2139     1.0  0.60574  0.03400  0.05495  1.0000
  H   H2140     1.0  0.72366  0.00190  0.18033  1.0000
  H   H2141     1.0  0.71806  0.01217  0.15036  1.0000
  N   N89       1.0  0.88309  0.03654  0.30189  1.0000
  H   H2142     1.0  0.93860  0.09860  0.30199  1.0000
  C   C1244     1.0  0.81275  0.04146  0.21756  1.0000
  C   C1245     1.0  0.79820  0.05536  0.21513  1.0000
  C   C1246     1.0  0.78311  0.05236  0.21195  1.0000
  C   C1247     1.0  0.78247  0.03550  0.21122  1.0000
  C   C1248     1.0  0.79706  0.02168  0.21362  1.0000
  C   C1249     1.0  0.81213  0.02466  0.21676  1.0000
  H   H2143     1.0  0.79848  0.06831  0.21594  1.0000
  H   H2144     1.0  0.77177  0.06306  0.21025  1.0000
  H   H2145     1.0  0.79689  0.00873  0.21276  1.0000
  H   H2146     1.0  0.82337  0.01386  0.21855  1.0000
  C   C1250     1.0  0.90243  0.08454  0.23017  1.0000
  C   C1251     1.0  0.92096  0.08000  0.22660  1.0000
  C   C1252     1.0  0.93002  0.07602  0.24008  1.0000
  C   C1253     1.0  0.92050  0.07633  0.25718  1.0000
  C   C1254     1.0  0.90195  0.08082  0.26077  1.0000
  C   C1255     1.0  0.89290  0.08488  0.24728  1.0000
  H   H2147     1.0  0.92830  0.07948  0.21340  1.0000
  H   H2148     1.0  0.94434  0.07241  0.23729  1.0000
  H   H2149     1.0  0.89458  0.08149  0.27392  1.0000
  H   H2150     1.0  0.87859  0.08854  0.25007  1.0000
  H   H2151     1.0  0.68571  0.12534  0.03577  1.0000
  H   H2152     1.0  0.57539  0.07904  0.05601  1.0000
  H   H2153     1.0  0.93276  0.11319  0.23646  1.0000
  H   H2154     1.0  0.92068  0.15906  0.17503  1.0000
  H   H2155     1.0  0.91827  0.13193  0.24367  1.0000
  C   C1256     1.0  0.83537  0.15364  0.14182  1.0000
  C   C1257     1.0  0.81963  0.16342  0.15006  1.0000
  C   C1258     1.0  0.81226  0.15730  0.16779  1.0000
  C   C1259     1.0  0.82080  0.14159  0.17738  1.0000
  C   C1260     1.0  0.83662  0.13195  0.16913  1.0000
  C   C1261     1.0  0.84373  0.13782  0.15134  1.0000
  H   H2156     1.0  0.81309  0.17563  0.14274  1.0000
  H   H2157     1.0  0.80001  0.16483  0.17412  1.0000
  H   H2158     1.0  0.84344  0.12000  0.17639  1.0000
  H   H2159     1.0  0.85592  0.13022  0.14499  1.0000
  C   C1262     1.0  0.97475  0.16930  0.19296  1.0000
  C   C1263     1.0  0.97008  0.16164  0.21081  1.0000
  C   C1264     1.0  0.97608  0.14356  0.21710  1.0000
  H   H2160     1.0  0.98948  0.16460  0.16770  1.0000
  S   S380      1.0  0.75694  0.20358  0.99846  1.0000
  H   H2161     1.0  0.66302  0.19675  0.99112  1.0000
  H   H2162     1.0  0.96173  0.16971  0.21981  1.0000
  Fe  Fe191     1.0  0.74980  0.18830  0.98373  1.0000
  H   H2163     1.0  0.87640  0.18175  0.18299  1.0000
  C   C1265     1.0  0.61742  0.03789  0.01987  1.0000
  C   C1266     1.0  0.92070  0.20067  0.10778  1.0000
  C   C1267     1.0  0.92228  0.21698  0.09667  1.0000
  Fe  Fe192     1.0  0.97681  0.09737  0.27966  1.0000
  Fe  Fe193     1.0  0.85358  0.22026  0.08644  1.0000
  C   C1268     1.0  0.89340  0.20287  0.09923  1.0000
  C   C1269     1.0  0.90660  0.19339  0.10852  1.0000
  H   H2164     1.0  0.92661  0.16847  0.18984  1.0000
  C   C1270     1.0  0.73815  0.00778  0.30273  1.0000
  H   H2165     1.0  0.88235  0.19730  0.10021  1.0000
  H   H2166     1.0  0.90583  0.18046  0.11646  1.0000
  H   H2167     1.0  0.77069  0.06390  0.24493  1.0000
  H   H2168     1.0  0.56710  0.07002  0.99169  1.0000
  H   H2169     1.0  0.58598  0.08566  0.03321  1.0000
  H   H2170     1.0  0.85543  0.20739  0.15524  1.0000
  S   S381      1.0  0.53180  0.08051  0.01225  1.0000
  N   N90       1.0  0.75620  0.23214  0.08141  1.0000
  H   H2171     1.0  0.87502  0.06071  0.28336  1.0000
  C   C1271     1.0  0.67934  0.14269  0.98356  1.0000
  C   C1272     1.0  0.83150  0.19789  0.16422  1.0000
  C   C1273     1.0  0.68818  0.15872  0.00550  1.0000
  H   H2172     1.0  0.82435  0.18942  0.17556  1.0000
  H   H2173     1.0  0.59580  0.05787  0.01097  1.0000
  C   C1274     1.0  0.59235  0.00771  0.12334  1.0000
  C   C1275     1.0  0.85312  0.04762  0.29209  1.0000
  C   C1276     1.0  0.83093  0.08991  0.29435  1.0000
  C   C1277     1.0  0.84637  0.09644  0.28728  1.0000
  C   C1278     1.0  0.85624  0.09784  0.29840  1.0000
  H   H2174     1.0  0.91064  0.12078  0.23228  1.0000
  Fe  Fe194     1.0  0.65380  0.11645  0.97867  1.0000
  H   H2175     1.0  0.85061  0.10058  0.27327  1.0000
  H   H2176     1.0  0.86810  0.10302  0.29286  1.0000
  H   H2177     1.0  0.91580  0.11521  0.20617  1.0000
  H   H2178     1.0  0.85551  0.17713  0.14180  1.0000
  H   H2179     1.0  0.84233  0.15339  0.20229  1.0000
  C   C1279     1.0  0.55910  0.11918  0.99212  1.0000
  C   C1280     1.0  0.77152  0.06850  0.25618  1.0000
  H   H2180     1.0  0.94405  0.10217  0.21106  1.0000
  C   C1281     1.0  0.50171  0.02207  0.07554  1.0000
  H   H2181     1.0  0.90973  0.03244  0.30559  1.0000
  H   H2182     1.0  0.73615  0.02557  0.27792  1.0000
  S   S382      1.0  0.73396  0.99889  0.23275  1.0000
  H   H2183     1.0  0.92920  0.10478  0.18101  1.0000
  C   C1282     1.0  0.58139  0.04064  0.07267  1.0000
  C   C1283     1.0  0.56490  0.08369  0.99197  1.0000
  H   H2184     1.0  0.56778  0.06875  0.02583  1.0000
  Fe  Fe195     1.0  0.98561  0.09696  0.24112  1.0000
  C   C1284     1.0  0.68450  0.11648  0.04884  1.0000
  H   H2185     1.0  0.95791  0.11501  0.21219  1.0000
  H   H2186     1.0  0.73922  0.20973  0.11421  1.0000
  H   H2187     1.0  0.73601  0.23083  0.05672  1.0000
  H   H2188     1.0  0.90923  0.13695  0.19569  1.0000
  H   H2189     1.0  0.82387  0.21161  0.16398  1.0000
  H   H2190     1.0  0.55924  0.06123  0.04810  1.0000
  C   C1285     1.0  0.59116  0.01016  0.97895  1.0000
  C   C1286     1.0  0.57508  0.03365  0.02226  1.0000
  C   C1287     1.0  0.57601  0.01959  0.12573  1.0000
  N   N91       1.0  0.78827  0.04314  0.27733  1.0000
  C   C1288     1.0  0.80645  0.03113  0.27606  1.0000
  C   C1289     1.0  0.77565  0.03248  0.27732  1.0000
  C   C1290     1.0  0.78901  0.05889  0.26223  1.0000
  C   C1291     1.0  0.82134  0.03885  0.27739  1.0000
  C   C1292     1.0  0.78022  0.02440  0.26118  1.0000
  C   C1293     1.0  0.70085  0.15373  0.99109  1.0000
  H   H2191     1.0  0.81108  0.02703  0.26331  1.0000
  H   H2192     1.0  0.79416  0.06877  0.26533  1.0000
  H   H2193     1.0  0.79861  0.05494  0.25049  1.0000
  H   H2194     1.0  0.82150  0.05209  0.26887  1.0000
  H   H2195     1.0  0.87211  0.18912  0.13635  1.0000
  H   H2196     1.0  0.83433  0.03020  0.27315  1.0000
  H   H2197     1.0  0.79091  0.01236  0.26228  1.0000
  H   H2198     1.0  0.76850  0.02050  0.26012  1.0000
  H   H2199     1.0  0.49793  0.05458  0.07724  1.0000
  H   H2200     1.0  0.77167  0.08266  0.25111  1.0000
  N   N92       1.0  0.68478  0.09152  0.03449  1.0000
  C   C1294     1.0  0.69308  0.07228  0.03522  1.0000
  C   C1295     1.0  0.69187  0.10147  0.01642  1.0000
  C   C1296     1.0  0.66496  0.09371  0.03761  1.0000
  C   C1297     1.0  0.74233  0.99861  0.27579  1.0000
  C   C1298     1.0  0.71191  0.10093  0.01165  1.0000
  C   C1299     1.0  0.65413  0.11203  0.03078  1.0000
  H   H2201     1.0  0.69117  0.06819  0.02403  1.0000
  H   H2202     1.0  0.70764  0.06961  0.03394  1.0000
  H   H2203     1.0  0.68532  0.11554  0.01424  1.0000
  H   H2204     1.0  0.68885  0.09664  0.00634  1.0000
  H   H2205     1.0  0.66191  0.08479  0.03125  1.0000
  H   H2206     1.0  0.65901  0.08979  0.05179  1.0000
  H   H2207     1.0  0.58651  0.03275  0.01099  1.0000
  Fe  Fe196     1.0  0.74984  0.18283  0.02208  1.0000
  Fe  Fe197     1.0  0.71716  0.18116  0.01120  1.0000
  H   H2208     1.0  0.72000  0.08757  0.01093  1.0000
  H   H2209     1.0  0.71519  0.10942  0.99844  1.0000
  H   H2210     1.0  0.71585  0.10626  0.02074  1.0000
  H   H2211     1.0  0.65637  0.11489  0.01633  1.0000
  H   H2212     1.0  0.65686  0.12266  0.03486  1.0000
  N   N93       1.0  0.80503  0.09651  0.16525  1.0000
  C   C1300     1.0  0.78756  0.09807  0.17842  1.0000
  C   C1301     1.0  0.80508  0.08404  0.15460  1.0000
  C   C1302     1.0  0.80575  0.11455  0.15373  1.0000
  C   C1303     1.0  0.81970  0.09001  0.17515  1.0000
  C   C1304     1.0  0.78410  0.11104  0.19026  1.0000
  C   C1305     1.0  0.80452  0.06499  0.16476  1.0000
  C   C1306     1.0  0.81924  0.11567  0.13605  1.0000
  C   C1307     1.0  0.83875  0.08417  0.16483  1.0000
  H   H2213     1.0  0.77627  0.10196  0.17175  1.0000
  H   H2214     1.0  0.78633  0.08523  0.18747  1.0000
  H   H2215     1.0  0.81678  0.08315  0.14361  1.0000
  H   H2216     1.0  0.79358  0.08906  0.14815  1.0000
  H   H2217     1.0  0.79261  0.12134  0.15050  1.0000
  H   H2218     1.0  0.80860  0.12301  0.16071  1.0000
  H   H2219     1.0  0.82021  0.10037  0.18133  1.0000
  H   H2220     1.0  0.81691  0.07903  0.18652  1.0000
  H   H2221     1.0  0.79354  0.10679  0.19902  1.0000
  H   H2222     1.0  0.78435  0.12467  0.18276  1.0000
  H   H2223     1.0  0.77067  0.11136  0.19886  1.0000
  H   H2224     1.0  0.80668  0.05668  0.15532  1.0000
  H   H2225     1.0  0.81504  0.05916  0.17233  1.0000
  H   H2226     1.0  0.79139  0.06400  0.17354  1.0000
  H   H2227     1.0  0.81930  0.12972  0.12992  1.0000
  H   H2228     1.0  0.81545  0.11045  0.12677  1.0000
  H   H2229     1.0  0.83294  0.10920  0.13734  1.0000
  H   H2230     1.0  0.84595  0.09497  0.16084  1.0000
  H   H2231     1.0  0.83971  0.07930  0.15322  1.0000
  H   H2232     1.0  0.84601  0.07294  0.17336  1.0000
  N   N94       1.0  0.93626  0.12986  0.19953  1.0000
  C   C1308     1.0  0.92938  0.13748  0.21566  1.0000
  C   C1309     1.0  0.94439  0.14334  0.18500  1.0000
  C   C1310     1.0  0.95024  0.11341  0.20355  1.0000
  C   C1311     1.0  0.92089  0.12572  0.19555  1.0000
  C   C1312     1.0  0.92243  0.12493  0.23281  1.0000
  C   C1313     1.0  0.93171  0.16092  0.17941  1.0000
  C   C1314     1.0  0.96429  0.10725  0.18801  1.0000
  C   C1315     1.0  0.92439  0.11927  0.17863  1.0000
  H   H2233     1.0  0.93992  0.14233  0.21813  1.0000
  H   H2234     1.0  0.91826  0.14906  0.21390  1.0000
  H   H2235     1.0  0.95094  0.13838  0.17293  1.0000
  H   H2236     1.0  0.95520  0.14639  0.18881  1.0000
  C   C1316     1.0  0.78328  0.04864  0.29453  1.0000
  H   H2237     1.0  0.65251  0.00171  0.03419  1.0000
  C   C1317     1.0  0.99177  0.14076  0.18775  1.0000
  C   C1318     1.0  0.54862  0.09208  0.00097  1.0000
  C   C1319     1.0  0.56272  0.01953  0.11778  1.0000
  C   C1320     1.0  0.98692  0.13306  0.20556  1.0000
  H   H2238     1.0  0.63979  0.11215  0.03591  1.0000
  H   H2239     1.0  0.58528  0.04431  0.08297  1.0000
  C   C1321     1.0  0.75076  0.21751  0.07762  1.0000
  H   H2240     1.0  0.58395  0.98584  0.09749  1.0000
  H   H2241     1.0  0.59997  0.05623  0.05509  1.0000
  H   H2242     1.0  0.89978  0.02041  0.26342  1.0000
  C   C1322     1.0  0.68952  0.09678  0.04861  1.0000
  H   H2243     1.0  0.97353  0.11626  0.18194  1.0000
  C   C1323     1.0  0.56183  0.00511  0.99336  1.0000
  H   H2244     1.0  0.86067  0.16198  0.20158  1.0000
  C   C1324     1.0  0.88144  0.16094  0.14119  1.0000
  C   C1325     1.0  0.89635  0.03103  0.27065  1.0000
  H   H2245     1.0  0.90854  0.03604  0.26791  1.0000
  H   H2246     1.0  0.65667  0.05626  0.01810  1.0000
  H   H2247     1.0  0.67454  0.02680  0.02852  1.0000
  H   H2248     1.0  0.61384  0.02617  0.01864  1.0000
  H   H2249     1.0  0.61962  0.99884  0.07634  1.0000
  Fe  Fe198     1.0  0.50017  0.05123  0.98667  1.0000
  S   S383      1.0  0.65678  0.01387  0.10954  1.0000
  H   H2250     1.0  0.70389  0.09195  0.04859  1.0000
  S   S384      1.0  0.87764  0.23199  0.07778  1.0000
  H   H2251     1.0  0.78348  0.03689  0.30556  1.0000
  H   H2252     1.0  0.84849  0.05786  0.28115  1.0000
  C   C1326     1.0  0.86921  0.05185  0.29541  1.0000
  H   H2253     1.0  0.69757  0.98655  0.28111  1.0000
  H   H2254     1.0  0.53298  0.03455  0.06250  1.0000
  H   H2255     1.0  0.80390  0.18684  0.07217  1.0000
  H   H2256     1.0  0.67089  0.12009  0.05672  1.0000
  H   H2257     1.0  0.78325  0.17005  0.07032  1.0000
  C   C1327     1.0  0.92446  0.10261  0.30135  1.0000
  C   C1328     1.0  0.69639  0.14582  0.98012  1.0000
  H   H2258     1.0  0.68300  0.09012  0.06174  1.0000
  C   C1329     1.0  0.52749  0.04454  0.05189  1.0000
  C   C1330     1.0  0.85058  0.19657  0.16567  1.0000
  C   C1331     1.0  0.88985  0.02343  0.29032  1.0000
  C   C1332     1.0  0.66674  0.14751  0.99806  1.0000
  C   C1333     1.0  0.79863  0.19005  0.06059  1.0000
  Fe  Fe199     1.0  0.72813  0.21622  0.00367  1.0000
  H   H2259     1.0  0.60764  0.98607  0.11146  1.0000
  C   C1334     1.0  0.57847  0.09290  0.98360  1.0000
  H   H2260     1.0  0.55024  0.02894  0.11961  1.0000
  C   C1335     1.0  0.78697  0.18054  0.05951  1.0000
  H   H2261     1.0  0.64516  0.00712  0.01468  1.0000
  S   S385      1.0  0.74538  0.16585  0.00674  1.0000
  C   C1336     1.0  0.68613  0.05934  0.05202  1.0000
  C   C1337     1.0  0.84928  0.16431  0.19550  1.0000
  C   C1338     1.0  0.57550  0.11075  0.98349  1.0000
  C   C1339     1.0  0.59522  0.99551  0.11308  1.0000
  C   C1340     1.0  0.78001  0.18461  0.04455  1.0000
  S   S386      1.0  0.62700  0.11944  0.99696  1.0000
  C   C1341     1.0  0.86760  0.17744  0.14556  1.0000
  H   H2262     1.0  0.84960  0.20008  0.17818  1.0000
  H   H2263     1.0  0.88861  0.16548  0.17106  1.0000
  H   H2264     1.0  0.67173  0.06017  0.05431  1.0000
  C   C1342     1.0  0.80349  0.20362  0.04662  1.0000
  H   H2265     1.0  0.92335  0.11296  0.28926  1.0000
  H   H2266     1.0  0.53851  0.04558  0.04023  1.0000
  N   N95       1.0  0.49630  0.03773  0.06145  1.0000
  C   C1343     1.0  0.89115  0.19195  0.15776  1.0000
  C   C1344     1.0  0.54585  0.10978  0.00117  1.0000
  H   H2267     1.0  0.76183  0.04013  0.27851  1.0000
  C   C1345     1.0  0.57142  0.06457  0.03873  1.0000
  H   H2268     1.0  0.95851  0.10560  0.17797  1.0000
  H   H2269     1.0  0.68922  0.06111  0.06373  1.0000
  H   H2270     1.0  0.69279  0.04570  0.05065  1.0000
  C   C1346     1.0  0.87985  0.17885  0.16977  1.0000
  H   H2271     1.0  0.93337  0.22249  0.09567  1.0000
  C   C1347     1.0  0.85545  0.16410  0.17589  1.0000
  H   H2272     1.0  0.78424  0.03371  0.24885  1.0000
  N   N96       1.0  0.86338  0.17922  0.16425  1.0000
  C   C1348     1.0  0.89468  0.21940  0.08852  1.0000
  H   H2273     1.0  0.88663  0.06936  0.30787  1.0000
  H   H2274     1.0  0.77502  0.02146  0.28909  1.0000
  C   C1349     1.0  0.74193  0.22235  0.11431  1.0000
  C   C1350     1.0  0.60120  0.05305  0.02302  1.0000
  H   H2275     1.0  0.97237  0.13776  0.23086  1.0000
  C   C1351     1.0  0.58063  0.03311  0.03907  1.0000
  H   H2276     1.0  0.79305  0.05550  0.29545  1.0000
  H   H2277     1.0  0.60649  0.06398  0.02375  1.0000
  H   H2278     1.0  0.62651  0.04238  0.00737  1.0000
  H   H2279     1.0  0.56751  0.04780  0.07283  1.0000
  C   C1352     1.0  0.57331  0.01273  0.97874  1.0000
  H   H2280     1.0  0.74960  0.22993  0.01668  1.0000
  S   S387      1.0  0.54810  0.99842  0.05490  1.0000
  H   H2281     1.0  0.83979  0.17658  0.19806  1.0000
  S   S388      1.0  0.96957  0.11197  0.30122  1.0000
  S   S389      1.0  0.76483  0.17291  0.04388  1.0000
  H   H2282     1.0  0.88364  0.16159  0.12699  1.0000
  C   C1353     1.0  0.59422  0.04532  0.05498  1.0000
  H   H2283     1.0  0.66132  0.15928  0.02014  1.0000
  C   C1354     1.0  0.67119  0.15538  0.00905  1.0000
  C   C1355     1.0  0.62009  0.99231  0.06590  1.0000
  H   H2284     1.0  0.52313  0.05759  0.05530  1.0000
  H   H2285     1.0  0.83110  0.19468  0.15207  1.0000
  S   S390      1.0  0.98091  0.22563  0.14180  1.0000
  H   H2286     1.0  0.86505  0.15136  0.17516  1.0000
  C   C1356     1.0  0.90943  0.22618  0.08679  1.0000
  Fe  Fe200     1.0  0.82549  0.21235  0.07313  1.0000
  S   S391      1.0  0.52447  0.04114  0.99814  1.0000
  H   H2287     1.0  0.87973  0.01626  0.29109  1.0000
  H   H2288     1.0  0.61843  0.00282  0.05410  1.0000
  C   C1357     1.0  0.76526  0.06139  0.29837  1.0000
  H   H2289     1.0  0.59089  0.02086  0.04164  1.0000
  C   C1358     1.0  0.56547  0.00740  0.10758  1.0000
  H   H2290     1.0  0.82034  0.03928  0.29109  1.0000
  H   H2291     1.0  0.71401  0.15617  0.98828  1.0000
  C   C1359     1.0  0.78503  0.19808  0.03059  1.0000
  S   S392      1.0  0.60841  0.00837  0.13393  1.0000
  C   C1360     1.0  0.73841  0.01198  0.28488  1.0000
  H   H2292     1.0  0.84204  0.04768  0.30378  1.0000
  S   S393      1.0  0.81724  0.21655  0.04778  1.0000
  S   S394      1.0  0.54848  0.00851  0.09736  1.0000
  H   H2293     1.0  0.84405  0.16323  0.17136  1.0000
  H   H2294     1.0  0.80614  0.01882  0.28639  1.0000
  C   C1361     1.0  0.98567  0.15882  0.18145  1.0000
  H   H2295     1.0  0.94072  0.22856  0.18862  1.0000
  C   C1362     1.0  0.56818  0.99492  0.00818  1.0000
  H   H2296     1.0  0.56924  0.02216  0.02446  1.0000
  C   C1363     1.0  0.59754  0.99994  0.99376  1.0000
  H   H2297     1.0  0.85592  0.03520  0.28790  1.0000
  H   H2298     1.0  0.88346  0.20570  0.15590  1.0000
  H   H2299     1.0  0.76507  0.07429  0.28908  1.0000
  S   S395      1.0  0.75639  0.99049  0.19459  1.0000
  H   H2300     1.0  0.90436  0.05017  0.28821  1.0000
  C   C1364     1.0  0.51262  0.03957  0.04708  1.0000
  Fe  Fe201     1.0  0.98904  0.21303  0.11878  1.0000
  H   H2301     1.0  0.90218  0.19132  0.16373  1.0000
  H   H2302     1.0  0.55671  0.13298  0.99198  1.0000
  H   H2303     1.0  0.86361  0.06043  0.30496  1.0000
  S   S396      1.0  0.96440  0.22695  0.10852  1.0000
  H   H2304     1.0  0.73806  0.21504  0.08652  1.0000
  H   H2305     1.0  0.89737  0.18859  0.14488  1.0000
  H   H2306     1.0  0.72996  0.23302  0.11329  1.0000
  H   H2307     1.0  0.91255  0.23114  0.12636  1.0000
  C   C1365     1.0  0.58602  0.99239  0.00840  1.0000
  C   C1366     1.0  0.74769  0.22021  0.05918  1.0000
  H   H2308     1.0  0.64816  0.98681  0.06078  1.0000
  H   H2309     1.0  0.50886  0.01042  0.06983  1.0000
  H   H2310     1.0  0.50962  0.04967  0.03536  1.0000
  H   H2311     1.0  0.62530  0.98955  0.03146  1.0000
  H   H2312     1.0  0.60876  0.98576  0.07047  1.0000
  S   S397      1.0  0.99395  0.11018  0.21273  1.0000
  H   H2313     1.0  0.74466  0.22068  0.12735  1.0000
  C   C1367     1.0  0.99404  0.22977  0.18197  1.0000
  H   H2314     1.0  0.75248  0.99407  0.15483  1.0000
  H   H2315     1.0  0.59104  0.08638  0.97676  1.0000
  C   C1368     1.0  0.66574  0.19657  0.97706  1.0000
  H   H2316     1.0  0.66404  0.18364  0.97669  1.0000
  H   H2317     1.0  0.77480  0.98457  0.15786  1.0000
  H   H2318     1.0  0.76907  0.98409  0.13865  1.0000
  H   H2319     1.0  0.81258  0.03742  0.58861  1.0000
  H   H2320     1.0  0.86203  0.03208  0.46310  1.0000
  H   H2321     1.0  0.75979  0.00015  0.59165  1.0000
  Fe  Fe202     1.0  0.77898  0.02517  0.47674  1.0000
  S   S398      1.0  0.75303  0.02294  0.49535  1.0000
  S   S399      1.0  0.78998  0.04929  0.46736  1.0000
  C   C1369     1.0  0.98225  0.11993  0.59014  1.0000
  C   C1370     1.0  0.65788  0.05842  0.35942  1.0000
  Fe  Fe203     1.0  0.74977  0.00898  0.47668  1.0000
  S   S400      1.0  0.72396  0.01554  0.46849  1.0000
  S   S401      1.0  0.79421  0.99992  0.49007  1.0000
  S   S402      1.0  0.77442  0.01383  0.45690  1.0000
  Fe  Fe204     1.0  0.74786  0.02447  0.36992  1.0000
  S   S403      1.0  0.77340  0.00534  0.37295  1.0000
  S   S404      1.0  0.73184  0.04332  0.38698  1.0000
  Fe  Fe205     1.0  0.74784  0.01535  0.33633  1.0000
  S   S405      1.0  0.77312  0.99503  0.33649  1.0000
  C   C1371     1.0  0.87175  0.14505  0.46409  1.0000
  H   H2322     1.0  0.68813  0.02874  0.39576  1.0000
  Fe  Fe206     1.0  0.78248  0.01466  0.34401  1.0000
  S   S406      1.0  0.80865  0.02159  0.33030  1.0000
  S   S407      1.0  0.73536  0.00576  0.36440  1.0000
  S   S408      1.0  0.75804  0.03567  0.34177  1.0000
  Fe  Fe207     1.0  0.84533  0.06841  0.50982  1.0000
  S   S409      1.0  0.81832  0.08495  0.51743  1.0000
  S   S410      1.0  0.84824  0.04078  0.50837  1.0000
  Fe  Fe208     1.0  0.86401  0.09703  0.50538  1.0000
  S   S411      1.0  0.83875  0.11641  0.51253  1.0000
  S   S412      1.0  0.89028  0.10482  0.49652  1.0000
  Fe  Fe209     1.0  0.83086  0.09377  0.53375  1.0000
  Fe  Fe210     1.0  0.82846  0.10593  0.49559  1.0000
  S   S413      1.0  0.81182  0.12494  0.47749  1.0000
  S   S414      1.0  0.85702  0.07528  0.52804  1.0000
  S   S415      1.0  0.85439  0.08856  0.48652  1.0000
  Fe  Fe211     1.0  0.96049  0.08136  0.54376  1.0000
  H   H2323     1.0  0.85221  0.04445  0.44466  1.0000
  S   S416      1.0  0.94578  0.06211  0.54293  1.0000
  Fe  Fe212     1.0  0.86942  0.06944  0.39243  1.0000
  S   S417      1.0  0.85773  0.09661  0.37888  1.0000
  S   S418      1.0  0.89216  0.05983  0.40587  1.0000
  Fe  Fe213     1.0  0.84227  0.05361  0.38727  1.0000
  S   S419      1.0  0.82776  0.07920  0.37358  1.0000
  S   S420      1.0  0.83455  0.02790  0.39328  1.0000
  Fe  Fe214     1.0  0.85494  0.08339  0.35931  1.0000
  Fe  Fe215     1.0  0.83173  0.09004  0.39426  1.0000
  S   S421      1.0  0.80927  0.10906  0.40698  1.0000
  S   S422      1.0  0.86913  0.05676  0.37151  1.0000
  S   S423      1.0  0.84364  0.06401  0.40928  1.0000
  S   S424      1.0  0.93374  0.11671  0.40068  1.0000
  S   S425      1.0  0.96751  0.09306  0.43045  1.0000
  H   H2324     1.0  0.76690  0.05823  0.56936  1.0000
  Fe  Fe216     1.0  0.74687  0.02743  0.61432  1.0000
  S   S426      1.0  0.73886  0.03597  0.58835  1.0000
  H   H2325     1.0  0.98918  0.03891  0.47344  1.0000
  C   C1372     1.0  0.82120  0.03563  0.55329  1.0000
  C   C1373     1.0  0.93568  0.03618  0.47002  1.0000
  C   C1374     1.0  0.89844  0.13763  0.54777  1.0000
  H   H2326     1.0  0.98478  0.12334  0.57604  1.0000
  H   H2327     1.0  0.83170  0.99998  0.47223  1.0000
  H   H2328     1.0  0.93068  0.04062  0.50992  1.0000
  H   H2329     1.0  0.89121  0.07172  0.62097  1.0000
  H   H2330     1.0  0.87364  0.00182  0.31942  1.0000
  H   H2331     1.0  0.92437  0.07451  0.32606  1.0000
  H   H2332     1.0  0.87036  0.02030  0.42839  1.0000
  H   H2333     1.0  0.81046  0.02304  0.43402  1.0000
  H   H2334     1.0  0.92720  0.08751  0.36593  1.0000
  H   H2335     1.0  0.81538  0.00653  0.60222  1.0000
  C   C1375     1.0  0.97569  0.11162  0.62668  1.0000
  C   C1376     1.0  0.81810  0.05728  0.63012  1.0000
  C   C1377     1.0  0.71215  0.07145  0.34371  1.0000
  C   C1378     1.0  0.83592  0.04135  0.55758  1.0000
  S   S427      1.0  0.75112  0.04736  0.62611  1.0000
  H   H2336     1.0  0.88928  0.05175  0.32698  1.0000
  C   C1379     1.0  0.98496  0.00824  0.44474  1.0000
  N   N97       1.0  0.69221  0.04906  0.35097  1.0000
  S   S428      1.0  0.73475  0.02459  0.31357  1.0000
  C   C1380     1.0  0.86614  0.01720  0.44292  1.0000
  H   H2337     1.0  0.83728  0.01959  0.47176  1.0000
  S   S429      1.0  0.94521  0.10842  0.54582  1.0000
  H   H2338     1.0  0.96818  0.12612  0.44167  1.0000
  H   H2339     1.0  0.69206  0.05534  0.37521  1.0000
  C   C1381     1.0  0.94260  0.05569  0.59521  1.0000
  H   H2340     1.0  0.95099  0.10696  0.62571  1.0000
  H   H2341     1.0  0.90810  0.18012  0.51219  1.0000
  C   C1382     1.0  0.90304  0.07597  0.40500  1.0000
  C   C1383     1.0  0.89690  0.09358  0.39748  1.0000
  C   C1384     1.0  0.90641  0.10613  0.39602  1.0000
  C   C1385     1.0  0.92178  0.10113  0.40258  1.0000
  H   H2342     1.0  0.88498  0.09752  0.39259  1.0000
  H   H2343     1.0  0.90204  0.11963  0.38961  1.0000
  C   C1386     1.0  0.75318  0.11778  0.62180  1.0000
  C   C1387     1.0  0.89679  0.08924  0.56913  1.0000
  H   H2344     1.0  0.91841  0.08432  0.61426  1.0000
  C   C1388     1.0  0.88486  0.13536  0.42464  1.0000
  C   C1389     1.0  0.92951  0.06809  0.45664  1.0000
  C   C1390     1.0  0.81251  0.12021  0.45760  1.0000
  C   C1391     1.0  0.80254  0.13263  0.44633  1.0000
  C   C1392     1.0  0.80189  0.12911  0.43075  1.0000
  C   C1393     1.0  0.81162  0.11336  0.42602  1.0000
  C   C1394     1.0  0.82212  0.10108  0.43699  1.0000
  C   C1395     1.0  0.82232  0.10439  0.45296  1.0000
  H   H2345     1.0  0.79496  0.14489  0.44984  1.0000
  H   H2346     1.0  0.79377  0.13863  0.42232  1.0000
  H   H2347     1.0  0.82958  0.08884  0.43346  1.0000
  H   H2348     1.0  0.82988  0.09465  0.46171  1.0000
  C   C1396     1.0  0.90583  0.09259  0.50920  1.0000
  C   C1397     1.0  0.90350  0.07666  0.52078  1.0000
  C   C1398     1.0  0.91590  0.06718  0.53098  1.0000
  C   C1399     1.0  0.93075  0.07356  0.52956  1.0000
  C   C1400     1.0  0.93338  0.08922  0.51760  1.0000
  C   C1401     1.0  0.92099  0.09867  0.50738  1.0000
  H   H2349     1.0  0.89232  0.07146  0.52176  1.0000
  H   H2350     1.0  0.91389  0.05499  0.54008  1.0000
  H   H2351     1.0  0.94499  0.09412  0.51612  1.0000
  H   H2352     1.0  0.92311  0.11081  0.49821  1.0000
  H   H2353     1.0  0.71531  0.06771  0.35681  1.0000
  H   H2354     1.0  0.88259  0.13402  0.41231  1.0000
  H   H2355     1.0  0.98342  0.02782  0.33662  1.0000
  C   C1402     1.0  0.94560  0.17245  0.62042  1.0000
  H   H2356     1.0  0.85468  0.15011  0.41107  1.0000
  H   H2357     1.0  0.88221  0.08517  0.60307  1.0000
  C   C1403     1.0  0.88489  0.05781  0.60542  1.0000
  H   H2358     1.0  0.87791  0.14190  0.47550  1.0000
  H   H2359     1.0  0.89829  0.15333  0.42898  1.0000
  H   H2360     1.0  0.83290  0.15540  0.42415  1.0000
  C   C1404     1.0  0.81832  0.02210  0.34671  1.0000
  C   C1405     1.0  0.82555  0.03635  0.34520  1.0000
  C   C1406     1.0  0.83132  0.03778  0.35929  1.0000
  C   C1407     1.0  0.82970  0.02504  0.37488  1.0000
  C   C1408     1.0  0.82321  0.01041  0.37612  1.0000
  C   C1409     1.0  0.81753  0.00893  0.36200  1.0000
  H   H2361     1.0  0.82600  0.04663  0.33346  1.0000
  H   H2362     1.0  0.83660  0.04896  0.35818  1.0000
  H   H2363     1.0  0.82214  0.00047  0.38813  1.0000
  H   H2364     1.0  0.81226  0.99774  0.36305  1.0000
  C   C1410     1.0  0.86295  0.99130  0.42448  1.0000
  S   S430      1.0  0.87139  0.12649  0.63604  1.0000
  H   H2365     1.0  0.97304  0.10843  0.64078  1.0000
  C   C1411     1.0  0.74663  0.02150  0.57405  1.0000
  C   C1412     1.0  0.74277  0.02715  0.55740  1.0000
  C   C1413     1.0  0.74915  0.01608  0.54552  1.0000
  H   H2366     1.0  0.69726  0.04292  0.31619  1.0000
  H   H2367     1.0  0.79152  0.99281  0.40583  1.0000
  H   H2368     1.0  0.73489  0.04018  0.55365  1.0000
  H   H2369     1.0  0.74602  0.02053  0.53277  1.0000
  C   C1414     1.0  0.80625  0.04672  0.47874  1.0000
  C   C1415     1.0  0.80615  0.03506  0.49499  1.0000
  C   C1416     1.0  0.81961  0.03256  0.50375  1.0000
  C   C1417     1.0  0.83263  0.04240  0.49663  1.0000
  C   C1418     1.0  0.83232  0.05462  0.48074  1.0000
  C   C1419     1.0  0.81932  0.05654  0.47163  1.0000
  H   H2370     1.0  0.79545  0.02831  0.50109  1.0000
  H   H2371     1.0  0.81957  0.02345  0.51627  1.0000
  H   H2372     1.0  0.84231  0.06236  0.47531  1.0000
  H   H2373     1.0  0.81930  0.06569  0.45914  1.0000
  C   C1420     1.0  0.72620  0.02264  0.44579  1.0000
  C   C1421     1.0  0.71283  0.03570  0.43909  1.0000
  C   C1422     1.0  0.71463  0.04188  0.42099  1.0000
  C   C1423     1.0  0.72948  0.03453  0.40951  1.0000
  C   C1424     1.0  0.74268  0.02112  0.41618  1.0000
  C   C1425     1.0  0.74118  0.01544  0.43434  1.0000
  H   H2374     1.0  0.70123  0.04131  0.44792  1.0000
  H   H2375     1.0  0.70445  0.05233  0.41591  1.0000
  H   H2376     1.0  0.75427  0.01557  0.40735  1.0000
  H   H2377     1.0  0.75147  0.00537  0.43958  1.0000
  H   H2378     1.0  0.88739  0.13370  0.55857  1.0000
  C   C1426     1.0  0.91372  0.08053  0.33603  1.0000
  C   C1427     1.0  0.96311  0.11097  0.61812  1.0000
  H   H2379     1.0  0.90297  0.11263  0.58526  1.0000
  H   H2380     1.0  0.92456  0.08160  0.56977  1.0000
  H   H2381     1.0  0.74038  0.98696  0.32553  1.0000
  C   C1428     1.0  0.87571  0.12828  0.45707  1.0000
  H   H2382     1.0  0.67140  0.03319  0.38376  1.0000
  H   H2383     1.0  0.96623  0.05663  0.34475  1.0000
  C   C1429     1.0  0.83561  0.08565  0.32360  1.0000
  C   C1430     1.0  0.75674  0.00462  0.57885  1.0000
  H   H2384     1.0  0.97618  0.00762  0.45751  1.0000
  H   H2385     1.0  0.94946  0.13552  0.46875  1.0000
  H   H2386     1.0  0.87037  0.06015  0.61095  1.0000
  S   S431      1.0  0.86384  0.09371  0.33029  1.0000
  H   H2387     1.0  0.95273  0.05914  0.47556  1.0000
  H   H2388     1.0  0.85730  0.14961  0.46893  1.0000
  H   H2389     1.0  0.65425  0.06021  0.37307  1.0000
  C   C1431     1.0  0.94301  0.04304  0.50036  1.0000
  H   H2390     1.0  0.64741  0.06707  0.35254  1.0000
  H   H2391     1.0  0.88482  0.09376  0.45722  1.0000
  H   H2392     1.0  0.67390  0.04550  0.32654  1.0000
  S   S432      1.0  0.98316  0.11855  0.54162  1.0000
  H   H2393     1.0  0.70141  0.08341  0.34276  1.0000
  H   H2394     1.0  0.92291  0.05747  0.41780  1.0000
  H   H2395     1.0  0.90086  0.09929  0.36181  1.0000
  H   H2396     1.0  0.94773  0.06426  0.60016  1.0000
  C   C1432     1.0  0.91233  0.07677  0.57709  1.0000
  Fe  Fe217     1.0  0.96692  0.11711  0.52387  1.0000
  C   C1433     1.0  0.93641  0.09468  0.35564  1.0000
  H   H2397     1.0  0.76321  0.06411  0.31144  1.0000
  H   H2398     1.0  0.78713  0.10347  0.59436  1.0000
  H   H2399     1.0  0.85813  0.00378  0.41573  1.0000
  H   H2400     1.0  0.90791  0.05978  0.31253  1.0000
  H   H2401     1.0  0.93890  0.07987  0.41648  1.0000
  H   H2402     1.0  0.90415  0.06896  0.48792  1.0000
  C   C1434     1.0  0.92259  0.05682  0.60276  1.0000
  C   C1435     1.0  0.89199  0.07300  0.60683  1.0000
  C   C1436     1.0  0.89936  0.12605  0.34818  1.0000
  C   C1437     1.0  0.82025  0.06919  0.63855  1.0000
  C   C1438     1.0  0.83584  0.02107  0.43965  1.0000
  H   H2403     1.0  0.82013  0.04313  0.53985  1.0000
  H   H2404     1.0  0.83227  0.05542  0.55806  1.0000
  H   H2405     1.0  0.91294  0.15789  0.50910  1.0000
  C   C1439     1.0  0.82088  0.01271  0.43963  1.0000
  C   C1440     1.0  0.85283  0.14272  0.43961  1.0000
  H   H2406     1.0  0.68742  0.02444  0.32407  1.0000
  H   H2407     1.0  0.68347  0.01081  0.62069  1.0000
  H   H2408     1.0  0.89720  0.03811  0.47821  1.0000
  H   H2409     1.0  0.84137  0.02689  0.42586  1.0000
  N   N98       1.0  0.85020  0.00905  0.44868  1.0000
  H   H2410     1.0  0.89645  0.09850  0.43470  1.0000
  H   H2411     1.0  0.92490  0.09609  0.44502  1.0000
  H   H2412     1.0  0.81375  0.07935  0.31806  1.0000
  C   C1441     1.0  0.75922  0.99918  0.55032  1.0000
  H   H2413     1.0  0.95122  0.03052  0.49699  1.0000
  H   H2414     1.0  0.79205  0.03153  0.59349  1.0000
  C   C1442     1.0  0.96637  0.11516  0.59985  1.0000
  H   H2415     1.0  0.82561  0.00294  0.43128  1.0000
  H   H2416     1.0  0.81464  0.00651  0.45297  1.0000
  H   H2417     1.0  0.89454  0.13511  0.33670  1.0000
  H   H2418     1.0  0.92128  0.17014  0.53775  1.0000
  H   H2419     1.0  0.67625  0.07436  0.35513  1.0000
  H   H2420     1.0  0.90489  0.07129  0.36472  1.0000
  C   C1443     1.0  0.96361  0.13089  0.46746  1.0000
  H   H2421     1.0  0.87559  0.03991  0.44255  1.0000
  H   H2422     1.0  0.97175  0.09077  0.46855  1.0000
  H   H2423     1.0  0.68554  0.00909  0.59859  1.0000
  H   H2424     1.0  0.92849  0.06390  0.35596  1.0000
  C   C1444     1.0  0.74913  0.09450  0.40005  1.0000
  H   H2425     1.0  0.79035  0.03644  0.37530  1.0000
  H   H2426     1.0  0.79418  0.04651  0.53453  1.0000
  H   H2427     1.0  0.91009  0.12784  0.55164  1.0000
  H   H2428     1.0  0.76591  0.13339  0.48438  1.0000
  H   H2429     1.0  0.82622  0.02171  0.55209  1.0000
  C   C1445     1.0  0.89868  0.17370  0.63823  1.0000
  H   H2430     1.0  0.98222  0.05914  0.32465  1.0000
  C   C1446     1.0  0.78448  0.07471  0.40982  1.0000
  H   H2431     1.0  0.78647  0.09216  0.45119  1.0000
  H   H2432     1.0  0.74706  0.07472  0.51561  1.0000
  N   N99       1.0  0.91051  0.07403  0.59653  1.0000
  H   H2433     1.0  0.88831  0.08163  0.56711  1.0000
  H   H2434     1.0  0.89088  0.04512  0.61324  1.0000
  H   H2435     1.0  0.93453  0.09047  0.46349  1.0000
  H   H2436     1.0  0.89254  0.18775  0.63821  1.0000
  H   H2437     1.0  0.92993  0.15699  0.61706  1.0000
  C   C1447     1.0  0.97947  0.08068  0.47753  1.0000
  H   H2438     1.0  0.73837  0.08879  0.40974  1.0000
  C   C1448     1.0  0.78594  0.03762  0.54384  1.0000
  H   H2439     1.0  0.77657  0.11807  0.50127  1.0000
  C   C1449     1.0  0.90036  0.10678  0.34838  1.0000
  H   H2440     1.0  0.74060  0.11726  0.49503  1.0000
  H   H2441     1.0  0.84643  0.11169  0.54584  1.0000
  H   H2442     1.0  0.83018  0.07689  0.63231  1.0000
  C   C1450     1.0  0.79163  0.02921  0.56147  1.0000
  N   N100      1.0  0.77413  0.06636  0.40287  1.0000
  H   H2443     1.0  0.88873  0.14450  0.52317  1.0000
  C   C1451     1.0  0.78121  0.08847  0.48802  1.0000
  C   C1452     1.0  0.78204  0.07599  0.50591  1.0000
  H   H2444     1.0  0.78798  0.08036  0.47828  1.0000
  H   H2445     1.0  0.78982  0.09779  0.48577  1.0000
  H   H2446     1.0  0.77637  0.08293  0.51680  1.0000
  H   H2447     1.0  0.79613  0.06997  0.50624  1.0000
  H   H2448     1.0  0.77566  0.06495  0.50791  1.0000
  C   C1453     1.0  0.93950  0.05749  0.48400  1.0000
  H   H2449     1.0  0.95028  0.03247  0.46877  1.0000
  H   H2450     1.0  0.95052  0.04744  0.50723  1.0000
  H   H2451     1.0  0.75487  0.10176  0.40591  1.0000
  C   C1454     1.0  0.77241  0.09908  0.45181  1.0000
  C   C1455     1.0  0.84829  0.11859  0.58437  1.0000
  C   C1456     1.0  0.75173  0.08534  0.48674  1.0000
  C   C1457     1.0  0.79563  0.05753  0.56418  1.0000
  H   H2452     1.0  0.88610  0.18293  0.54110  1.0000
  C   C1458     1.0  0.76273  0.05528  0.41710  1.0000
  H   H2453     1.0  0.75555  0.07464  0.38583  1.0000
  H   H2454     1.0  0.77216  0.07717  0.57167  1.0000
  C   C1459     1.0  0.69539  0.04370  0.36931  1.0000
  H   H2455     1.0  0.79649  0.06455  0.55028  1.0000
  C   C1460     1.0  0.97419  0.12552  0.45217  1.0000
  C   C1461     1.0  0.75368  0.06195  0.43414  1.0000
  S   S433      1.0  0.97773  0.04359  0.44207  1.0000
  H   H2456     1.0  0.75558  0.13213  0.50683  1.0000
  S   S434      1.0  0.80115  0.03434  0.62592  1.0000
  S   S435      1.0  0.98545  0.11377  0.39126  1.0000
  S   S436      1.0  0.76689  0.98480  0.53592  1.0000
  H   H2457     1.0  0.87658  0.16397  0.42435  1.0000
  H   H2458     1.0  0.86861  0.11921  0.46785  1.0000
  C   C1462     1.0  0.90082  0.15680  0.56481  1.0000
  H   H2459     1.0  0.80944  0.05534  0.41195  1.0000
  H   H2460     1.0  0.91637  0.14708  0.58487  1.0000
  C   C1463     1.0  0.86621  0.16768  0.55390  1.0000
  H   H2461     1.0  0.89433  0.15808  0.40736  1.0000
  H   H2462     1.0  0.84218  0.13321  0.42264  1.0000
  H   H2463     1.0  0.91025  0.12966  0.52274  1.0000
  H   H2464     1.0  0.98645  0.06204  0.34410  1.0000
  H   H2465     1.0  0.98295  0.02965  0.35768  1.0000
  H   H2466     1.0  0.85303  0.15598  0.44057  1.0000
  H   H2467     1.0  0.77483  0.05630  0.37005  1.0000
  C   C1464     1.0  0.83545  0.10960  0.59558  1.0000
  H   H2468     1.0  0.93631  0.10681  0.35942  1.0000
  H   H2469     1.0  0.89074  0.10646  0.60767  1.0000
  C   C1465     1.0  0.91500  0.06714  0.35344  1.0000
  H   H2470     1.0  0.86298  0.15516  0.55441  1.0000
  H   H2471     1.0  0.78579  0.08196  0.59473  1.0000
  C   C1466     1.0  0.68586  0.02982  0.38265  1.0000
  H   H2472     1.0  0.92936  0.09019  0.59206  1.0000
  C   C1467     1.0  0.69205  0.01204  0.60742  1.0000
  H   H2473     1.0  0.89002  0.15138  0.57495  1.0000
  H   H2474     1.0  0.88244  0.05808  0.48302  1.0000
  H   H2475     1.0  0.74058  0.05828  0.43934  1.0000
  N   N101      1.0  0.90014  0.15589  0.54677  1.0000
  S   S437      1.0  0.95035  0.11473  0.58930  1.0000
  H   H2476     1.0  0.92815  0.14805  0.53523  1.0000
  C   C1468     1.0  0.91634  0.08825  0.60064  1.0000
  H   H2477     1.0  0.76912  0.03980  0.38962  1.0000
  H   H2478     1.0  0.71821  0.00646  0.61252  1.0000
  C   C1469     1.0  0.84550  0.14532  0.42332  1.0000
  H   H2479     1.0  0.94990  0.04204  0.59949  1.0000
  C   C1470     1.0  0.89691  0.13361  0.53098  1.0000
  H   H2480     1.0  0.88707  0.05677  0.59172  1.0000
  H   H2481     1.0  0.98050  0.10526  0.35880  1.0000
  H   H2482     1.0  0.86650  0.11254  0.42652  1.0000
  H   H2483     1.0  0.88086  0.08482  0.44142  1.0000
  H   H2484     1.0  0.94102  0.04005  0.44137  1.0000
  C   C1471     1.0  0.92471  0.08741  0.45825  1.0000
  H   H2485     1.0  0.85612  0.10924  0.44909  1.0000
  H   H2486     1.0  0.92942  0.15334  0.56356  1.0000
  C   C1472     1.0  0.91708  0.15986  0.53425  1.0000
  H   H2487     1.0  0.94993  0.08642  0.35589  1.0000
  H   H2488     1.0  0.90974  0.11521  0.60311  1.0000
  C   C1473     1.0  0.74093  0.99021  0.31167  1.0000
  H   H2489     1.0  0.86770  0.03772  0.32822  1.0000
  H   H2490     1.0  0.82934  0.03262  0.44569  1.0000
  H   H2491     1.0  0.80595  0.00224  0.58697  1.0000
  Fe  Fe218     1.0  0.76781  0.99645  0.50723  1.0000
  H   H2492     1.0  0.93524  0.18442  0.62235  1.0000
  N   N102      1.0  0.91523  0.09888  0.33501  1.0000
  Fe  Fe219     1.0  0.96255  0.10724  0.56339  1.0000
  C   C1474     1.0  0.98963  0.12402  0.47945  1.0000
  S   S438      1.0  0.95801  0.13615  0.50056  1.0000
  H   H2493     1.0  0.87781  0.00781  0.44744  1.0000
  H   H2494     1.0  0.91408  0.06398  0.57364  1.0000
  H   H2495     1.0  0.84805  0.03949  0.54710  1.0000
  H   H2496     1.0  0.88311  0.17009  0.52845  1.0000
  N   N103      1.0  0.80341  0.03814  0.56580  1.0000
  C   C1475     1.0  0.80523  0.03018  0.58439  1.0000
  H   H2497     1.0  0.70969  0.03805  0.36902  1.0000
  C   C1476     1.0  0.77623  0.06263  0.57401  1.0000
  Fe  Fe220     1.0  0.78751  0.98829  0.47178  1.0000
  C   C1477     1.0  0.86522  0.01392  0.32359  1.0000
  H   H2498     1.0  0.80342  0.06354  0.56927  1.0000
  H   H2499     1.0  0.77941  0.02874  0.57198  1.0000
  Fe  Fe221     1.0  0.77467  0.02677  0.63309  1.0000
  H   H2500     1.0  0.89778  0.12612  0.42577  1.0000
  S   S439      1.0  0.97573  0.07907  0.56366  1.0000
  H   H2501     1.0  0.72009  0.04564  0.33854  1.0000
  H   H2502     1.0  0.77459  0.05766  0.58833  1.0000
  H   H2503     1.0  0.70460  0.02359  0.34480  1.0000
  H   H2504     1.0  0.98270  0.04501  0.49385  1.0000
  C   C1478     1.0  0.93799  0.15578  0.62648  1.0000
  C   C1479     1.0  0.84327  0.11109  0.55968  1.0000
  H   H2505     1.0  0.93780  0.01881  0.45320  1.0000
  H   H2506     1.0  0.76628  0.09922  0.59463  1.0000
  H   H2507     1.0  0.92199  0.13306  0.56999  1.0000
  H   H2508     1.0  0.90411  0.17324  0.62434  1.0000
  H   H2509     1.0  0.83143  0.08127  0.33753  1.0000
  H   H2510     1.0  0.90094  0.08092  0.33302  1.0000
  H   H2511     1.0  0.76486  0.98520  0.42230  1.0000
  H   H2512     1.0  0.77209  0.10866  0.43911  1.0000
  H   H2513     1.0  0.93337  0.06987  0.48870  1.0000
  H   H2514     1.0  0.79215  0.08322  0.39888  1.0000
  C   C1480     1.0  0.77851  0.09392  0.59981  1.0000
  H   H2515     1.0  0.77187  0.04473  0.54603  1.0000
  H   H2516     1.0  0.89863  0.17069  0.56576  1.0000
  H   H2517     1.0  0.82650  0.05583  0.61748  1.0000
  Fe  Fe222     1.0  0.96123  0.10253  0.40394  1.0000
  H   H2518     1.0  0.77191  0.08743  0.37999  1.0000
  C   C1481     1.0  0.92746  0.08366  0.41079  1.0000
  C   C1482     1.0  0.88857  0.15370  0.42148  1.0000
  H   H2519     1.0  0.89010  0.12227  0.45613  1.0000
  C   C1483     1.0  0.85088  0.09244  0.31662  1.0000
  H   H2520     1.0  0.75838  0.12475  0.60826  1.0000
  H   H2521     1.0  0.71755  0.00260  0.59286  1.0000
  C   C1484     1.0  0.85608  0.99609  0.47985  1.0000
  H   H2522     1.0  0.95151  0.17428  0.60618  1.0000
  H   H2523     1.0  0.75156  0.10273  0.51134  1.0000
  H   H2524     1.0  0.73940  0.09829  0.61993  1.0000
  C   C1485     1.0  0.90398  0.10655  0.59894  1.0000
  N   N104      1.0  0.76302  0.09806  0.48514  1.0000
  H   H2525     1.0  0.76010  0.07324  0.48241  1.0000
  H   H2526     1.0  0.73441  0.06851  0.50451  1.0000
  H   H2527     1.0  0.92108  0.06712  0.44848  1.0000
  C   C1486     1.0  0.75394  0.11017  0.49757  1.0000
  C   C1487     1.0  0.91821  0.07106  0.41184  1.0000
  H   H2528     1.0  0.75215  0.05337  0.41200  1.0000
  H   H2529     1.0  0.88840  0.09927  0.57640  1.0000
  H   H2530     1.0  0.86527  0.16888  0.56733  1.0000
  C   C1488     1.0  0.77972  0.04649  0.38113  1.0000
  H   H2531     1.0  0.78741  0.11845  0.61230  1.0000
  C   C1489     1.0  0.76378  0.12411  0.49722  1.0000
  H   H2532     1.0  0.77434  0.11787  0.46449  1.0000
  S   S440      1.0  0.77149  0.00764  0.61946  1.0000
  H   H2533     1.0  0.91953  0.04577  0.59947  1.0000
  H   H2534     1.0  0.78663  0.02708  0.53731  1.0000
  H   H2535     1.0  0.76453  0.08959  0.45260  1.0000
  H   H2536     1.0  0.90904  0.04664  0.49699  1.0000
  H   H2537     1.0  0.91132  0.09100  0.46632  1.0000
  H   H2538     1.0  0.75119  0.07626  0.43278  1.0000
  H   H2539     1.0  0.94579  0.05886  0.58074  1.0000
  C   C1490     1.0  0.93334  0.09901  0.33683  1.0000
  H   H2540     1.0  0.88726  0.02089  0.32735  1.0000
  C   C1491     1.0  0.98807  0.02444  0.43430  1.0000
  C   C1492     1.0  0.76513  0.10917  0.46676  1.0000
  H   H2541     1.0  0.65743  0.04496  0.35949  1.0000
  C   C1493     1.0  0.69168  0.03327  0.34501  1.0000
  H   H2542     1.0  0.89004  0.12260  0.53449  1.0000
  C   C1494     1.0  0.88437  0.16963  0.54173  1.0000
  H   H2543     1.0  0.81660  0.09450  0.59749  1.0000
  C   C1495     1.0  0.73992  0.07948  0.50485  1.0000
  H   H2544     1.0  0.79541  0.04347  0.39932  1.0000
  H   H2545     1.0  0.76126  0.05506  0.44449  1.0000
  H   H2546     1.0  0.77582  0.08374  0.41818  1.0000
  H   H2547     1.0  0.92053  0.05371  0.61731  1.0000
  C   C1496     1.0  0.86830  0.11245  0.43957  1.0000
  H   H2548     1.0  0.93037  0.02621  0.48128  1.0000
  S   S441      1.0  0.81780  0.09390  0.56187  1.0000
  C   C1497     1.0  0.91819  0.14697  0.57091  1.0000
  H   H2549     1.0  0.72847  0.09030  0.50804  1.0000
  H   H2550     1.0  0.89852  0.11172  0.31621  1.0000
  H   H2551     1.0  0.74281  0.10439  0.38985  1.0000
  C   C1498     1.0  0.82635  0.10158  0.58877  1.0000
  C   C1499     1.0  0.98878  0.03434  0.34372  1.0000
  H   H2552     1.0  0.91253  0.05470  0.35252  1.0000
  H   H2553     1.0  0.75222  0.11801  0.46463  1.0000
  H   H2554     1.0  0.74227  0.09105  0.47788  1.0000
  S   S442      1.0  0.97311  0.07662  0.39619  1.0000
  H   H2555     1.0  0.91224  0.12826  0.34843  1.0000
  C   C1500     1.0  0.70785  0.05622  0.33898  1.0000
  H   H2556     1.0  0.83235  0.10902  0.60946  1.0000
  C   C1501     1.0  0.83001  0.10265  0.57074  1.0000
  C   C1502     1.0  0.76314  0.08045  0.39137  1.0000
  C   C1503     1.0  0.88362  0.09666  0.44348  1.0000
  C   C1504     1.0  0.85229  0.11912  0.56646  1.0000
  H   H2557     1.0  0.86228  0.12579  0.55771  1.0000
  H   H2558     1.0  0.79714  0.06201  0.38169  1.0000
  H   H2559     1.0  0.80234  0.06914  0.42729  1.0000
  H   H2560     1.0  0.90230  0.09634  0.55583  1.0000
  H   H2561     1.0  0.79148  0.05167  0.43058  1.0000
  C   C1505     1.0  0.78743  0.05471  0.39142  1.0000
  C   C1506     1.0  0.86360  0.03436  0.44877  1.0000
  C   C1507     1.0  0.68729  0.03707  0.32691  1.0000
  C   C1508     1.0  0.79762  0.06181  0.42052  1.0000
  Fe  Fe223     1.0  0.85392  0.12148  0.62184  1.0000
  S   S443      1.0  0.85943  0.12922  0.59249  1.0000
  H   H2562     1.0  0.77078  0.04189  0.42124  1.0000
  H   H2563     1.0  0.67512  0.06974  0.33589  1.0000
  C   C1509     1.0  0.85570  0.99131  0.44412  1.0000
  H   H2564     1.0  0.85572  0.17837  0.54871  1.0000
  H   H2565     1.0  0.83956  0.03332  0.56998  1.0000
  H   H2566     1.0  0.86790  0.00168  0.47697  1.0000
  H   H2567     1.0  0.87722  0.15584  0.45448  1.0000
  N   N105      1.0  0.92829  0.05443  0.47355  1.0000
  H   H2568     1.0  0.94325  0.06583  0.44858  1.0000
  H   H2569     1.0  0.84267  0.13829  0.45128  1.0000
  N   N106      1.0  0.87052  0.13013  0.44014  1.0000
  C   C1510     1.0  0.89598  0.05242  0.47632  1.0000
  C   C1511     1.0  0.90953  0.05608  0.48416  1.0000
  H   H2570     1.0  0.89680  0.05888  0.46238  1.0000
  C   C1512     1.0  0.84295  0.00669  0.46810  1.0000
  C   C1513     1.0  0.76295  0.99346  0.56704  1.0000
  H   H2571     1.0  0.91900  0.03665  0.45217  1.0000
  C   C1514     1.0  0.82560  0.08453  0.31253  1.0000
  H   H2572     1.0  0.79818  0.01526  0.56124  1.0000
  C   C1515     1.0  0.91673  0.16682  0.51469  1.0000
  C   C1516     1.0  0.97605  0.10852  0.33318  1.0000
  C   C1517     1.0  0.98582  0.10169  0.34627  1.0000
  Fe  Fe224     1.0  0.98155  0.06811  0.42171  1.0000
  C   C1518     1.0  0.98068  0.05419  0.33899  1.0000
  C   C1519     1.0  0.81413  0.01049  0.58836  1.0000
  H   H2573     1.0  0.88964  0.12962  0.35998  1.0000
  H   H2574     1.0  0.96338  0.11751  0.33566  1.0000
  C   C1520     1.0  0.93298  0.03300  0.45325  1.0000
  H   H2575     1.0  0.93031  0.16816  0.50723  1.0000
  H   H2576     1.0  0.68187  0.02593  0.35420  1.0000
  C   C1521     1.0  0.97131  0.12997  0.48120  1.0000
  H   H2577     1.0  0.82767  0.00750  0.58026  1.0000
  H   H2578     1.0  0.84932  0.99647  0.49365  1.0000
  H   H2579     1.0  0.84479  0.98403  0.44934  1.0000
  C   C1522     1.0  0.78324  0.11200  0.62624  1.0000
  H   H2580     1.0  0.88734  0.10612  0.34663  1.0000
  H   H2581     1.0  0.95650  0.17126  0.62676  1.0000
  C   C1523     1.0  0.87614  0.02776  0.32060  1.0000
  H   H2582     1.0  0.94381  0.08986  0.32950  1.0000
  H   H2583     1.0  0.69306  0.02602  0.60255  1.0000
  H   H2584     1.0  0.69155  0.01664  0.37960  1.0000
  C   C1524     1.0  0.89514  0.05676  0.31307  1.0000
  S   S444      1.0  0.98111  0.09001  0.52071  1.0000
  H   H2585     1.0  0.94928  0.14449  0.62420  1.0000
  C   C1525     1.0  0.91415  0.13224  0.63471  1.0000
  H   H2586     1.0  0.85384  0.01892  0.31720  1.0000
  H   H2587     1.0  0.72418  0.07500  0.33420  1.0000
  H   H2588     1.0  0.97033  0.07255  0.48659  1.0000
  Fe  Fe225     1.0  0.76180  0.98734  0.36523  1.0000
  H   H2589     1.0  0.85967  0.00997  0.33783  1.0000
  H   H2590     1.0  0.93636  0.11221  0.33057  1.0000
  C   C1526     1.0  0.71087  0.00043  0.60693  1.0000
  H   H2591     1.0  0.70609  0.06106  0.32530  1.0000
  C   C1527     1.0  0.67578  0.06340  0.34975  1.0000
  C   C1528     1.0  0.98258  0.10375  0.31700  1.0000
  H   H2592     1.0  0.87766  0.98855  0.42122  1.0000
  C   C1529     1.0  0.91249  0.10982  0.31726  1.0000
  H   H2593     1.0  0.99084  0.06691  0.45679  1.0000
  S   S445      1.0  0.82884  0.12976  0.64088  1.0000
  S   S446      1.0  0.85692  0.09297  0.63446  1.0000
  C   C1530     1.0  0.80467  0.04779  0.63764  1.0000
  C   C1531     1.0  0.77410  0.08880  0.61996  1.0000
  H   H2594     1.0  0.73089  0.12023  0.61049  1.0000
  C   C1532     1.0  0.99254  0.11966  0.45040  1.0000
  H   H2595     1.0  0.98345  0.08781  0.48500  1.0000
  H   H2596     1.0  0.91475  0.12322  0.31523  1.0000
  H   H2597     1.0  0.92501  0.12960  0.62331  1.0000
  H   H2598     1.0  0.79504  0.10174  0.62946  1.0000
  H   H2599     1.0  0.76450  0.08030  0.62345  1.0000
  C   C1533     1.0  0.99307  0.99281  0.43858  1.0000
  H   H2600     1.0  0.78610  0.07993  0.62420  1.0000
  C   C1534     1.0  0.73662  0.11184  0.62175  1.0000
  S   S447      1.0  0.72930  0.01591  0.63888  1.0000
  N   N107      1.0  0.76760  0.10386  0.62917  1.0000
  Fe  Fe226     1.0  0.99289  0.10177  0.41730  1.0000
  C   C1535     1.0  0.78056  0.12595  0.63680  1.0000
  H   H2601     1.0  0.72641  0.11310  0.63397  1.0000
  H   H2602     1.0  0.74820  0.12836  0.62924  1.0000
  C   C1536     1.0  0.99168  0.11620  0.61697  1.0000
  H   H2603     1.0  0.79278  0.13117  0.63297  1.0000
  H   H2604     1.0  0.76954  0.13727  0.63407  1.0000
  H   H2605     1.0  0.90869  0.12024  0.63995  1.0000
  H   H2606     1.0  0.99378  0.01346  0.49723  1.0000
  H   H2607     1.0  0.90345  0.14303  0.63031  1.0000
  H   H2608     1.0  0.99421  0.05810  0.63549  1.0000
  C   C1537     1.0  0.76124  0.22117  0.82619  1.0000
  N   N108      1.0  0.70469  0.99123  0.72221  1.0000
  S   S448      1.0  0.51352  0.03493  0.73787  1.0000
  H   H2609     1.0  0.69834  0.09270  0.80906  1.0000
  S   S449      1.0  0.51021  0.02274  0.83771  1.0000
  H   H2610     1.0  0.82284  0.16939  0.70219  1.0000
  H   H2611     1.0  0.65560  0.20713  0.97128  1.0000
  N   N109      1.0  0.92772  0.15213  0.64517  1.0000
  H   H2612     1.0  0.60151  0.12278  0.90601  1.0000
  H   H2613     1.0  0.83626  0.16525  0.74023  1.0000
  H   H2614     1.0  0.57110  0.04787  0.86472  1.0000
  H   H2615     1.0  0.63775  0.07539  0.91234  1.0000
  H   H2616     1.0  0.72369  0.21092  0.89085  1.0000
  H   H2617     1.0  0.74625  0.08052  0.66938  1.0000
  H   H2618     1.0  0.92171  0.21583  0.80614  1.0000
  H   H2619     1.0  0.72518  0.10642  0.91205  1.0000
  Fe  Fe227     1.0  0.62083  0.02180  0.76575  1.0000
  S   S450      1.0  0.60596  0.02568  0.74491  1.0000
  S   S451      1.0  0.60839  0.03821  0.78607  1.0000
  Fe  Fe228     1.0  0.60582  0.99711  0.75487  1.0000
  H   H2620     1.0  0.58143  0.00992  0.78870  1.0000
  Fe  Fe229     1.0  0.63281  0.01666  0.72840  1.0000
  S   S452      1.0  0.64170  0.02630  0.69931  1.0000
  H   H2621     1.0  0.94632  0.16053  0.65424  1.0000
  S   S453      1.0  0.64782  0.01512  0.74839  1.0000
  C   C1538     1.0  0.56344  0.04125  0.77387  1.0000
  S   S454      1.0  0.98918  0.08062  0.66560  1.0000
  S   S455      1.0  0.51152  0.09908  0.93376  1.0000
  Fe  Fe230     1.0  0.63983  0.06975  0.87567  1.0000
  H   H2622     1.0  0.72354  0.00082  0.67896  1.0000
  C   C1539     1.0  0.93260  0.14507  0.67661  1.0000
  C   C1540     1.0  0.69608  0.01886  0.73543  1.0000
  C   C1541     1.0  0.69135  0.18373  0.94508  1.0000
  H   H2623     1.0  0.68347  0.21821  0.92501  1.0000
  S   S456      1.0  0.62312  0.06588  0.85980  1.0000
  H   H2624     1.0  0.52538  0.02819  0.93538  1.0000
  Fe  Fe231     1.0  0.63653  0.08488  0.83800  1.0000
  S   S457      1.0  0.64835  0.08107  0.81048  1.0000
  C   C1542     1.0  0.69852  0.98731  0.64640  1.0000
  S   S458      1.0  0.58174  0.98526  0.76299  1.0000
  C   C1543     1.0  0.65781  0.05150  0.91176  1.0000
  C   C1544     1.0  0.64776  0.06612  0.91864  1.0000
  C   C1545     1.0  0.65067  0.06870  0.93385  1.0000
  C   C1546     1.0  0.66371  0.05667  0.94205  1.0000
  C   C1547     1.0  0.67355  0.04204  0.93524  1.0000
  C   C1548     1.0  0.67052  0.03940  0.92023  1.0000
  C   C1549     1.0  0.60688  0.99099  0.93777  1.0000
  Fe  Fe232     1.0  0.51589  0.07860  0.95793  1.0000
  H   H2625     1.0  0.68361  0.03272  0.94157  1.0000
  H   H2626     1.0  0.67825  0.02804  0.91505  1.0000
  H   H2627     1.0  0.68867  0.05261  0.70201  1.0000
  H   H2628     1.0  0.58067  0.13033  0.93334  1.0000
  C   C1550     1.0  0.91182  0.10007  0.68537  1.0000
  H   H2629     1.0  0.70678  0.18709  0.91750  1.0000
  H   H2630     1.0  0.58782  0.10905  0.94561  1.0000
  H   H2631     1.0  0.95470  0.16306  0.75774  1.0000
  H   H2632     1.0  0.90202  0.13590  0.73610  1.0000
  H   H2633     1.0  0.64298  0.08001  0.93913  1.0000
  C   C1551     1.0  0.50092  0.09669  0.90562  1.0000
  H   H2634     1.0  0.78022  0.15102  0.91799  1.0000
  Fe  Fe233     1.0  0.49867  0.05051  0.84044  1.0000
  C   C1552     1.0  0.62005  0.04976  0.79262  1.0000
  C   C1553     1.0  0.61166  0.05739  0.80708  1.0000
  C   C1554     1.0  0.62036  0.06683  0.81271  1.0000
  C   C1555     1.0  0.63743  0.06893  0.80374  1.0000
  C   C1556     1.0  0.64580  0.06142  0.78917  1.0000
  C   C1557     1.0  0.63718  0.05172  0.78369  1.0000
  H   H2635     1.0  0.59835  0.05607  0.81394  1.0000
  H   H2636     1.0  0.61371  0.07276  0.82379  1.0000
  H   H2637     1.0  0.65898  0.06305  0.78217  1.0000
  H   H2638     1.0  0.64368  0.04595  0.77248  1.0000
  C   C1558     1.0  0.66185  0.03327  0.69139  1.0000
  C   C1559     1.0  0.67229  0.03042  0.67513  1.0000
  C   C1560     1.0  0.68882  0.03507  0.66880  1.0000
  C   C1561     1.0  0.69489  0.04292  0.67853  1.0000
  C   C1562     1.0  0.68416  0.04634  0.69452  1.0000
  C   C1563     1.0  0.66772  0.04142  0.70101  1.0000
  H   H2639     1.0  0.66766  0.02439  0.66752  1.0000
  H   H2640     1.0  0.69665  0.03291  0.65624  1.0000
  C   C1564     1.0  0.49937  0.09163  0.92373  1.0000
  H   H2641     1.0  0.65957  0.04397  0.71340  1.0000
  H   H2642     1.0  0.64408  0.15576  0.82096  1.0000
  Fe  Fe234     1.0  0.87809  0.18730  0.72562  1.0000
  C   C1565     1.0  0.58562  0.07807  0.94170  1.0000
  H   H2643     1.0  0.68613  0.21038  0.97273  1.0000
  H   H2644     1.0  0.50890  0.10606  0.89786  1.0000
  H   H2645     1.0  0.92431  0.15712  0.68096  1.0000
  C   C1566     1.0  0.54759  0.05679  0.91756  1.0000
  H   H2646     1.0  0.55846  0.10330  0.95634  1.0000
  H   H2647     1.0  0.94643  0.12640  0.71380  1.0000
  H   H2648     1.0  0.83195  0.12578  0.72982  1.0000
  S   S459      1.0  0.89180  0.17018  0.70597  1.0000
  C   C1567     1.0  0.90237  0.09624  0.67536  1.0000
  S   S460      1.0  0.95998  0.18562  0.79544  1.0000
  H   H2649     1.0  0.82466  0.19034  0.71982  1.0000
  S   S461      1.0  0.62013  0.09236  0.88500  1.0000
  H   H2650     1.0  0.94357  0.14027  0.68364  1.0000
  H   H2651     1.0  0.53714  0.12495  0.91666  1.0000
  Fe  Fe235     1.0  0.60452  0.09013  0.86735  1.0000
  C   C1568     1.0  0.81450  0.16941  0.71559  1.0000
  H   H2652     1.0  0.68810  0.14892  0.89630  1.0000
  C   C1569     1.0  0.53240  0.02092  0.74486  1.0000
  C   C1570     1.0  0.53091  0.00673  0.75919  1.0000
  C   C1571     1.0  0.54616  0.99579  0.76462  1.0000
  C   C1572     1.0  0.56291  0.99910  0.75587  1.0000
  C   C1573     1.0  0.56440  0.01340  0.74170  1.0000
  C   C1574     1.0  0.54916  0.02431  0.73624  1.0000
  H   H2653     1.0  0.51802  0.00444  0.76635  1.0000
  C   C1575     1.0  0.70375  0.11385  0.89781  1.0000
  H   H2654     1.0  0.57730  0.01597  0.73481  1.0000
  H   H2655     1.0  0.55037  0.03534  0.72523  1.0000
  H   H2656     1.0  0.59996  0.01638  0.96787  1.0000
  H   H2657     1.0  0.59866  0.08025  0.94149  1.0000
  H   H2658     1.0  0.50912  0.03774  0.91431  1.0000
  C   C1576     1.0  0.74194  0.15643  0.94552  1.0000
  H   H2659     1.0  0.65675  0.13790  0.77964  1.0000
  C   C1577     1.0  0.86996  0.14674  0.68196  1.0000
  S   S462      1.0  0.81020  0.08760  0.66487  1.0000
  H   H2660     1.0  0.67330  0.15692  0.75682  1.0000
  H   H2661     1.0  0.53389  0.12929  0.95750  1.0000
  S   S463      1.0  0.67401  0.13356  0.96903  1.0000
  H   H2662     1.0  0.73713  0.14459  0.95218  1.0000
  H   H2663     1.0  0.66479  0.14827  0.90353  1.0000
  H   H2664     1.0  0.69554  0.16954  0.92488  1.0000
  S   S464      1.0  0.71130  0.17559  0.87723  1.0000
  H   H2665     1.0  0.54457  0.01191  0.93911  1.0000
  C   C1578     1.0  0.91792  0.18964  0.77509  1.0000
  H   H2666     1.0  0.84855  0.13169  0.74827  1.0000
  C   C1579     1.0  0.71674  0.00043  0.70684  1.0000
  H   H2667     1.0  0.96080  0.16327  0.72681  1.0000
  C   C1580     1.0  0.56335  0.09400  0.86338  1.0000
  H   H2668     1.0  0.77201  0.21277  0.84935  1.0000
  H   H2669     1.0  0.54806  0.03226  0.87647  1.0000
  H   H2670     1.0  0.92974  0.13786  0.76498  1.0000
  C   C1581     1.0  0.93989  0.18364  0.79249  1.0000
  H   H2671     1.0  0.56095  0.05535  0.90912  1.0000
  H   H2672     1.0  0.57173  0.06274  0.75314  1.0000
  C   C1582     1.0  0.69606  0.13992  0.85238  1.0000
  C   C1583     1.0  0.51785  0.03887  0.90099  1.0000
  H   H2673     1.0  0.88811  0.10055  0.67770  1.0000
  H   H2674     1.0  0.70536  0.02598  0.72498  1.0000
  C   C1584     1.0  0.53530  0.01742  0.93009  1.0000
  H   H2675     1.0  0.55167  0.05864  0.75213  1.0000
  C   C1585     1.0  0.67715  0.14670  0.90782  1.0000
  H   H2676     1.0  0.76357  0.20674  0.82801  1.0000
  H   H2677     1.0  0.69169  0.99575  0.69055  1.0000
  S   S465      1.0  0.51055  0.06052  0.85628  1.0000
  H   H2678     1.0  0.87195  0.13381  0.67960  1.0000
  H   H2679     1.0  0.55867  0.02496  0.91227  1.0000
  C   C1586     1.0  0.79618  0.06151  0.66247  1.0000
  C   C1587     1.0  0.94337  0.17373  0.70880  1.0000
  H   H2680     1.0  0.54446  0.10591  0.94218  1.0000
  N   N110      1.0  0.53610  0.04043  0.90104  1.0000
  H   H2681     1.0  0.83425  0.16083  0.87003  1.0000
  N   N111      1.0  0.82215  0.15389  0.72861  1.0000
  N   N112      1.0  0.61826  0.01783  0.91598  1.0000
  C   C1588     1.0  0.61241  0.03291  0.90158  1.0000
  C   C1589     1.0  0.63504  0.00646  0.90774  1.0000
  C   C1590     1.0  0.62178  0.02531  0.92935  1.0000
  C   C1591     1.0  0.60342  0.00816  0.92396  1.0000
  H   H2682     1.0  0.70941  0.01376  0.70148  1.0000
  H   H2683     1.0  0.58785  0.04501  0.91848  1.0000
  C   C1592     1.0  0.63437  0.01318  0.94110  1.0000
  H   H2684     1.0  0.74235  0.23152  0.96638  1.0000
  H   H2685     1.0  0.62391  0.03809  0.89266  1.0000
  H   H2686     1.0  0.60664  0.02853  0.89308  1.0000
  H   H2687     1.0  0.64074  0.99541  0.91747  1.0000
  H   H2688     1.0  0.64558  0.01413  0.90184  1.0000
  H   H2689     1.0  0.62787  0.03684  0.92280  1.0000
  H   H2690     1.0  0.60914  0.03042  0.93806  1.0000
  H   H2691     1.0  0.59152  0.01670  0.93045  1.0000
  H   H2692     1.0  0.59855  0.00527  0.91381  1.0000
  H   H2693     1.0  0.74715  0.22626  0.82526  1.0000
  H   H2694     1.0  0.54786  0.04665  0.92986  1.0000
  H   H2695     1.0  0.71406  0.20410  0.92883  1.0000
  H   H2696     1.0  0.78778  0.22952  0.87152  1.0000
  C   C1593     1.0  0.63338  0.99846  0.89341  1.0000
  C   C1594     1.0  0.72316  0.22481  0.88770  1.0000
  H   H2697     1.0  0.74927  0.15882  0.96809  1.0000
  Fe  Fe236     1.0  0.99367  0.20513  0.73434  1.0000
  S   S466      1.0  0.66841  0.05949  0.96064  1.0000
  H   H2698     1.0  0.75108  0.22762  0.85126  1.0000
  H   H2699     1.0  0.52867  0.99081  0.72851  1.0000
  S   S467      1.0  0.75974  0.01475  0.65934  1.0000
  S   S468      1.0  0.73794  0.18404  0.83820  1.0000
  S   S469      1.0  0.65503  0.08644  0.85328  1.0000
  C   C1595     1.0  0.68529  0.98810  0.70308  1.0000
  S   S470      1.0  0.85498  0.21024  0.72349  1.0000
  C   C1596     1.0  0.94048  0.14896  0.65676  1.0000
  S   S471      1.0  0.96783  0.21787  0.74941  1.0000
  H   H2700     1.0  0.70562  0.22532  0.95714  1.0000
  H   H2701     1.0  0.94893  0.12143  0.74505  1.0000
  H   H2702     1.0  0.70211  0.17351  0.95048  1.0000
  H   H2703     1.0  0.64750  0.12134  0.80954  1.0000
  C   C1597     1.0  0.93436  0.14986  0.75679  1.0000
  H   H2704     1.0  0.80861  0.14560  0.87183  1.0000
  H   H2705     1.0  0.70581  0.12800  0.80811  1.0000
  H   H2706     1.0  0.84011  0.13994  0.86451  1.0000
  H   H2707     1.0  0.67107  0.99073  0.70272  1.0000
  C   C1598     1.0  0.80177  0.18462  0.87453  1.0000
  H   H2708     1.0  0.76996  0.22566  0.81358  1.0000
  H   H2709     1.0  0.73903  0.08598  0.64950  1.0000
  H   H2710     1.0  0.93682  0.07341  0.64982  1.0000
  H   H2711     1.0  0.68938  0.13857  0.76455  1.0000
  S   S472      1.0  0.71600  0.04804  0.67128  1.0000
  H   H2712     1.0  0.58668  0.09015  0.91442  1.0000
  H   H2713     1.0  0.54908  0.01293  0.90441  1.0000
  H   H2714     1.0  0.69200  0.12989  0.92651  1.0000
  H   H2715     1.0  0.67472  0.15731  0.91484  1.0000
  H   H2716     1.0  0.80188  0.18982  0.73098  1.0000
  H   H2717     1.0  0.94023  0.17677  0.73446  1.0000
  H   H2718     1.0  0.80752  0.19788  0.70797  1.0000
  C   C1599     1.0  0.81214  0.18774  0.71903  1.0000
  Fe  Fe237     1.0  0.73574  0.03387  0.65132  1.0000
  H   H2719     1.0  0.80117  0.16861  0.71487  1.0000
  H   H2720     1.0  0.96041  0.13932  0.76411  1.0000
  H   H2721     1.0  0.95187  0.13785  0.65397  1.0000
  H   H2722     1.0  0.67558  0.11073  0.79001  1.0000
  S   S473      1.0  0.99042  0.21941  0.77688  1.0000
  C   C1600     1.0  0.72563  0.99127  0.69133  1.0000
  C   C1601     1.0  0.69438  0.18325  0.92566  1.0000
  H   H2723     1.0  0.68304  0.19138  0.91983  1.0000
  Fe  Fe238     1.0  0.53970  0.04362  0.97030  1.0000
  C   C1602     1.0  0.54557  0.02382  0.91136  1.0000
  H   H2724     1.0  0.51105  0.05120  0.89321  1.0000
  H   H2725     1.0  0.77268  0.22444  0.96055  1.0000
  H   H2726     1.0  0.78041  0.22796  0.93281  1.0000
  S   S474      1.0  0.74870  0.18741  0.87275  1.0000
  H   H2727     1.0  0.79205  0.19595  0.86902  1.0000
  H   H2728     1.0  0.90526  0.16392  0.66301  1.0000
  C   C1603     1.0  0.79018  0.14343  0.90878  1.0000
  H   H2729     1.0  0.96572  0.13361  0.73782  1.0000
  C   C1604     1.0  0.57702  0.09124  0.92704  1.0000
  C   C1605     1.0  0.90885  0.22493  0.80930  1.0000
  C   C1606     1.0  0.54617  0.04366  0.88226  1.0000
  Fe  Fe239     1.0  0.87795  0.18888  0.76250  1.0000
  H   H2730     1.0  0.54857  0.12652  0.89434  1.0000
  H   H2731     1.0  0.82007  0.12497  0.75692  1.0000
  H   H2732     1.0  0.95115  0.18407  0.70248  1.0000
  H   H2733     1.0  0.75334  0.10843  0.65487  1.0000
  C   C1607     1.0  0.59873  0.04884  0.90751  1.0000
  H   H2734     1.0  0.84198  0.14127  0.88535  1.0000
  H   H2735     1.0  0.73332  0.22374  0.90977  1.0000
  H   H2736     1.0  0.79757  0.13194  0.91704  1.0000
  C   C1608     1.0  0.65353  0.12981  0.81380  1.0000
  H   H2737     1.0  0.56401  0.06007  0.88114  1.0000
  H   H2738     1.0  0.82299  0.16627  0.89798  1.0000
  H   H2739     1.0  0.92476  0.13483  0.68081  1.0000
  Fe  Fe240     1.0  0.65173  0.08211  0.97242  1.0000
  S   S475      1.0  0.81504  0.19466  0.75921  1.0000
  C   C1609     1.0  0.74154  0.16357  0.92789  1.0000
  Fe  Fe241     1.0  0.72645  0.16128  0.85585  1.0000
  C   C1610     1.0  0.53331  0.05624  0.90861  1.0000
  Fe  Fe242     1.0  0.64451  0.98720  0.75724  1.0000
  H   H2740     1.0  0.54431  0.06973  0.92111  1.0000
  C   C1611     1.0  0.71981  0.11724  0.90197  1.0000
  C   C1612     1.0  0.68212  0.15323  0.85801  1.0000
  H   H2741     1.0  0.67904  0.17884  0.95155  1.0000
  C   C1613     1.0  0.88107  0.14998  0.69073  1.0000
  H   H2742     1.0  0.96409  0.13848  0.70699  1.0000
  C   C1614     1.0  0.56187  0.09527  0.83378  1.0000
  H   H2743     1.0  0.68538  0.15945  0.77076  1.0000
  H   H2744     1.0  0.80636  0.16486  0.75074  1.0000
  H   H2745     1.0  0.90480  0.10734  0.69542  1.0000
  S   S476      1.0  0.51560  0.05083  0.95928  1.0000
  Fe  Fe243     1.0  0.75426  0.99755  0.64510  1.0000
  H   H2746     1.0  0.63036  0.00069  0.94813  1.0000
  H   H2747     1.0  0.57568  0.00946  0.81192  1.0000
  H   H2748     1.0  0.67822  0.09134  0.93253  1.0000
  C   C1615     1.0  0.54363  0.09589  0.83921  1.0000
  Fe  Fe244     1.0  0.73596  0.16490  0.88779  1.0000
  H   H2749     1.0  0.92193  0.12175  0.74157  1.0000
  C   C1616     1.0  0.75091  0.08274  0.65495  1.0000
  C   C1617     1.0  0.80873  0.15283  0.74573  1.0000
  C   C1618     1.0  0.54509  0.09490  0.86874  1.0000
  H   H2750     1.0  0.78353  0.04247  0.65987  1.0000
  H   H2751     1.0  0.77308  0.09207  0.65495  1.0000
  H   H2752     1.0  0.81589  0.22367  0.81617  1.0000
  C   C1619     1.0  0.54937  0.11930  0.90793  1.0000
  Fe  Fe245     1.0  0.97142  0.09518  0.68595  1.0000
  H   H2753     1.0  0.67818  0.08358  0.90672  1.0000
  H   H2754     1.0  0.70088  0.08367  0.94996  1.0000
  C   C1620     1.0  0.92983  0.08090  0.65970  1.0000
  H   H2755     1.0  0.56471  0.13552  0.91141  1.0000
  Fe  Fe246     1.0  0.97741  0.20022  0.77286  1.0000
  N   N113      1.0  0.93917  0.14954  0.73763  1.0000
  Fe  Fe247     1.0  0.84678  0.13208  0.65654  1.0000
  H   H2756     1.0  0.69546  0.02253  0.74774  1.0000
  H   H2757     1.0  0.93763  0.22429  0.82047  1.0000
  H   H2758     1.0  0.78770  0.12812  0.89118  1.0000
  C   C1621     1.0  0.85591  0.16009  0.67685  1.0000
  S   S477      1.0  0.64443  0.10999  0.95817  1.0000
  C   C1622     1.0  0.67734  0.21517  0.93926  1.0000
  H   H2759     1.0  0.90994  0.13499  0.66100  1.0000
  C   C1623     1.0  0.79380  0.04984  0.65390  1.0000
  H   H2760     1.0  0.68647  0.10458  0.95085  1.0000
  H   H2761     1.0  0.71778  0.19435  0.95014  1.0000
  H   H2762     1.0  0.82348  0.17646  0.81936  1.0000
  H   H2763     1.0  0.52839  0.00720  0.93055  1.0000
  Fe  Fe248     1.0  0.86848  0.22238  0.73635  1.0000
  H   H2764     1.0  0.53857  0.09515  0.88218  1.0000
  C   C1624     1.0  0.68651  0.99427  0.71878  1.0000
  H   H2765     1.0  0.52274  0.01059  0.90128  1.0000
  H   H2766     1.0  0.57720  0.11848  0.90063  1.0000
  H   H2767     1.0  0.55206  0.07040  0.76782  1.0000
  C   C1625     1.0  0.54632  0.12991  0.94733  1.0000
  H   H2768     1.0  0.96793  0.11599  0.71763  1.0000
  N   N114      1.0  0.57083  0.11008  0.92887  1.0000
  C   C1626     1.0  0.56621  0.12136  0.91195  1.0000
  C   C1627     1.0  0.94754  0.22933  0.80906  1.0000
  H   H2769     1.0  0.78125  0.17743  0.89664  1.0000
  H   H2770     1.0  0.68259  0.02375  0.73291  1.0000
  H   H2771     1.0  0.66556  0.21003  0.94022  1.0000
  C   C1628     1.0  0.58508  0.11627  0.93260  1.0000
  H   H2772     1.0  0.59283  0.05719  0.89636  1.0000
  S   S478      1.0  0.75013  0.14879  0.86784  1.0000
  Fe  Fe249     1.0  0.72505  0.19724  0.86082  1.0000
  S   S479      1.0  0.49774  0.07455  0.81873  1.0000
  H   H2773     1.0  0.92304  0.16106  0.75939  1.0000
  H   H2774     1.0  0.70322  0.11405  0.84714  1.0000
  S   S480      1.0  0.98906  0.08294  0.70499  1.0000
  S   S481      1.0  0.65442  0.04732  0.89312  1.0000
  H   H2775     1.0  0.81091  0.17958  0.86323  1.0000
  H   H2776     1.0  0.77866  0.12026  0.65106  1.0000
  H   H2777     1.0  0.78449  0.16755  0.87899  1.0000
  H   H2778     1.0  0.57356  0.03668  0.88637  1.0000
  S   S482      1.0  0.78973  0.17182  0.84126  1.0000
  H   H2779     1.0  0.60523  0.05715  0.91128  1.0000
  H   H2780     1.0  0.95318  0.21998  0.80038  1.0000
  H   H2781     1.0  0.70403  0.14376  0.78780  1.0000
  H   H2782     1.0  0.70313  0.15065  0.80703  1.0000
  C   C1629     1.0  0.55494  0.11137  0.94388  1.0000
  C   C1630     1.0  0.51688  0.02355  0.89387  1.0000
  H   H2783     1.0  0.53855  0.05513  0.87420  1.0000
  C   C1631     1.0  0.70861  0.20475  0.94272  1.0000
  H   H2784     1.0  0.80885  0.18965  0.88125  1.0000
  H   H2785     1.0  0.73054  0.11795  0.88996  1.0000
  C   C1632     1.0  0.69723  0.09717  0.94209  1.0000
  H   H2786     1.0  0.58792  0.06456  0.93981  1.0000
  H   H2787     1.0  0.80411  0.22920  0.95168  1.0000
  H   H2788     1.0  0.79539  0.15302  0.74417  1.0000
  S   S483      1.0  0.61925  0.99365  0.77653  1.0000
  H   H2789     1.0  0.54273  0.13958  0.93560  1.0000
  Fe  Fe250     1.0  0.63405  0.10907  0.86139  1.0000
  S   S484      1.0  0.61651  0.10901  0.84432  1.0000
  C   C1633     1.0  0.55909  0.05934  0.76141  1.0000
  H   H2790     1.0  0.56284  0.03144  0.76703  1.0000
  H   H2791     1.0  0.63008  0.00869  0.88186  1.0000
  H   H2792     1.0  0.78763  0.06312  0.67501  1.0000
  C   C1634     1.0  0.83911  0.15687  0.73065  1.0000
  C   C1635     1.0  0.53528  0.09554  0.85675  1.0000
  H   H2793     1.0  0.52057  0.02772  0.78879  1.0000
  H   H2794     1.0  0.56838  0.09552  0.82022  1.0000
  H   H2795     1.0  0.81440  0.12100  0.71330  1.0000
  H   H2796     1.0  0.57755  0.03875  0.77455  1.0000
  C   C1636     1.0  0.57177  0.09410  0.84589  1.0000
  H   H2797     1.0  0.55493  0.13467  0.95263  1.0000
  C   C1637     1.0  0.93400  0.19172  0.77695  1.0000
  H   H2798     1.0  0.68020  0.00839  0.71641  1.0000
  S   S485      1.0  0.57553  0.09174  0.87896  1.0000
  H   H2799     1.0  0.82119  0.14608  0.91305  1.0000
  H   H2800     1.0  0.79400  0.16103  0.93163  1.0000
  H   H2801     1.0  0.64640  0.99005  0.88874  1.0000
  H   H2802     1.0  0.70047  0.12429  0.88635  1.0000
  H   H2803     1.0  0.54837  0.01352  0.79063  1.0000
  H   H2804     1.0  0.84588  0.16429  0.71819  1.0000
  H   H2805     1.0  0.52118  0.09625  0.86094  1.0000
  H   H2806     1.0  0.93148  0.12368  0.65228  1.0000
  S   S486      1.0  0.63886  0.13395  0.86457  1.0000
  C   C1638     1.0  0.52352  0.04079  0.78199  1.0000
  H   H2807     1.0  0.53147  0.04033  0.76863  1.0000
  H   H2808     1.0  0.51060  0.04991  0.78078  1.0000
  S   S487      1.0  0.76540  0.18887  0.95627  1.0000
  N   N115      1.0  0.55188  0.03856  0.79205  1.0000
  H   H2809     1.0  0.63164  0.15211  0.80731  1.0000
  H   H2810     1.0  0.56577  0.08615  0.92650  1.0000
  H   H2811     1.0  0.62892  0.14164  0.82979  1.0000
  C   C1639     1.0  0.80920  0.07146  0.65471  1.0000
  H   H2812     1.0  0.70859  0.10149  0.89297  1.0000
  H   H2813     1.0  0.91776  0.17878  0.64942  1.0000
  S   S488      1.0  0.53143  0.09726  0.82393  1.0000
  H   H2814     1.0  0.65374  0.16173  0.86585  1.0000
  H   H2815     1.0  0.91264  0.16240  0.73417  1.0000
  H   H2816     1.0  0.75992  0.19844  0.92152  1.0000
  C   C1640     1.0  0.53263  0.04724  0.79253  1.0000
  H   H2817     1.0  0.50624  0.98814  0.84032  1.0000
  H   H2818     1.0  0.53053  0.06166  0.78799  1.0000
  H   H2819     1.0  0.80510  0.14364  0.70648  1.0000
  C   C1641     1.0  0.55284  0.01912  0.79918  1.0000
  C   C1642     1.0  0.81426  0.17921  0.81103  1.0000
  C   C1643     1.0  0.81002  0.13371  0.71748  1.0000
  C   C1644     1.0  0.57132  0.00761  0.80096  1.0000
  H   H2820     1.0  0.54576  0.07344  0.79818  1.0000
  C   C1645     1.0  0.82598  0.13783  0.72122  1.0000
  H   H2821     1.0  0.83610  0.13915  0.70868  1.0000
  C   C1646     1.0  0.91136  0.08643  0.66268  1.0000
  H   H2822     1.0  0.79914  0.13228  0.72922  1.0000
  H   H2823     1.0  0.65677  0.12215  0.82655  1.0000
  H   H2824     1.0  0.52486  0.04521  0.80624  1.0000
  H   H2825     1.0  0.56277  0.06774  0.80997  1.0000
  H   H2826     1.0  0.54374  0.01667  0.81225  1.0000
  C   C1647     1.0  0.55830  0.04508  0.80423  1.0000
  C   C1648     1.0  0.55882  0.06464  0.79937  1.0000
  H   H2827     1.0  0.57208  0.03810  0.80513  1.0000
  H   H2828     1.0  0.67762  0.98795  0.73050  1.0000
  C   C1649     1.0  0.63888  0.14592  0.81799  1.0000
  H   H2829     1.0  0.72768  0.00273  0.71118  1.0000
  C   C1650     1.0  0.66455  0.15125  0.86191  1.0000
  C   C1651     1.0  0.66093  0.13587  0.86048  1.0000
  H   H2830     1.0  0.85917  0.13310  0.72533  1.0000
  C   C1652     1.0  0.85343  0.14050  0.73589  1.0000
  H   H2831     1.0  0.86460  0.14478  0.73771  1.0000
  C   C1653     1.0  0.79169  0.17082  0.88699  1.0000
  H   H2832     1.0  0.79436  0.18156  0.91549  1.0000
  H   H2833     1.0  0.58589  0.09330  0.84166  1.0000
  H   H2834     1.0  0.67565  0.14043  0.82220  1.0000
  C   C1654     1.0  0.76437  0.22512  0.84242  1.0000
  C   C1655     1.0  0.71079  0.22255  0.94394  1.0000
  H   H2835     1.0  0.55005  0.04233  0.81775  1.0000
  H   H2836     1.0  0.56907  0.06768  0.78736  1.0000
  C   C1656     1.0  0.81350  0.13753  0.76092  1.0000
  H   H2837     1.0  0.82187  0.14084  0.76776  1.0000
  H   H2838     1.0  0.80110  0.13498  0.77043  1.0000
  H   H2839     1.0  0.92923  0.18021  0.70900  1.0000
  H   H2840     1.0  0.92502  0.15002  0.71833  1.0000
  H   H2841     1.0  0.90693  0.13557  0.75610  1.0000
  Fe  Fe251     1.0  0.50768  0.08530  0.83577  1.0000
  H   H2842     1.0  0.93739  0.22547  0.78127  1.0000
  C   C1657     1.0  0.94634  0.16574  0.72756  1.0000
  H   H2843     1.0  0.67241  0.11037  0.85470  1.0000
  H   H2844     1.0  0.67298  0.15818  0.80439  1.0000
  H   H2845     1.0  0.64824  0.01055  0.93347  1.0000
  C   C1658     1.0  0.74884  0.16444  0.95450  1.0000
  Fe  Fe252     1.0  0.83321  0.10131  0.65470  1.0000
  S   S489      1.0  0.84926  0.10420  0.67201  1.0000
  C   C1659     1.0  0.92249  0.14997  0.73241  1.0000
  C   C1660     1.0  0.91379  0.17119  0.80419  1.0000
  C   C1661     1.0  0.92962  0.17355  0.80615  1.0000
  H   H2846     1.0  0.90613  0.16302  0.81469  1.0000
  H   H2847     1.0  0.93407  0.16727  0.81818  1.0000
  C   C1662     1.0  0.67496  0.12235  0.85553  1.0000
  H   H2848     1.0  0.66001  0.11286  0.91508  1.0000
  H   H2849     1.0  0.71681  0.12998  0.90578  1.0000
  C   C1663     1.0  0.91305  0.13478  0.74230  1.0000
  S   S490      1.0  0.88872  0.17465  0.78642  1.0000
  C   C1664     1.0  0.90795  0.17911  0.78865  1.0000
  C   C1665     1.0  0.67867  0.14382  0.80770  1.0000
  C   C1666     1.0  0.76152  0.09736  0.64865  1.0000
  H   H2850     1.0  0.60351  0.99366  0.95102  1.0000
  H   H2851     1.0  0.68837  0.10803  0.82304  1.0000
  H   H2852     1.0  0.66990  0.12766  0.93126  1.0000
  S   S491      1.0  0.89977  0.08107  0.65034  1.0000
  H   H2853     1.0  0.81675  0.12942  0.88906  1.0000
  H   H2854     1.0  0.57705  0.07828  0.95484  1.0000
  H   H2855     1.0  0.89166  0.13952  0.69504  1.0000
  H   H2856     1.0  0.68485  0.16521  0.85888  1.0000
  C   C1667     1.0  0.69903  0.14128  0.80212  1.0000
  H   H2857     1.0  0.53133  0.06854  0.89845  1.0000
  H   H2858     1.0  0.70011  0.08535  0.92060  1.0000
  H   H2859     1.0  0.94408  0.15173  0.77833  1.0000
  C   C1668     1.0  0.75574  0.17933  0.94569  1.0000
  C   C1669     1.0  0.81322  0.15849  0.90653  1.0000
  C   C1670     1.0  0.80247  0.16874  0.92082  1.0000
  C   C1671     1.0  0.75501  0.18665  0.92821  1.0000
  S   S492      1.0  0.54145  0.07138  0.96649  1.0000
  H   H2860     1.0  0.95867  0.22988  0.81427  1.0000
  S   S493      1.0  0.86539  0.17376  0.75218  1.0000
  C   C1672     1.0  0.94942  0.15108  0.76438  1.0000
  H   H2861     1.0  0.94761  0.16411  0.70044  1.0000
  N   N116      1.0  0.69019  0.20124  0.94887  1.0000
  C   C1673     1.0  0.69068  0.09620  0.92641  1.0000
  Fe  Fe253     1.0  0.76062  0.17243  0.85173  1.0000
  C   C1674     1.0  0.85345  0.17678  0.68001  1.0000
  C   C1675     1.0  0.67922  0.15001  0.76834  1.0000
  C   C1676     1.0  0.79669  0.17766  0.81840  1.0000
  S   S494      1.0  0.85463  0.21166  0.76363  1.0000
  S   S495      1.0  0.73393  0.15283  0.91650  1.0000
  C   C1677     1.0  0.69244  0.12445  0.85130  1.0000
  H   H2862     1.0  0.78147  0.18898  0.78096  1.0000
  N   N117      1.0  0.80267  0.15441  0.89610  1.0000
  C   C1678     1.0  0.68620  0.10253  0.81305  1.0000
  H   H2863     1.0  0.54949  0.10545  0.90872  1.0000
  C   C1679     1.0  0.67548  0.09620  0.89721  1.0000
  H   H2864     1.0  0.66323  0.09677  0.89315  1.0000
  S   S496      1.0  0.94178  0.09961  0.69508  1.0000
  C   C1680     1.0  0.95306  0.13302  0.73530  1.0000
  Fe  Fe254     1.0  0.84333  0.19756  0.75094  1.0000
  C   C1681     1.0  0.79064  0.18627  0.78933  1.0000
  C   C1682     1.0  0.80817  0.18797  0.78197  1.0000
  N   N118      1.0  0.67003  0.13384  0.80056  1.0000
  C   C1683     1.0  0.67263  0.11233  0.90496  1.0000
  H   H2865     1.0  0.88807  0.16613  0.64381  1.0000
  H   H2866     1.0  0.67013  0.12393  0.89418  1.0000
  C   C1684     1.0  0.87820  0.16654  0.69440  1.0000
  C   C1685     1.0  0.68182  0.11667  0.79689  1.0000
  C   C1686     1.0  0.81476  0.14375  0.88306  1.0000
  H   H2867     1.0  0.81180  0.17164  0.92684  1.0000
  H   H2868     1.0  0.67536  0.09535  0.81899  1.0000
  N   N119      1.0  0.68755  0.11287  0.91248  1.0000
  H   H2869     1.0  0.68629  0.09621  0.88533  1.0000
  C   C1687     1.0  0.56477  0.04716  0.87879  1.0000
  C   C1688     1.0  0.83375  0.14687  0.87540  1.0000
  H   H2870     1.0  0.91348  0.19581  0.76306  1.0000
  C   C1689     1.0  0.77934  0.13628  0.90056  1.0000
  H   H2871     1.0  0.70890  0.10309  0.93829  1.0000
  H   H2872     1.0  0.69462  0.11852  0.78787  1.0000
  H   H2873     1.0  0.52081  0.05764  0.91879  1.0000
  H   H2874     1.0  0.68576  0.98415  0.64724  1.0000
  C   C1690     1.0  0.82000  0.18433  0.79285  1.0000
  H   H2875     1.0  0.83361  0.18538  0.78728  1.0000
  H   H2876     1.0  0.76982  0.14702  0.89410  1.0000
  H   H2877     1.0  0.77132  0.12785  0.91112  1.0000
  C   C1691     1.0  0.93930  0.08504  0.66947  1.0000
  H   H2878     1.0  0.95349  0.08063  0.66717  1.0000
  C   C1692     1.0  0.93030  0.09446  0.68246  1.0000
  Fe  Fe255     1.0  0.87269  0.09843  0.65014  1.0000
  H   H2879     1.0  0.79791  0.22354  0.84550  1.0000
  H   H2880     1.0  0.86237  0.19289  0.69131  1.0000
  H   H2881     1.0  0.61208  0.11990  0.92340  1.0000
  H   H2882     1.0  0.84268  0.18720  0.67599  1.0000
  C   C1693     1.0  0.86454  0.18002  0.68875  1.0000
  H   H2883     1.0  0.77143  0.17969  0.81305  1.0000
  S   S497      1.0  0.89283  0.20045  0.73608  1.0000
  C   C1694     1.0  0.78492  0.18109  0.80751  1.0000
  C   C1695     1.0  0.66437  0.14481  0.78400  1.0000
  C   C1696     1.0  0.68176  0.12882  0.92040  1.0000
  S   S498      1.0  0.84028  0.15612  0.66785  1.0000
  H   H2884     1.0  0.65527  0.15745  0.78622  1.0000
  C   C1697     1.0  0.95788  0.12853  0.71727  1.0000
  H   H2885     1.0  0.94187  0.19933  0.76626  1.0000
  H   H2886     1.0  0.74670  0.18498  0.90622  1.0000
  H   H2887     1.0  0.60930  0.10101  0.91851  1.0000
  C   C1698     1.0  0.60289  0.11478  0.91919  1.0000
  C   C1699     1.0  0.74763  0.17895  0.91946  1.0000
  S   S499      1.0  0.71812  0.14217  0.84612  1.0000
  S   S500      1.0  0.98243  0.11947  0.67519  1.0000
  C   C1700     1.0  0.77330  0.23326  0.87239  1.0000
  H   H2888     1.0  0.92474  0.23121  0.75661  1.0000
  C   C1701     1.0  0.67019  0.23290  0.94505  1.0000
  H   H2889     1.0  0.54493  0.98494  0.77580  1.0000
  C   C1702     1.0  0.92092  0.13554  0.64915  1.0000
  S   S501      1.0  0.63113  0.98828  0.73637  1.0000
  C   C1703     1.0  0.79559  0.22940  0.96492  1.0000
  H   H2890     1.0  0.63438  0.02002  0.95111  1.0000
  S   S502      1.0  0.59160  0.12300  0.97160  1.0000
  C   C1704     1.0  0.70243  0.99871  0.73788  1.0000
  S   S503      1.0  0.56525  0.02589  0.96041  1.0000
  H   H2891     1.0  0.71516  0.99565  0.74202  1.0000
  H   H2892     1.0  0.52296  0.02490  0.87973  1.0000
  H   H2893     1.0  0.75933  0.07003  0.65225  1.0000
  H   H2894     1.0  0.69304  0.99263  0.74935  1.0000
  H   H2895     1.0  0.90416  0.22149  0.82371  1.0000
  H   H2896     1.0  0.57064  0.99362  0.80392  1.0000
  H   H2897     1.0  0.76773  0.22148  0.87527  1.0000
  H   H2898     1.0  0.89913  0.22198  0.80380  1.0000
  C   C1705     1.0  0.68476  0.19918  0.96845  1.0000
  H   H2899     1.0  0.50270  0.02375  0.89527  1.0000
  C   C1706     1.0  0.49647  0.01537  0.82939  1.0000
  H   H2900     1.0  0.74021  0.98727  0.69012  1.0000
  C   C1707     1.0  0.91278  0.16734  0.64936  1.0000
  H   H2901     1.0  0.72517  0.22235  0.94068  1.0000
  H   H2902     1.0  0.79824  0.21581  0.97293  1.0000
  C   C1708     1.0  0.80122  0.22674  0.81829  1.0000
  H   H2903     1.0  0.62360  0.98999  0.89842  1.0000
  H   H2904     1.0  0.79750  0.21415  0.81986  1.0000
  C   C1709     1.0  0.72815  0.23216  0.89870  1.0000
  H   H2905     1.0  0.70618  0.14213  0.96890  1.0000
  C   C1710     1.0  0.49719  0.99739  0.83270  1.0000
  S   S504      1.0  0.71303  0.22618  0.85778  1.0000
  H   H2906     1.0  0.69397  0.18787  0.97487  1.0000
  S   S505      1.0  0.99437  0.19762  0.70950  1.0000
  H   H2907     1.0  0.69744  0.00170  0.64273  1.0000
  S   S506      1.0  0.79558  0.45808  0.02678  1.0000
  Fe  Fe256     1.0  0.77239  0.30693  0.00885  1.0000
  S   S507      1.0  0.79460  0.31641  0.98816  1.0000
  S   S508      1.0  0.77450  0.27779  0.01708  1.0000
  Fe  Fe257     1.0  0.75595  0.34324  0.01673  1.0000
  S   S509      1.0  0.77677  0.35571  0.99674  1.0000
  S   S510      1.0  0.73274  0.35685  0.03428  1.0000
  H   H2908     1.0  0.96392  0.46609  0.06419  1.0000
  C   C1711     1.0  0.71950  0.38248  0.99127  1.0000
  Fe  Fe258     1.0  0.79548  0.33124  0.00696  1.0000
  S   S511      1.0  0.82060  0.33044  0.01393  1.0000
  S   S512      1.0  0.75119  0.32904  0.99911  1.0000
  S   S513      1.0  0.77488  0.32002  0.02844  1.0000
  H   H2909     1.0  0.84017  0.27374  0.97914  1.0000
  H   H2910     1.0  0.83897  0.40533  0.99944  1.0000
  H   H2911     1.0  0.93188  0.30322  0.12997  1.0000
  N   N120      1.0  0.96413  0.25289  0.18474  1.0000
  H   H2912     1.0  0.82494  0.45958  0.03947  1.0000
  H   H2913     1.0  0.85019  0.25673  0.04796  1.0000
  H   H2914     1.0  0.91968  0.27423  0.09409  1.0000
  S   S514      1.0  0.86928  0.43938  0.10912  1.0000
  H   H2915     1.0  0.81364  0.27535  0.05739  1.0000
  H   H2916     1.0  0.69688  0.41029  0.05194  1.0000
  H   H2917     1.0  0.72884  0.24622  0.08527  1.0000
  H   H2918     1.0  0.93663  0.26709  0.18924  1.0000
  H   H2919     1.0  0.70292  0.37948  0.04983  1.0000
  H   H2920     1.0  0.68615  0.32302  0.98844  1.0000
  H   H2921     1.0  0.90515  0.48119  0.07376  1.0000
  H   H2922     1.0  0.96657  0.25388  0.21013  1.0000
  Fe  Fe259     1.0  0.82554  0.36286  0.12453  1.0000
  S   S515      1.0  0.83670  0.36714  0.09574  1.0000
  S   S516      1.0  0.82038  0.38430  0.13894  1.0000
  Fe  Fe260     1.0  0.82048  0.32615  0.12691  1.0000
  S   S517      1.0  0.83108  0.32760  0.09830  1.0000
  S   S518      1.0  0.81006  0.30322  0.14553  1.0000
  Fe  Fe261     1.0  0.85170  0.33919  0.10184  1.0000
  S   S519      1.0  0.88058  0.32884  0.09180  1.0000
  Fe  Fe262     1.0  0.81506  0.35531  0.09521  1.0000
  S   S520      1.0  0.79727  0.36852  0.07648  1.0000
  S   S521      1.0  0.84227  0.33581  0.13089  1.0000
  S   S522      1.0  0.80261  0.35292  0.12362  1.0000
  H   H2923     1.0  0.87334  0.47911  0.13994  1.0000
  H   H2924     1.0  0.74366  0.25779  0.08699  1.0000
  H   H2925     1.0  0.71328  0.41807  0.98691  1.0000
  Fe  Fe263     1.0  0.94379  0.38102  0.09129  1.0000
  S   S523      1.0  0.94530  0.36260  0.11718  1.0000
  S   S524      1.0  0.91970  0.38950  0.08015  1.0000
  Fe  Fe264     1.0  0.95580  0.38314  0.12222  1.0000
  S   S525      1.0  0.94430  0.39174  0.14766  1.0000
  Fe  Fe265     1.0  0.97337  0.35241  0.10420  1.0000
  S   S526      1.0  0.95191  0.40236  0.09736  1.0000
  S   S527      1.0  0.97095  0.36929  0.07769  1.0000
  C   C1712     1.0  0.72284  0.41412  0.03766  1.0000
  S   S528      1.0  0.79313  0.24328  0.12136  1.0000
  C   C1713     1.0  0.82492  0.38204  0.99644  1.0000
  H   H2926     1.0  0.92565  0.42568  0.07098  1.0000
  S   S529      1.0  0.72148  0.48236  0.01246  1.0000
  Fe  Fe266     1.0  0.97931  0.38910  0.08617  1.0000
  S   S530      1.0  0.72000  0.24574  0.99984  1.0000
  C   C1714     1.0  0.90895  0.24538  0.12625  1.0000
  H   H2927     1.0  0.89184  0.29755  0.11698  1.0000
  H   H2928     1.0  0.68928  0.30613  0.97694  1.0000
  C   C1715     1.0  0.78140  0.24899  0.07185  1.0000
  C   C1716     1.0  0.91379  0.47448  0.04894  1.0000
  C   C1717     1.0  0.72756  0.41846  0.98338  1.0000
  C   C1718     1.0  0.94453  0.25337  0.19159  1.0000
  Fe  Fe267     1.0  0.95575  0.23797  0.13258  1.0000
  H   H2929     1.0  0.80845  0.24678  0.01625  1.0000
  H   H2930     1.0  0.85419  0.27045  0.11047  1.0000
  H   H2931     1.0  0.82560  0.39155  0.98376  1.0000
  H   H2932     1.0  0.86522  0.26219  0.13474  1.0000
  H   H2933     1.0  0.74433  0.27325  0.05922  1.0000
  H   H2934     1.0  0.87204  0.25234  0.03502  1.0000
  H   H2935     1.0  0.94960  0.32606  0.11915  1.0000
  C   C1719     1.0  0.80595  0.28679  0.13796  1.0000
  C   C1720     1.0  0.81559  0.28214  0.12214  1.0000
  C   C1721     1.0  0.81228  0.26832  0.11710  1.0000
  C   C1722     1.0  0.79887  0.25963  0.12762  1.0000
  C   C1723     1.0  0.78903  0.26465  0.14315  1.0000
  C   C1724     1.0  0.79279  0.27789  0.14846  1.0000
  H   H2936     1.0  0.82564  0.28910  0.11391  1.0000
  H   H2937     1.0  0.81982  0.26462  0.10496  1.0000
  H   H2938     1.0  0.78532  0.28139  0.16070  1.0000
  C   C1725     1.0  0.89224  0.34538  0.08731  1.0000
  C   C1726     1.0  0.88423  0.36281  0.08114  1.0000
  C   C1727     1.0  0.89290  0.37625  0.07876  1.0000
  C   C1728     1.0  0.90963  0.37230  0.08253  1.0000
  C   C1729     1.0  0.91790  0.35483  0.08836  1.0000
  C   C1730     1.0  0.90924  0.34131  0.09063  1.0000
  H   H2939     1.0  0.87149  0.36594  0.07789  1.0000
  H   H2940     1.0  0.88659  0.38974  0.07408  1.0000
  H   H2941     1.0  0.93093  0.35173  0.09111  1.0000
  H   H2942     1.0  0.91550  0.32782  0.09536  1.0000
  C   C1731     1.0  0.93386  0.45026  0.14682  1.0000
  C   C1732     1.0  0.92441  0.43907  0.16010  1.0000
  C   C1733     1.0  0.92774  0.42124  0.16009  1.0000
  C   C1734     1.0  0.94030  0.41442  0.14659  1.0000
  C   C1735     1.0  0.94956  0.42564  0.13298  1.0000
  C   C1736     1.0  0.94648  0.44355  0.13320  1.0000
  H   H2943     1.0  0.79577  0.43805  0.12170  1.0000
  H   H2944     1.0  0.92061  0.41267  0.17065  1.0000
  H   H2945     1.0  0.95946  0.42040  0.12261  1.0000
  H   H2946     1.0  0.94149  0.24827  0.20602  1.0000
  H   H2947     1.0  0.85038  0.29384  0.12613  1.0000
  N   N121      1.0  0.88645  0.27335  0.11580  1.0000
  H   H2948     1.0  0.92141  0.25017  0.12130  1.0000
  H   H2949     1.0  0.77238  0.26195  0.06898  1.0000
  H   H2950     1.0  0.87125  0.26041  0.09437  1.0000
  H   H2951     1.0  0.96690  0.28567  0.20348  1.0000
  C   C1737     1.0  0.85467  0.42507  0.11615  1.0000
  C   C1738     1.0  0.83975  0.42764  0.12966  1.0000
  C   C1739     1.0  0.82932  0.41501  0.13657  1.0000
  C   C1740     1.0  0.83369  0.39986  0.12994  1.0000
  C   C1741     1.0  0.84847  0.39745  0.11622  1.0000
  C   C1742     1.0  0.85890  0.41007  0.10932  1.0000
  H   H2952     1.0  0.83653  0.43910  0.13511  1.0000
  H   H2953     1.0  0.81789  0.41695  0.14717  1.0000
  H   H2954     1.0  0.85208  0.38575  0.11109  1.0000
  H   H2955     1.0  0.87047  0.40806  0.09887  1.0000
  H   H2956     1.0  0.72654  0.44473  0.98586  1.0000
  H   H2957     1.0  0.82871  0.28602  0.04033  1.0000
  C   C1743     1.0  0.81101  0.38924  0.01151  1.0000
  H   H2958     1.0  0.90330  0.24668  0.13993  1.0000
  H   H2959     1.0  0.82739  0.43642  0.00507  1.0000
  H   H2960     1.0  0.80668  0.43928  0.97678  1.0000
  H   H2961     1.0  0.96934  0.45473  0.04704  1.0000
  C   C1744     1.0  0.83061  0.40752  0.01227  1.0000
  H   H2962     1.0  0.98117  0.39545  0.04796  1.0000
  H   H2963     1.0  0.97887  0.26393  0.11779  1.0000
  H   H2964     1.0  0.88801  0.28300  0.08797  1.0000
  H   H2965     1.0  0.92132  0.43748  0.09667  1.0000
  C   C1745     1.0  0.97438  0.30803  0.11264  1.0000
  C   C1746     1.0  0.75937  0.26933  0.01176  1.0000
  C   C1747     1.0  0.76096  0.25115  0.01594  1.0000
  C   C1748     1.0  0.74865  0.24391  0.01271  1.0000
  C   C1749     1.0  0.73497  0.25478  0.00475  1.0000
  C   C1750     1.0  0.73349  0.27301  0.00032  1.0000
  C   C1751     1.0  0.74566  0.28030  0.00386  1.0000
  H   H2966     1.0  0.77157  0.24263  0.02200  1.0000
  C   C1752     1.0  0.91430  0.28607  0.09961  1.0000
  H   H2967     1.0  0.72289  0.28146  0.99422  1.0000
  H   H2968     1.0  0.74438  0.29435  0.00059  1.0000
  C   C1753     1.0  0.81444  0.34119  0.03116  1.0000
  C   C1754     1.0  0.82688  0.34080  0.04032  1.0000
  C   C1755     1.0  0.82170  0.34934  0.05425  1.0000
  C   C1756     1.0  0.80417  0.35846  0.05875  1.0000
  C   C1757     1.0  0.79184  0.35907  0.04942  1.0000
  C   C1758     1.0  0.79691  0.35027  0.03578  1.0000
  H   H2969     1.0  0.84045  0.33381  0.03675  1.0000
  H   H2970     1.0  0.83130  0.34897  0.06138  1.0000
  H   H2971     1.0  0.77828  0.36615  0.05289  1.0000
  H   H2972     1.0  0.78724  0.35075  0.02876  1.0000
  C   C1759     1.0  0.89904  0.28396  0.11592  1.0000
  H   H2973     1.0  0.79817  0.45959  0.10970  1.0000
  H   H2974     1.0  0.77861  0.25808  0.15128  1.0000
  H   H2975     1.0  0.91073  0.23871  0.07805  1.0000
  S   S531      1.0  0.74398  0.46789  0.04305  1.0000
  C   C1760     1.0  0.98254  0.29044  0.11217  1.0000
  H   H2976     1.0  0.90475  0.27896  0.12777  1.0000
  H   H2977     1.0  0.91002  0.29739  0.08924  1.0000
  C   C1761     1.0  0.89600  0.25493  0.11409  1.0000
  S   S532      1.0  0.71716  0.43603  0.03986  1.0000
  C   C1762     1.0  0.70980  0.40430  0.04517  1.0000
  C   C1763     1.0  0.71323  0.38682  0.04399  1.0000
  C   C1764     1.0  0.72979  0.37883  0.03534  1.0000
  H   H2978     1.0  0.82331  0.23540  0.00040  1.0000
  C   C1765     1.0  0.68230  0.31972  0.97791  1.0000
  C   C1766     1.0  0.85923  0.28946  0.13547  1.0000
  C   C1767     1.0  0.79712  0.47043  0.04056  1.0000
  C   C1768     1.0  0.80206  0.42167  0.00227  1.0000
  H   H2979     1.0  0.95393  0.45209  0.12299  1.0000
  C   C1769     1.0  0.99086  0.24611  0.06746  1.0000
  C   C1770     1.0  0.83983  0.28413  0.98563  1.0000
  H   H2980     1.0  0.87944  0.26798  0.14410  1.0000
  C   C1771     1.0  0.96957  0.26113  0.19625  1.0000
  C   C1772     1.0  0.77423  0.23399  0.07014  1.0000
  H   H2981     1.0  0.90341  0.42760  0.08308  1.0000
  C   C1773     1.0  0.81709  0.28022  0.04301  1.0000
  H   H2982     1.0  0.91468  0.44413  0.17067  1.0000
  H   H2983     1.0  0.74969  0.41378  0.02314  1.0000
  C   C1774     1.0  0.85799  0.25263  0.03570  1.0000
  H   H2984     1.0  0.98649  0.26507  0.04400  1.0000
  C   C1775     1.0  0.78206  0.48175  0.04781  1.0000
  H   H2985     1.0  0.84767  0.24822  0.99906  1.0000
  Fe  Fe268     1.0  0.74741  0.47999  0.99318  1.0000
  C   C1776     1.0  0.86445  0.27296  0.09841  1.0000
  H   H2986     1.0  0.88686  0.46920  0.15539  1.0000
  H   H2987     1.0  0.89776  0.47840  0.17186  1.0000
  H   H2988     1.0  0.88642  0.24648  0.11657  1.0000
  C   C1777     1.0  0.83342  0.42485  0.01416  1.0000
  H   H2989     1.0  0.76817  0.23448  0.97827  1.0000
  H   H2990     1.0  0.75165  0.25423  0.05017  1.0000
  H   H2991     1.0  0.99413  0.26518  0.16601  1.0000
  H   H2992     1.0  0.82539  0.42242  0.97975  1.0000
  Fe  Fe269     1.0  0.76830  0.46653  0.02136  1.0000
  H   H2993     1.0  0.77492  0.23569  0.05607  1.0000
  H   H2994     1.0  0.96523  0.25484  0.15757  1.0000
  C   C1778     1.0  0.73959  0.40622  0.02897  1.0000
  H   H2995     1.0  0.90802  0.44299  0.06319  1.0000
  H   H2996     1.0  0.98834  0.44860  0.10681  1.0000
  C   C1779     1.0  0.96694  0.26267  0.16587  1.0000
  S   S533      1.0  0.92909  0.47248  0.14796  1.0000
  C   C1780     1.0  0.80226  0.40754  0.03289  1.0000
  C   C1781     1.0  0.78248  0.40681  0.03794  1.0000
  H   H2997     1.0  0.80906  0.39674  0.04225  1.0000
  H   H2998     1.0  0.80259  0.41991  0.03590  1.0000
  H   H2999     1.0  0.79779  0.38957  0.00952  1.0000
  H   H3000     1.0  0.77780  0.40502  0.05234  1.0000
  H   H3001     1.0  0.77428  0.41934  0.03208  1.0000
  H   H3002     1.0  0.77991  0.39574  0.03438  1.0000
  H   H3003     1.0  0.76215  0.23701  0.10379  1.0000
  C   C1782     1.0  0.94602  0.29960  0.12500  1.0000
  H   H3004     1.0  0.86565  0.30015  0.13461  1.0000
  N   N122      1.0  0.81167  0.40665  0.01423  1.0000
  H   H3005     1.0  0.87115  0.29599  0.10088  1.0000
  C   C1783     1.0  0.95606  0.31258  0.11888  1.0000
  H   H3006     1.0  0.78868  0.41969  0.00318  1.0000
  S   S534      1.0  0.75888  0.45269  0.00658  1.0000
  S   S535      1.0  0.85107  0.47866  0.07628  1.0000
  H   H3007     1.0  0.83679  0.39665  0.02202  1.0000
  S   S536      1.0  0.94140  0.26594  0.13352  1.0000
  C   C1784     1.0  0.87286  0.27231  0.13286  1.0000
  N   N123      1.0  0.77394  0.31816  0.09398  1.0000
  C   C1785     1.0  0.76450  0.32956  0.10707  1.0000
  C   C1786     1.0  0.76687  0.32693  0.07765  1.0000
  C   C1787     1.0  0.79340  0.31800  0.09017  1.0000
  C   C1788     1.0  0.77062  0.29994  0.10189  1.0000
  C   C1789     1.0  0.77033  0.32389  0.12466  1.0000
  C   C1790     1.0  0.74718  0.32749  0.07930  1.0000
  C   C1791     1.0  0.80587  0.30817  0.07619  1.0000
  C   C1792     1.0  0.77451  0.28752  0.08931  1.0000
  H   H3008     1.0  0.76603  0.34339  0.10136  1.0000
  H   H3009     1.0  0.75002  0.33017  0.11052  1.0000
  H   H3010     1.0  0.77439  0.32096  0.06644  1.0000
  H   H3011     1.0  0.76850  0.34074  0.07318  1.0000
  H   H3012     1.0  0.79541  0.33166  0.08623  1.0000
  H   H3013     1.0  0.79876  0.31186  0.10210  1.0000
  H   H3014     1.0  0.77852  0.29308  0.11201  1.0000
  H   H3015     1.0  0.75660  0.30059  0.10920  1.0000
  H   H3016     1.0  0.76152  0.33255  0.13345  1.0000
  H   H3017     1.0  0.76926  0.31027  0.13151  1.0000
  H   H3018     1.0  0.78392  0.32551  0.12312  1.0000
  H   H3019     1.0  0.74414  0.33250  0.06610  1.0000
  H   H3020     1.0  0.74397  0.31437  0.08443  1.0000
  H   H3021     1.0  0.73826  0.33674  0.08738  1.0000
  H   H3022     1.0  0.80258  0.31334  0.06317  1.0000
  H   H3023     1.0  0.80674  0.29385  0.08047  1.0000
  H   H3024     1.0  0.81947  0.31002  0.07440  1.0000
  H   H3025     1.0  0.78479  0.27570  0.09303  1.0000
  H   H3026     1.0  0.77919  0.29318  0.07536  1.0000
  H   H3027     1.0  0.76243  0.28282  0.09059  1.0000
  N   N124      1.0  0.83426  0.26550  0.01706  1.0000
  C   C1793     1.0  0.83629  0.24933  0.01045  1.0000
  C   C1794     1.0  0.85206  0.26573  0.01956  1.0000
  C   C1795     1.0  0.82812  0.28195  0.00426  1.0000
  C   C1796     1.0  0.82054  0.26489  0.03393  1.0000
  H   H3028     1.0  0.78452  0.24659  0.08480  1.0000
  H   H3029     1.0  0.79908  0.43417  0.00659  1.0000
  H   H3030     1.0  0.96314  0.28886  0.18218  1.0000
  H   H3031     1.0  0.95228  0.47430  0.04643  1.0000
  S   S537      1.0  0.98421  0.37134  0.11167  1.0000
  H   H3032     1.0  0.85261  0.27903  0.02028  1.0000
  S   S538      1.0  0.82833  0.23665  0.07900  1.0000
  H   H3033     1.0  0.86269  0.26281  0.00802  1.0000
  H   H3034     1.0  0.81436  0.28289  0.00334  1.0000
  H   H3035     1.0  0.82734  0.29380  0.00895  1.0000
  H   H3036     1.0  0.80746  0.26506  0.03178  1.0000
  H   H3037     1.0  0.82351  0.25222  0.04338  1.0000
  H   H3038     1.0  0.92561  0.28834  0.10328  1.0000
  H   H3039     1.0  0.73118  0.41495  0.99630  1.0000
  C   C1797     1.0  0.74197  0.26005  0.06062  1.0000
  H   H3040     1.0  0.94048  0.47586  0.08390  1.0000
  C   C1798     1.0  0.73787  0.38710  0.98377  1.0000
  C   C1799     1.0  0.81997  0.24774  0.00507  1.0000
  C   C1800     1.0  0.93649  0.24294  0.18379  1.0000
  H   H3041     1.0  0.74355  0.38499  0.99525  1.0000
  S   S539      1.0  0.98748  0.32388  0.10577  1.0000
  H   H3042     1.0  0.80601  0.29086  0.03888  1.0000
  H   H3043     1.0  0.83824  0.37733  0.99957  1.0000
  H   H3044     1.0  0.66790  0.31991  0.98222  1.0000
  N   N125      1.0  0.79550  0.42632  0.09149  1.0000
  C   C1801     1.0  0.79306  0.44446  0.09426  1.0000
  C   C1802     1.0  0.78926  0.42783  0.07528  1.0000
  C   C1803     1.0  0.81470  0.41688  0.08905  1.0000
  C   C1804     1.0  0.78504  0.41605  0.10744  1.0000
  C   C1805     1.0  0.80128  0.44566  0.10871  1.0000
  C   C1806     1.0  0.76951  0.43630  0.07575  1.0000
  C   C1807     1.0  0.82792  0.42653  0.07463  1.0000
  C   C1808     1.0  0.78332  0.39819  0.10585  1.0000
  H   H3045     1.0  0.79843  0.45315  0.08201  1.0000
  H   H3046     1.0  0.77875  0.45074  0.09763  1.0000
  H   H3047     1.0  0.79214  0.41477  0.07202  1.0000
  H   H3048     1.0  0.79665  0.43595  0.06376  1.0000
  H   H3049     1.0  0.81923  0.41361  0.10143  1.0000
  H   H3050     1.0  0.81652  0.40406  0.08574  1.0000
  H   H3051     1.0  0.79116  0.41320  0.11887  1.0000
  H   H3052     1.0  0.77140  0.42382  0.11140  1.0000
  H   H3053     1.0  0.81591  0.44145  0.10569  1.0000
  H   H3054     1.0  0.81606  0.25863  0.99424  1.0000
  Fe  Fe270     1.0  0.85541  0.46764  0.10346  1.0000
  H   H3055     1.0  0.76649  0.45042  0.07597  1.0000
  H   H3056     1.0  0.76640  0.43563  0.06357  1.0000
  H   H3057     1.0  0.76057  0.42944  0.08682  1.0000
  H   H3058     1.0  0.82572  0.42811  0.06143  1.0000
  H   H3059     1.0  0.84155  0.41851  0.07483  1.0000
  H   H3060     1.0  0.82772  0.43947  0.07671  1.0000
  H   H3061     1.0  0.77537  0.39960  0.09626  1.0000
  H   H3062     1.0  0.77640  0.39145  0.11870  1.0000
  H   H3063     1.0  0.79641  0.38947  0.10239  1.0000
  N   N126      1.0  0.89022  0.38239  0.14554  1.0000
  C   C1809     1.0  0.89168  0.40139  0.13993  1.0000
  C   C1810     1.0  0.87211  0.38180  0.15722  1.0000
  C   C1811     1.0  0.89220  0.37567  0.12944  1.0000
  C   C1812     1.0  0.90487  0.37234  0.15497  1.0000
  C   C1813     1.0  0.90681  0.40592  0.12422  1.0000
  C   C1814     1.0  0.86795  0.38910  0.17377  1.0000
  C   C1815     1.0  0.88355  0.36021  0.13176  1.0000
  C   C1816     1.0  0.90585  0.35258  0.16242  1.0000
  H   H3064     1.0  0.87923  0.41004  0.13649  1.0000
  H   H3065     1.0  0.89353  0.40593  0.15082  1.0000
  H   H3066     1.0  0.86974  0.36832  0.16174  1.0000
  H   H3067     1.0  0.86170  0.38932  0.14973  1.0000
  H   H3068     1.0  0.88627  0.38620  0.11942  1.0000
  H   H3069     1.0  0.90641  0.37189  0.12301  1.0000
  H   H3070     1.0  0.91796  0.37326  0.14610  1.0000
  H   H3071     1.0  0.90505  0.37842  0.16553  1.0000
  H   H3072     1.0  0.91971  0.39700  0.12554  1.0000
  H   H3073     1.0  0.90388  0.40593  0.11174  1.0000
  H   H3074     1.0  0.90814  0.41939  0.12328  1.0000
  H   H3075     1.0  0.87731  0.38181  0.18237  1.0000
  H   H3076     1.0  0.86770  0.40334  0.17055  1.0000
  H   H3077     1.0  0.85448  0.38754  0.18138  1.0000
  H   H3078     1.0  0.88816  0.34852  0.14148  1.0000
  H   H3079     1.0  0.88703  0.35617  0.11914  1.0000
  H   H3080     1.0  0.86887  0.36416  0.13508  1.0000
  H   H3081     1.0  0.91318  0.34499  0.15221  1.0000
  H   H3082     1.0  0.89276  0.34928  0.16836  1.0000
  H   H3083     1.0  0.91297  0.34817  0.17326  1.0000
  H   H3084     1.0  0.90354  0.25472  0.10049  1.0000
  H   H3085     1.0  0.85761  0.28145  0.08792  1.0000
  C   C1817     1.0  0.95421  0.28201  0.12476  1.0000
  H   H3086     1.0  0.99319  0.28487  0.02010  1.0000
  C   C1818     1.0  0.74313  0.38846  0.02794  1.0000
  H   H3087     1.0  0.81294  0.37882  0.02337  1.0000
  C   C1819     1.0  0.97246  0.27747  0.11811  1.0000
  H   H3088     1.0  0.82626  0.47455  0.06143  1.0000
  C   C1820     1.0  0.87786  0.28214  0.10046  1.0000
  Fe  Fe271     1.0  0.73384  0.45609  0.02706  1.0000
  C   C1821     1.0  0.76695  0.40663  0.97969  1.0000
  N   N127      1.0  0.92785  0.45968  0.07619  1.0000
  C   C1822     1.0  0.93317  0.46509  0.08992  1.0000
  C   C1823     1.0  0.94465  0.45079  0.06537  1.0000
  C   C1824     1.0  0.91600  0.44687  0.08553  1.0000
  H   H3089     1.0  0.71254  0.38362  0.98094  1.0000
  C   C1825     1.0  0.95814  0.46237  0.05529  1.0000
  C   C1826     1.0  0.91332  0.43536  0.07478  1.0000
  C   C1827     1.0  0.98490  0.26816  0.15734  1.0000
  H   H3090     1.0  0.82138  0.37040  0.99485  1.0000
  H   H3091     1.0  0.82843  0.42677  0.02773  1.0000
  H   H3092     1.0  0.94203  0.44535  0.05560  1.0000
  H   H3093     1.0  0.95159  0.43911  0.07382  1.0000
  H   H3094     1.0  0.85054  0.28716  0.14873  1.0000
  H   H3095     1.0  0.91151  0.46097  0.11324  1.0000
  C   C1828     1.0  0.81078  0.42509  0.98263  1.0000
  C   C1829     1.0  0.91794  0.47168  0.10450  1.0000
  H   H3096     1.0  0.92301  0.46409  0.04259  1.0000
  H   H3097     1.0  0.79406  0.24959  0.06211  1.0000
  H   H3098     1.0  0.72868  0.26223  0.05786  1.0000
  C   C1830     1.0  0.81398  0.47677  0.05756  1.0000
  H   H3099     1.0  0.83420  0.29686  0.97757  1.0000
  C   C1831     1.0  0.91813  0.47599  0.06563  1.0000
  H   H3100     1.0  0.76081  0.41814  0.98575  1.0000
  H   H3101     1.0  0.98403  0.26007  0.19327  1.0000
  H   H3102     1.0  0.97635  0.24699  0.07070  1.0000
  C   C1832     1.0  0.74229  0.24897  0.07941  1.0000
  H   H3103     1.0  0.75609  0.38221  0.02156  1.0000
  H   H3104     1.0  0.87910  0.48012  0.18932  1.0000
  H   H3105     1.0  0.94244  0.45396  0.09653  1.0000
  H   H3106     1.0  0.84786  0.42444  0.01090  1.0000
  H   H3107     1.0  0.90254  0.45383  0.09134  1.0000
  H   H3108     1.0  0.72131  0.36858  0.99861  1.0000
  H   H3109     1.0  0.92183  0.24627  0.18801  1.0000
  H   H3110     1.0  0.98257  0.28252  0.15166  1.0000
  H   H3111     1.0  0.85350  0.28453  0.98554  1.0000
  H   H3112     1.0  0.99044  0.27374  0.05958  1.0000
  S   S540      1.0  0.82811  0.47959  0.11682  1.0000
  C   C1833     1.0  0.96089  0.28071  0.19565  1.0000
  C   C1834     1.0  0.88131  0.48202  0.14745  1.0000
  C   C1835     1.0  0.81319  0.46819  0.04519  1.0000
  H   H3113     1.0  0.94649  0.28275  0.20155  1.0000
  H   H3114     1.0  0.71105  0.39047  0.00079  1.0000
  H   H3115     1.0  0.95638  0.27483  0.16399  1.0000
  Fe  Fe272     1.0  0.77371  0.33971  0.97989  1.0000
  H   H3116     1.0  0.93973  0.24616  0.16934  1.0000
  H   H3117     1.0  0.99195  0.26158  0.14630  1.0000
  H   H3118     1.0  0.76774  0.39444  0.98995  1.0000
  H   H3119     1.0  0.92350  0.47657  0.11275  1.0000
  H   H3120     1.0  0.85716  0.23904  0.03649  1.0000
  H   H3121     1.0  0.83962  0.23726  0.02052  1.0000
  H   H3122     1.0  0.90004  0.47261  0.05170  1.0000
  H   H3123     1.0  0.90487  0.48078  0.19809  1.0000
  H   H3124     1.0  0.99195  0.45898  0.08422  1.0000
  H   H3125     1.0  0.74633  0.37690  0.97642  1.0000
  H   H3126     1.0  0.99352  0.38476  0.02042  1.0000
  H   H3127     1.0  0.90789  0.48279  0.09930  1.0000
  C   C1836     1.0  0.97365  0.23387  0.18655  1.0000
  S   S541      1.0  0.86061  0.32739  0.80426  1.0000
  S   S542      1.0  0.87250  0.28684  0.78569  1.0000
  Fe  Fe273     1.0  0.84378  0.34904  0.78831  1.0000
  S   S543      1.0  0.81549  0.36008  0.79973  1.0000
  Fe  Fe274     1.0  0.88151  0.34295  0.79175  1.0000
  S   S544      1.0  0.89960  0.34603  0.80654  1.0000
  S   S545      1.0  0.96113  0.37801  0.75156  1.0000
  Fe  Fe275     1.0  0.76693  0.29890  0.86133  1.0000
  S   S546      1.0  0.77846  0.29604  0.83371  1.0000
  Fe  Fe276     1.0  0.77800  0.29538  0.89476  1.0000
  S   S547      1.0  0.79886  0.29251  0.90919  1.0000
  S   S548      1.0  0.73321  0.25911  0.90924  1.0000
  S   S549      1.0  0.77479  0.27565  0.88221  1.0000
  H   H3128     1.0  0.99024  0.30749  0.76951  1.0000
  C   C1837     1.0  0.84896  0.46823  0.80930  1.0000
  H   H3129     1.0  0.92265  0.35201  0.71635  1.0000
  C   C1838     1.0  0.71678  0.32698  0.96342  1.0000
  C   C1839     1.0  0.98142  0.28815  0.76269  1.0000
  H   H3130     1.0  0.93918  0.32559  0.71265  1.0000
  C   C1840     1.0  0.75029  0.25679  0.95444  1.0000
  C   C1841     1.0  0.77899  0.44673  0.94914  1.0000
  C   C1842     1.0  0.97294  0.32715  0.73015  1.0000
  C   C1843     1.0  0.73632  0.32787  0.95549  1.0000
  C   C1844     1.0  0.70996  0.32159  0.93759  1.0000
  H   H3131     1.0  0.95206  0.35744  0.71509  1.0000
  C   C1845     1.0  0.74343  0.39378  0.88223  1.0000
  S   S550      1.0  0.99182  0.33855  0.77822  1.0000
  Fe  Fe277     1.0  0.98269  0.23610  0.75217  1.0000
  H   H3132     1.0  0.85182  0.39173  0.80314  1.0000
  H   H3133     1.0  0.80908  0.39552  0.86662  1.0000
  S   S551      1.0  0.86989  0.25100  0.72728  1.0000
  H   H3134     1.0  0.75389  0.25174  0.85974  1.0000
  H   H3135     1.0  0.67750  0.33242  0.95205  1.0000
  H   H3136     1.0  0.92635  0.28384  0.79720  1.0000
  H   H3137     1.0  0.74422  0.27276  0.81622  1.0000
  C   C1846     1.0  0.95812  0.48143  0.77006  1.0000
  H   H3138     1.0  0.93492  0.31456  0.77276  1.0000
  H   H3139     1.0  0.93841  0.47054  0.79093  1.0000
  S   S552      1.0  0.79058  0.43246  0.87261  1.0000
  H   H3140     1.0  0.65550  0.23556  0.94908  1.0000
  H   H3141     1.0  0.90431  0.27907  0.80481  1.0000
  H   H3142     1.0  0.79222  0.38672  0.89516  1.0000
  H   H3143     1.0  0.74838  0.41687  0.93339  1.0000
  H   H3144     1.0  0.77013  0.29391  0.95978  1.0000
  C   C1847     1.0  0.73458  0.42104  0.94063  1.0000
  H   H3145     1.0  0.81662  0.40983  0.76110  1.0000
  C   C1848     1.0  0.99390  0.29747  0.76209  1.0000
  H   H3146     1.0  0.72585  0.42243  0.93172  1.0000
  H   H3147     1.0  0.74652  0.26799  0.94368  1.0000
  C   C1849     1.0  0.97452  0.43302  0.71074  1.0000
  H   H3148     1.0  0.92276  0.41138  0.76508  1.0000
  C   C1850     1.0  0.90908  0.24476  0.80340  1.0000
  H   H3149     1.0  0.91214  0.43352  0.78371  1.0000
  Fe  Fe278     1.0  0.87115  0.45946  0.74036  1.0000
  H   H3150     1.0  0.93411  0.43408  0.78252  1.0000
  H   H3151     1.0  0.98911  0.46493  0.72451  1.0000
  N   N128      1.0  0.77324  0.24012  0.83937  1.0000
  H   H3152     1.0  0.96819  0.29099  0.77061  1.0000
  H   H3153     1.0  0.90371  0.42258  0.81931  1.0000
  H   H3154     1.0  0.77495  0.26787  0.92687  1.0000
  H   H3155     1.0  0.87771  0.41913  0.74839  1.0000
  C   C1851     1.0  0.94341  0.39909  0.80097  1.0000
  S   S553      1.0  0.78267  0.43003  0.92313  1.0000
  H   H3156     1.0  0.95163  0.30503  0.74623  1.0000
  H   H3157     1.0  0.72833  0.24706  0.95313  1.0000
  C   C1852     1.0  0.94442  0.31900  0.74454  1.0000
  Fe  Fe279     1.0  0.74619  0.46664  0.88022  1.0000
  H   H3158     1.0  0.69427  0.35455  0.91845  1.0000
  H   H3159     1.0  0.74230  0.32080  0.94475  1.0000
  C   C1853     1.0  0.82292  0.46772  0.83288  1.0000
  C   C1854     1.0  0.85522  0.45029  0.81537  1.0000
  H   H3160     1.0  0.71961  0.35144  0.93199  1.0000
  C   C1855     1.0  0.84557  0.44110  0.83045  1.0000
  S   S554      1.0  0.97012  0.26435  0.75298  1.0000
  H   H3161     1.0  0.95954  0.29609  0.72154  1.0000
  H   H3162     1.0  0.96780  0.44749  0.73751  1.0000
  C   C1856     1.0  0.73914  0.36489  0.88338  1.0000
  H   H3163     1.0  0.90014  0.40857  0.79794  1.0000
  H   H3164     1.0  0.86581  0.39566  0.70399  1.0000
  C   C1857     1.0  0.72693  0.25026  0.89515  1.0000
  C   C1858     1.0  0.72071  0.26103  0.88048  1.0000
  C   C1859     1.0  0.71587  0.25364  0.86935  1.0000
  C   C1860     1.0  0.71737  0.23547  0.87278  1.0000
  H   H3165     1.0  0.67521  0.23393  0.95588  1.0000
  H   H3166     1.0  0.69684  0.29962  0.95150  1.0000
  H   H3167     1.0  0.71954  0.27505  0.87774  1.0000
  H   H3168     1.0  0.71118  0.26199  0.85795  1.0000
  C   C1861     1.0  0.87253  0.25100  0.76010  1.0000
  H   H3169     1.0  0.97850  0.43851  0.76412  1.0000
  C   C1862     1.0  0.79212  0.30977  0.92013  1.0000
  C   C1863     1.0  0.80061  0.30949  0.93299  1.0000
  C   C1864     1.0  0.79442  0.32270  0.94255  1.0000
  C   C1865     1.0  0.77985  0.33626  0.93920  1.0000
  C   C1866     1.0  0.77200  0.33704  0.92569  1.0000
  C   C1867     1.0  0.77792  0.32367  0.91638  1.0000
  H   H3170     1.0  0.81175  0.29892  0.93576  1.0000
  H   H3171     1.0  0.83547  0.25836  0.79321  1.0000
  H   H3172     1.0  0.76097  0.34770  0.92271  1.0000
  H   H3173     1.0  0.77149  0.32429  0.90623  1.0000
  C   C1868     1.0  0.87264  0.27714  0.76895  1.0000
  C   C1869     1.0  0.87273  0.25922  0.77298  1.0000
  C   C1870     1.0  0.83289  0.47696  0.81813  1.0000
  H   H3174     1.0  0.90936  0.27135  0.77498  1.0000
  C   C1871     1.0  0.87208  0.27866  0.73901  1.0000
  C   C1872     1.0  0.87247  0.28687  0.75189  1.0000
  H   H3175     1.0  0.87273  0.25164  0.78617  1.0000
  H   H3176     1.0  0.98207  0.46640  0.70484  1.0000
  H   H3177     1.0  0.87172  0.28624  0.72586  1.0000
  H   H3178     1.0  0.87251  0.30071  0.74866  1.0000
  C   C1873     1.0  0.78818  0.31411  0.82337  1.0000
  C   C1874     1.0  0.80552  0.31154  0.81349  1.0000
  C   C1875     1.0  0.81375  0.32577  0.80592  1.0000
  C   C1876     1.0  0.80463  0.34262  0.80817  1.0000
  H   H3179     1.0  0.81285  0.29847  0.81227  1.0000
  H   H3180     1.0  0.82729  0.32359  0.79865  1.0000
  C   C1877     1.0  0.91626  0.35581  0.79163  1.0000
  C   C1878     1.0  0.91348  0.36605  0.77534  1.0000
  C   C1879     1.0  0.92709  0.37341  0.76325  1.0000
  C   C1880     1.0  0.94364  0.37015  0.76729  1.0000
  C   C1881     1.0  0.94619  0.36039  0.78379  1.0000
  C   C1882     1.0  0.93251  0.35327  0.79597  1.0000
  H   H3181     1.0  0.90089  0.36816  0.77200  1.0000
  H   H3182     1.0  0.92491  0.38126  0.75063  1.0000
  H   H3183     1.0  0.95858  0.35856  0.78735  1.0000
  H   H3184     1.0  0.93461  0.34554  0.80866  1.0000
  C   C1883     1.0  0.73561  0.37931  0.89102  1.0000
  Fe  Fe280     1.0  0.87017  0.31609  0.78031  1.0000
  Fe  Fe281     1.0  0.74608  0.28194  0.89517  1.0000
  C   C1884     1.0  0.75460  0.39397  0.86566  1.0000
  C   C1885     1.0  0.71026  0.30191  0.94490  1.0000
  H   H3185     1.0  0.92355  0.46458  0.77101  1.0000
  S   S555      1.0  0.88053  0.36646  0.72865  1.0000
  Fe  Fe282     1.0  0.87716  0.45564  0.77609  1.0000
  H   H3186     1.0  0.74080  0.40477  0.88825  1.0000
  H   H3187     1.0  0.72695  0.37926  0.90378  1.0000
  H   H3188     1.0  0.76734  0.28966  0.94055  1.0000
  C   C1886     1.0  0.70626  0.35140  0.94081  1.0000
  N   N129      1.0  0.92544  0.41107  0.80037  1.0000
  C   C1887     1.0  0.87940  0.39589  0.73972  1.0000
  H   H3189     1.0  0.80395  0.39223  0.82059  1.0000
  H   H3190     1.0  0.85785  0.42769  0.70243  1.0000
  C   C1888     1.0  0.83572  0.41951  0.76881  1.0000
  Fe  Fe283     1.0  0.77423  0.43994  0.89755  1.0000
  C   C1889     1.0  0.96165  0.42048  0.71649  1.0000
  H   H3191     1.0  0.88553  0.38707  0.75002  1.0000
  C   C1890     1.0  0.82299  0.42121  0.75708  1.0000
  N   N130      1.0  0.98722  0.42993  0.72234  1.0000
  H   H3192     1.0  0.94551  0.40992  0.76552  1.0000
  C   C1891     1.0  0.75760  0.45893  0.93081  1.0000
  H   H3193     1.0  0.81108  0.34396  0.83925  1.0000
  H   H3194     1.0  0.93806  0.43599  0.81026  1.0000
  Fe  Fe284     1.0  0.78458  0.46127  0.86066  1.0000
  C   C1892     1.0  0.91288  0.40008  0.80091  1.0000
  H   H3195     1.0  0.95767  0.33466  0.70055  1.0000
  H   H3196     1.0  0.71196  0.33508  0.97349  1.0000
  H   H3197     1.0  0.93262  0.42988  0.75543  1.0000
  C   C1893     1.0  0.95881  0.40764  0.79929  1.0000
  H   H3198     1.0  0.95912  0.40951  0.81214  1.0000
  H   H3199     1.0  0.98572  0.33358  0.70200  1.0000
  Fe  Fe285     1.0  0.90277  0.46981  0.74426  1.0000
  C   C1894     1.0  0.91490  0.28229  0.79321  1.0000
  H   H3200     1.0  0.95297  0.42124  0.72953  1.0000
  H   H3201     1.0  0.79421  0.25534  0.93349  1.0000
  H   H3202     1.0  0.98176  0.43238  0.69709  1.0000
  C   C1895     1.0  0.85676  0.40390  0.79664  1.0000
  H   H3203     1.0  0.97151  0.39892  0.79438  1.0000
  S   S556      1.0  0.75004  0.29938  0.90989  1.0000
  H   H3204     1.0  0.75198  0.45830  0.92051  1.0000
  C   C1896     1.0  0.94325  0.47394  0.77694  1.0000
  H   H3205     1.0  0.79919  0.45882  0.80153  1.0000
  C   C1897     1.0  0.92565  0.42502  0.78370  1.0000
  H   H3206     1.0  0.86508  0.40293  0.78345  1.0000
  H   H3207     1.0  0.98796  0.40226  0.73364  1.0000
  S   S557      1.0  0.93142  0.47038  0.73319  1.0000
  C   C1898     1.0  0.79492  0.29559  0.77777  1.0000
  C   C1899     1.0  0.78494  0.28076  0.78197  1.0000
  H   H3208     1.0  0.79595  0.29752  0.79037  1.0000
  H   H3209     1.0  0.78585  0.30777  0.77245  1.0000
  H   H3210     1.0  0.83427  0.28088  0.79175  1.0000
  H   H3211     1.0  0.78157  0.27942  0.77022  1.0000
  H   H3212     1.0  0.77221  0.28409  0.79135  1.0000
  H   H3213     1.0  0.79236  0.26799  0.78823  1.0000
  C   C1900     1.0  0.74240  0.24172  0.95407  1.0000
  C   C1901     1.0  0.92051  0.26891  0.78143  1.0000
  H   H3214     1.0  0.74098  0.43989  0.96651  1.0000
  C   C1902     1.0  0.82709  0.27176  0.79025  1.0000
  C   C1903     1.0  0.98770  0.43385  0.75258  1.0000
  H   H3215     1.0  0.95867  0.42019  0.78955  1.0000
  H   H3216     1.0  0.89881  0.37980  0.81683  1.0000
  H   H3217     1.0  0.83152  0.31603  0.89493  1.0000
  H   H3218     1.0  0.91760  0.34841  0.73991  1.0000
  C   C1904     1.0  0.86398  0.41887  0.71278  1.0000
  H   H3219     1.0  0.95278  0.42443  0.70717  1.0000
  C   C1905     1.0  0.72988  0.40708  0.95735  1.0000
  S   S558      1.0  0.77086  0.46865  0.88605  1.0000
  C   C1906     1.0  0.75034  0.36510  0.86683  1.0000
  S   S559      1.0  0.85356  0.46852  0.76420  1.0000
  S   S560      1.0  0.74837  0.43809  0.89378  1.0000
  C   C1907     1.0  0.77576  0.23502  0.96453  1.0000
  H   H3220     1.0  0.76647  0.37975  0.84510  1.0000
  H   H3221     1.0  0.82229  0.45305  0.80115  1.0000
  H   H3222     1.0  0.85041  0.42721  0.83515  1.0000
  H   H3223     1.0  0.91830  0.39233  0.79065  1.0000
  C   C1908     1.0  0.75791  0.37965  0.85796  1.0000
  H   H3224     1.0  0.84506  0.40660  0.76824  1.0000
  C   C1909     1.0  0.86728  0.42560  0.72527  1.0000
  H   H3225     1.0  0.71962  0.29555  0.95366  1.0000
  C   C1910     1.0  0.91847  0.41940  0.81605  1.0000
  C   C1911     1.0  0.77245  0.44634  0.93513  1.0000
  H   H3226     1.0  0.74272  0.26094  0.96681  1.0000
  S   S561      1.0  0.89373  0.44449  0.75317  1.0000
  H   H3227     1.0  0.73371  0.39446  0.95293  1.0000
  S   S562      1.0  0.77079  0.35179  0.95230  1.0000
  H   H3228     1.0  0.93291  0.33711  0.76246  1.0000
  C   C1912     1.0  0.86848  0.40075  0.71366  1.0000
  C   C1913     1.0  0.78021  0.25488  0.93476  1.0000
  H   H3229     1.0  0.80725  0.40667  0.78991  1.0000
  H   H3230     1.0  0.67946  0.34633  0.96439  1.0000
  C   C1914     1.0  0.76748  0.25551  0.82527  1.0000
  C   C1915     1.0  0.69284  0.36116  0.92907  1.0000
  C   C1916     1.0  0.78030  0.24137  0.92473  1.0000
  C   C1917     1.0  0.99319  0.46131  0.71166  1.0000
  C   C1918     1.0  0.74752  0.26410  0.82858  1.0000
  H   H3231     1.0  0.84791  0.43193  0.78934  1.0000
  C   C1919     1.0  0.84166  0.42049  0.79609  1.0000
  C   C1920     1.0  0.87193  0.26073  0.74313  1.0000
  H   H3232     1.0  0.71478  0.29514  0.93385  1.0000
  H   H3233     1.0  0.77099  0.25202  0.81241  1.0000
  H   H3234     1.0  0.77471  0.26601  0.82326  1.0000
  C   C1921     1.0  0.74968  0.47228  0.94002  1.0000
  H   H3235     1.0  0.73790  0.34165  0.95087  1.0000
  H   H3236     1.0  0.96114  0.30400  0.69861  1.0000
  H   H3237     1.0  0.90679  0.24976  0.81538  1.0000
  C   C1922     1.0  0.92565  0.35472  0.72764  1.0000
  H   H3238     1.0  0.90652  0.23608  0.77407  1.0000
  C   C1923     1.0  0.94163  0.32402  0.76214  1.0000
  H   H3239     1.0  0.74413  0.32165  0.96574  1.0000
  H   H3240     1.0  0.76739  0.23938  0.88388  1.0000
  H   H3241     1.0  0.87273  0.23716  0.76336  1.0000
  N   N131      1.0  0.95403  0.33018  0.72868  1.0000
  C   C1924     1.0  0.93997  0.24787  0.79934  1.0000
  C   C1925     1.0  0.97679  0.43433  0.73957  1.0000
  S   S563      1.0  0.88811  0.47974  0.76842  1.0000
  C   C1926     1.0  0.94100  0.47515  0.74758  1.0000
  H   H3242     1.0  0.84373  0.42969  0.76225  1.0000
  S   S564      1.0  0.77312  0.31813  0.87257  1.0000
  C   C1927     1.0  0.77901  0.33094  0.82570  1.0000
  C   C1928     1.0  0.78718  0.34524  0.81796  1.0000
  C   C1929     1.0  0.83182  0.32830  0.88462  1.0000
  H   H3243     1.0  0.93177  0.27276  0.77075  1.0000
  S   S565      1.0  0.87444  0.43926  0.80326  1.0000
  S   S566      1.0  0.85171  0.33668  0.76519  1.0000
  S   S567      1.0  0.89279  0.32984  0.76909  1.0000
  H   H3244     1.0  0.79048  0.43701  0.95244  1.0000
  H   H3245     1.0  0.92244  0.41002  0.82788  1.0000
  C   C1930     1.0  0.92364  0.43676  0.81452  1.0000
  H   H3246     1.0  0.92105  0.36910  0.72669  1.0000
  C   C1931     1.0  0.98519  0.33671  0.71450  1.0000
  S   S568      1.0  0.86372  0.36586  0.77816  1.0000
  H   H3247     1.0  0.80018  0.30576  0.74340  1.0000
  H   H3248     1.0  0.93116  0.31897  0.74291  1.0000
  S   S569      1.0  0.75968  0.46119  0.85365  1.0000
  C   C1932     1.0  0.95314  0.32509  0.71262  1.0000
  N   N132      1.0  0.82718  0.42100  0.78747  1.0000
  H   H3249     1.0  0.67893  0.36317  0.93654  1.0000
  H   H3250     1.0  0.80649  0.41751  0.97581  1.0000
  C   C1933     1.0  0.81074  0.44756  0.80230  1.0000
  H   H3251     1.0  0.83634  0.42184  0.80982  1.0000
  H   H3252     1.0  0.70489  0.35980  0.95001  1.0000
  H   H3253     1.0  0.86569  0.40473  0.80441  1.0000
  Fe  Fe286     1.0  0.98726  0.36407  0.75859  1.0000
  C   C1934     1.0  0.68564  0.33347  0.96058  1.0000
  H   H3254     1.0  0.95421  0.32351  0.76543  1.0000
  H   H3255     1.0  0.71516  0.40996  0.96149  1.0000
  H   H3256     1.0  0.79951  0.24519  0.83350  1.0000
  C   C1935     1.0  0.81812  0.40586  0.79620  1.0000
  H   H3257     1.0  0.69555  0.37440  0.92253  1.0000
  C   C1936     1.0  0.77361  0.26610  0.96116  1.0000
  C   C1937     1.0  0.75732  0.40646  0.96587  1.0000
  H   H3258     1.0  0.80112  0.32250  0.95232  1.0000
  C   C1938     1.0  0.80963  0.40415  0.81580  1.0000
  H   H3259     1.0  0.85640  0.47543  0.79771  1.0000
  C   C1939     1.0  0.93474  0.47072  0.76569  1.0000
  H   H3260     1.0  0.95130  0.25288  0.78970  1.0000
  C   C1940     1.0  0.93204  0.41837  0.76662  1.0000
  H   H3261     1.0  0.77443  0.25815  0.85401  1.0000
  H   H3262     1.0  0.79786  0.23612  0.80633  1.0000
  H   H3263     1.0  0.82749  0.39319  0.79452  1.0000
  H   H3264     1.0  0.73274  0.43415  0.94312  1.0000
  N   N133      1.0  0.70467  0.33297  0.95075  1.0000
  H   H3265     1.0  0.90133  0.39326  0.82936  1.0000
  H   H3266     1.0  0.97355  0.33143  0.74171  1.0000
  C   C1941     1.0  0.98607  0.27511  0.75310  1.0000
  H   H3267     1.0  0.67354  0.24377  0.93383  1.0000
  N   N134      1.0  0.81162  0.35868  0.87545  1.0000
  C   C1942     1.0  0.79254  0.36826  0.87965  1.0000
  C   C1943     1.0  0.81619  0.35648  0.85688  1.0000
  C   C1944     1.0  0.82385  0.36882  0.87719  1.0000
  C   C1945     1.0  0.81373  0.34114  0.88814  1.0000
  C   C1946     1.0  0.78660  0.37529  0.89658  1.0000
  H   H3268     1.0  0.96795  0.42508  0.74659  1.0000
  C   C1947     1.0  0.82278  0.38751  0.86552  1.0000
  H   H3269     1.0  0.78948  0.37957  0.86877  1.0000
  H   H3270     1.0  0.78347  0.35964  0.88088  1.0000
  H   H3271     1.0  0.83065  0.35122  0.85258  1.0000
  H   H3272     1.0  0.81330  0.36942  0.84773  1.0000
  H   H3273     1.0  0.82166  0.36976  0.89100  1.0000
  H   H3274     1.0  0.83790  0.36186  0.87373  1.0000
  H   H3275     1.0  0.81149  0.34280  0.90170  1.0000
  H   H3276     1.0  0.80350  0.33419  0.88853  1.0000
  H   H3277     1.0  0.96860  0.40667  0.71636  1.0000
  H   H3278     1.0  0.77198  0.37994  0.89943  1.0000
  H   H3279     1.0  0.78993  0.36513  0.90810  1.0000
  H   H3280     1.0  0.81447  0.27198  0.80016  1.0000
  H   H3281     1.0  0.91500  0.25353  0.75730  1.0000
  H   H3282     1.0  0.80858  0.33117  0.86090  1.0000
  H   H3283     1.0  0.82877  0.38708  0.85162  1.0000
  H   H3284     1.0  0.83050  0.39450  0.86953  1.0000
  Fe  Fe287     1.0  0.76442  0.43271  0.86767  1.0000
  H   H3285     1.0  0.75024  0.28800  0.96035  1.0000
  H   H3286     1.0  0.83462  0.32446  0.87197  1.0000
  H   H3287     1.0  0.81278  0.43361  0.75655  1.0000
  H   H3288     1.0  0.90941  0.29533  0.78563  1.0000
  C   C1948     1.0  0.80618  0.34482  0.85314  1.0000
  H   H3289     1.0  0.78079  0.40769  0.97307  1.0000
  H   H3290     1.0  0.78015  0.35823  0.81989  1.0000
  Fe  Fe288     1.0  0.87336  0.35168  0.75630  1.0000
  H   H3291     1.0  0.82226  0.30777  0.77799  1.0000
  S   S570      1.0  0.73783  0.30418  0.87352  1.0000
  H   H3292     1.0  0.81977  0.26466  0.77000  1.0000
  H   H3293     1.0  0.76563  0.33294  0.83351  1.0000
  N   N135      1.0  0.81280  0.29315  0.76538  1.0000
  C   C1949     1.0  0.82453  0.27569  0.77140  1.0000
  H   H3294     1.0  0.81940  0.40251  0.82364  1.0000
  H   H3295     1.0  0.79846  0.41537  0.81823  1.0000
  H   H3296     1.0  0.80074  0.43708  0.78635  1.0000
  C   C1950     1.0  0.82157  0.30755  0.76468  1.0000
  C   C1951     1.0  0.77088  0.45995  0.95857  1.0000
  C   C1952     1.0  0.90818  0.38681  0.81826  1.0000
  C   C1953     1.0  0.94564  0.34941  0.72741  1.0000
  H   H3297     1.0  0.71679  0.31326  0.97080  1.0000
  H   H3298     1.0  0.79946  0.23779  0.97119  1.0000
  H   H3299     1.0  0.74398  0.27261  0.83810  1.0000
  H   H3300     1.0  0.83802  0.27469  0.76290  1.0000
  H   H3301     1.0  0.94289  0.38918  0.81354  1.0000
  C   C1954     1.0  0.87592  0.38919  0.72728  1.0000
  H   H3302     1.0  0.89707  0.25135  0.79795  1.0000
  H   H3303     1.0  0.75894  0.41845  0.95570  1.0000
  H   H3304     1.0  0.72323  0.32277  0.92923  1.0000
  N   N136      1.0  0.92528  0.24980  0.79039  1.0000
  H   H3305     1.0  0.97924  0.31294  0.73232  1.0000
  C   C1955     1.0  0.76472  0.28547  0.95493  1.0000
  C   C1956     1.0  0.81389  0.43840  0.78712  1.0000
  H   H3306     1.0  0.83080  0.42127  0.74350  1.0000
  H   H3307     1.0  0.80466  0.28258  0.74805  1.0000
  H   H3308     1.0  0.79859  0.33019  0.76375  1.0000
  H   H3309     1.0  0.79174  0.35054  0.85507  1.0000
  C   C1957     1.0  0.81017  0.29384  0.74762  1.0000
  H   H3310     1.0  0.83563  0.30509  0.75743  1.0000
  H   H3311     1.0  0.82177  0.44271  0.85069  1.0000
  H   H3312     1.0  0.94781  0.35410  0.73802  1.0000
  H   H3313     1.0  0.70092  0.32616  0.92837  1.0000
  C   C1958     1.0  0.76840  0.24676  0.85599  1.0000
  H   H3314     1.0  0.94757  0.39089  0.79109  1.0000
  C   C1959     1.0  0.87520  0.41409  0.73865  1.0000
  H   H3315     1.0  0.81291  0.32810  0.74258  1.0000
  C   C1960     1.0  0.96367  0.30654  0.71027  1.0000
  H   H3316     1.0  0.80794  0.43893  0.81540  1.0000
  H   H3317     1.0  0.73908  0.25432  0.83319  1.0000
  H   H3318     1.0  0.96602  0.44651  0.70983  1.0000
  Fe  Fe289     1.0  0.74474  0.32130  0.88697  1.0000
  H   H3319     1.0  0.94356  0.24420  0.76671  1.0000
  H   H3320     1.0  0.91667  0.44771  0.80552  1.0000
  C   C1961     1.0  0.81244  0.32633  0.75663  1.0000
  H   H3321     1.0  0.83384  0.30382  0.73088  1.0000
  H   H3322     1.0  0.79268  0.24008  0.91444  1.0000
  H   H3323     1.0  0.82319  0.29465  0.72030  1.0000
  S   S571      1.0  0.76535  0.41139  0.85443  1.0000
  H   H3324     1.0  0.91992  0.37666  0.82147  1.0000
  S   S572      1.0  0.72932  0.34682  0.89460  1.0000
  H   H3325     1.0  0.84288  0.33356  0.88517  1.0000
  H   H3326     1.0  0.91926  0.44022  0.82752  1.0000
  C   C1962     1.0  0.82698  0.29314  0.73279  1.0000
  H   H3327     1.0  0.81952  0.33582  0.75755  1.0000
  C   C1963     1.0  0.82930  0.44981  0.83914  1.0000
  H   H3328     1.0  0.76929  0.26302  0.97568  1.0000
  S   S573      1.0  0.86049  0.44833  0.72420  1.0000
  S   S574      1.0  0.80244  0.47885  0.84301  1.0000
  H   H3329     1.0  0.75287  0.35424  0.86066  1.0000
  H   H3330     1.0  0.81802  0.44834  0.77514  1.0000
  N   N137      1.0  0.76997  0.25291  0.95347  1.0000
  H   H3331     1.0  0.83639  0.28026  0.73490  1.0000
  H   H3332     1.0  0.78807  0.26557  0.95834  1.0000
  H   H3333     1.0  0.76503  0.39552  0.95922  1.0000
  N   N138      1.0  0.73814  0.40527  0.97244  1.0000
  C   C1964     1.0  0.75631  0.47281  0.95389  1.0000
  H   H3334     1.0  0.73827  0.48206  0.93651  1.0000
  H   H3335     1.0  0.93548  0.25587  0.80942  1.0000
  C   C1965     1.0  0.91862  0.24032  0.76563  1.0000
  H   H3336     1.0  0.76889  0.24575  0.91828  1.0000
  H   H3337     1.0  0.97816  0.30525  0.70791  1.0000
  H   H3338     1.0  0.77621  0.46053  0.96910  1.0000
  H   H3339     1.0  0.98138  0.35113  0.71335  1.0000
  H   H3340     1.0  0.71741  0.44457  0.96815  1.0000
  H   H3341     1.0  0.74914  0.23556  0.94283  1.0000
  C   C1966     1.0  0.93207  0.23952  0.77622  1.0000
  C   C1967     1.0  0.72820  0.43790  0.97528  1.0000
  C   C1968     1.0  0.79314  0.23418  0.83487  1.0000
  C   C1969     1.0  0.95557  0.48295  0.74077  1.0000
  H   H3342     1.0  0.70492  0.23348  0.93419  1.0000
  C   C1970     1.0  0.96010  0.70750  0.30471  1.0000
  H   H3343     1.0  0.82671  0.69701  0.27952  1.0000
  H   H3344     1.0  0.90716  0.59803  0.10382  1.0000
  H   H3345     1.0  0.70447  0.52902  0.97800  1.0000
  H   H3346     1.0  0.78738  0.52773  0.09587  1.0000
  H   H3347     1.0  0.93512  0.53063  0.03534  1.0000
  C   C1971     1.0  0.88893  0.73002  0.13640  1.0000
  H   H3348     1.0  0.85620  0.50533  0.18997  1.0000
  Fe  Fe290     1.0  0.73434  0.49400  0.02618  1.0000
  S   S575      1.0  0.71989  0.51926  0.03490  1.0000
  H   H3349     1.0  0.91278  0.62325  0.04308  1.0000
  S   S576      1.0  0.75951  0.49344  0.00567  1.0000
  C   C1972     1.0  0.52446  0.71948  0.99608  1.0000
  H   H3350     1.0  0.77085  0.49826  0.06640  1.0000
  S   S577      1.0  0.59196  0.72007  0.04457  1.0000
  H   H3351     1.0  0.77782  0.59285  0.07606  1.0000
  H   H3352     1.0  0.91123  0.49719  0.17959  1.0000
  C   C1973     1.0  0.92517  0.67376  0.19487  1.0000
  H   H3353     1.0  0.89219  0.48764  0.13786  1.0000
  C   C1974     1.0  0.87844  0.61842  0.18884  1.0000
  H   H3354     1.0  0.68788  0.72483  0.09338  1.0000
  C   C1975     1.0  0.96764  0.69110  0.18669  1.0000
  S   S578      1.0  0.97694  0.63018  0.14262  1.0000
  H   H3355     1.0  0.77052  0.57315  0.05818  1.0000
  Fe  Fe291     1.0  0.75721  0.63181  0.99004  1.0000
  S   S579      1.0  0.73735  0.61684  0.00850  1.0000
  C   C1976     1.0  0.97471  0.55585  0.12607  1.0000
  Fe  Fe292     1.0  0.77499  0.63105  0.01909  1.0000
  S   S580      1.0  0.75648  0.61601  0.03968  1.0000
  S   S581      1.0  0.79756  0.63916  0.02412  1.0000
  Fe  Fe293     1.0  0.76046  0.60011  0.01985  1.0000
  S   S582      1.0  0.76983  0.57075  0.02487  1.0000
  Fe  Fe294     1.0  0.73521  0.63445  0.02626  1.0000
  S   S583      1.0  0.70884  0.64628  0.04208  1.0000
  S   S584      1.0  0.78058  0.61391  0.00006  1.0000
  S   S585      1.0  0.75350  0.65063  0.00691  1.0000
  H   H3356     1.0  0.71135  0.70772  0.01365  1.0000
  Fe  Fe295     1.0  0.86257  0.60482  0.11487  1.0000
  S   S586      1.0  0.85764  0.62264  0.08953  1.0000
  S   S587      1.0  0.87722  0.57696  0.11451  1.0000
  Fe  Fe296     1.0  0.84903  0.63495  0.13452  1.0000
  S   S588      1.0  0.84225  0.65493  0.11076  1.0000
  H   H3357     1.0  0.93069  0.72363  0.10972  1.0000
  Fe  Fe297     1.0  0.83183  0.63400  0.10597  1.0000
  S   S589      1.0  0.80539  0.63632  0.09992  1.0000
  Fe  Fe298     1.0  0.86858  0.64149  0.09684  1.0000
  S   S590      1.0  0.89071  0.65465  0.08048  1.0000
  S   S591      1.0  0.83632  0.61502  0.13121  1.0000
  S   S592      1.0  0.87577  0.62251  0.12071  1.0000
  S   S593      1.0  0.93240  0.65997  0.13330  1.0000
  C   C1977     1.0  0.90188  0.65794  0.09460  1.0000
  C   C1978     1.0  0.89368  0.65731  0.11221  1.0000
  C   C1979     1.0  0.90315  0.65788  0.12396  1.0000
  C   C1980     1.0  0.92087  0.65929  0.11817  1.0000
  C   C1981     1.0  0.92891  0.66064  0.10042  1.0000
  C   C1982     1.0  0.91941  0.66000  0.08864  1.0000
  H   H3358     1.0  0.87992  0.65656  0.11682  1.0000
  H   H3359     1.0  0.89666  0.65714  0.13756  1.0000
  H   H3360     1.0  0.94239  0.66231  0.09570  1.0000
  H   H3361     1.0  0.92580  0.66066  0.07500  1.0000
  H   H3362     1.0  0.87744  0.62250  0.20102  1.0000
  C   C1983     1.0  0.76864  0.58379  0.07990  1.0000
  H   H3363     1.0  0.89183  0.50259  0.19677  1.0000
  H   H3364     1.0  0.92003  0.62416  0.09458  1.0000
  C   C1984     1.0  0.92902  0.57848  0.17604  1.0000
  H   H3365     1.0  0.86971  0.52047  0.18553  1.0000
  C   C1985     1.0  0.80062  0.63640  0.04537  1.0000
  C   C1986     1.0  0.81469  0.64213  0.04737  1.0000
  C   C1987     1.0  0.81667  0.64158  0.06409  1.0000
  C   C1988     1.0  0.80445  0.63545  0.07891  1.0000
  C   C1989     1.0  0.79067  0.62925  0.07695  1.0000
  C   C1990     1.0  0.78884  0.62958  0.06024  1.0000
  H   H3366     1.0  0.82387  0.64740  0.03592  1.0000
  H   H3367     1.0  0.82729  0.64644  0.06548  1.0000
  H   H3368     1.0  0.78119  0.62448  0.08839  1.0000
  H   H3369     1.0  0.77799  0.62511  0.05885  1.0000
  H   H3370     1.0  0.79100  0.56898  0.06420  1.0000
  H   H3371     1.0  0.93804  0.68226  0.20944  1.0000
  H   H3372     1.0  0.91030  0.63346  0.15794  1.0000
  H   H3373     1.0  0.79196  0.56256  0.10015  1.0000
  H   H3374     1.0  0.85505  0.65527  0.18568  1.0000
  H   H3375     1.0  0.84040  0.52220  0.16767  1.0000
  C   C1991     1.0  0.90919  0.52474  0.04356  1.0000
  H   H3376     1.0  0.95809  0.69627  0.30081  1.0000
  H   H3377     1.0  0.74455  0.53830  0.99504  1.0000
  Fe  Fe299     1.0  0.94501  0.49174  0.12973  1.0000
  C   C1992     1.0  0.68575  0.70557  0.03029  1.0000
  C   C1993     1.0  0.70321  0.69883  0.02226  1.0000
  C   C1994     1.0  0.71019  0.68065  0.02525  1.0000
  C   C1995     1.0  0.69987  0.66906  0.03661  1.0000
  C   C1996     1.0  0.68234  0.67582  0.04457  1.0000
  C   C1997     1.0  0.67521  0.69401  0.04127  1.0000
  H   H3378     1.0  0.72362  0.67566  0.01899  1.0000
  H   H3379     1.0  0.67428  0.66693  0.05337  1.0000
  H   H3380     1.0  0.66174  0.69909  0.04758  1.0000
  H   H3381     1.0  0.96474  0.58499  0.08849  1.0000
  H   H3382     1.0  0.85921  0.48783  0.16872  1.0000
  H   H3383     1.0  0.91777  0.68990  0.15012  1.0000
  H   H3384     1.0  0.76265  0.70142  0.05907  1.0000
  H   H3385     1.0  0.66692  0.71692  0.07161  1.0000
  C   C1998     1.0  0.91769  0.57897  0.07961  1.0000
  Fe  Fe300     1.0  0.94906  0.52878  0.12587  1.0000
  H   H3386     1.0  0.76698  0.66153  0.07509  1.0000
  H   H3387     1.0  0.80171  0.54148  0.08172  1.0000
  H   H3388     1.0  0.94219  0.61090  0.09460  1.0000
  C   C1999     1.0  0.90890  0.70995  0.11678  1.0000
  H   H3389     1.0  0.50024  0.71766  0.01584  1.0000
  H   H3390     1.0  0.92758  0.66971  0.18245  1.0000
  N   N139      1.0  0.95750  0.67846  0.18570  1.0000
  H   H3391     1.0  0.88519  0.54299  0.10699  1.0000
  C   C2000     1.0  0.73358  0.53359  0.03269  1.0000
  C   C2001     1.0  0.75197  0.52784  0.02905  1.0000
  C   C2002     1.0  0.76285  0.53953  0.02628  1.0000
  C   C2003     1.0  0.75546  0.55703  0.02743  1.0000
  C   C2004     1.0  0.73703  0.56282  0.03146  1.0000
  C   C2005     1.0  0.72610  0.55108  0.03406  1.0000
  H   H3392     1.0  0.75788  0.51432  0.02848  1.0000
  H   H3393     1.0  0.77708  0.53493  0.02325  1.0000
  H   H3394     1.0  0.73123  0.57627  0.03256  1.0000
  H   H3395     1.0  0.71184  0.55558  0.03699  1.0000
  H   H3396     1.0  0.76974  0.48395  0.04401  1.0000
  H   H3397     1.0  0.96199  0.65800  0.20865  1.0000
  Fe  Fe301     1.0  0.95053  0.51586  0.09393  1.0000
  N   N140      1.0  0.77439  0.55071  0.07943  1.0000
  S   S594      1.0  0.97691  0.64273  0.10053  1.0000
  S   S595      1.0  0.63499  0.73263  0.01069  1.0000
  C   C2006     1.0  0.84371  0.53634  0.12696  1.0000
  C   C2007     1.0  0.84237  0.69751  0.16410  1.0000
  H   H3398     1.0  0.96918  0.63220  0.19699  1.0000
  H   H3399     1.0  0.87589  0.73210  0.14577  1.0000
  C   C2008     1.0  0.95711  0.56464  0.13077  1.0000
  H   H3400     1.0  0.90587  0.56830  0.18083  1.0000
  H   H3401     1.0  0.90299  0.58313  0.08300  1.0000
  N   N141      1.0  0.89794  0.59615  0.17035  1.0000
  H   H3402     1.0  0.79814  0.54998  0.04554  1.0000
  Fe  Fe302     1.0  0.83982  0.50248  0.11418  1.0000
  H   H3403     1.0  0.90995  0.60449  0.14310  1.0000
  H   H3404     1.0  0.99122  0.50142  0.07954  1.0000
  H   H3405     1.0  0.87679  0.72682  0.10994  1.0000
  S   S596      1.0  0.92989  0.51836  0.11845  1.0000
  C   C2009     1.0  0.95892  0.67976  0.16660  1.0000
  C   C2010     1.0  0.83170  0.70821  0.27908  1.0000
  H   H3406     1.0  0.91489  0.55216  0.09050  1.0000
  H   H3407     1.0  0.95033  0.60211  0.06728  1.0000
  H   H3408     1.0  0.95232  0.67051  0.16448  1.0000
  H   H3409     1.0  0.94884  0.64458  0.19116  1.0000
  H   H3410     1.0  0.99359  0.71967  0.27019  1.0000
  S   S597      1.0  0.96842  0.52849  0.10034  1.0000
  H   H3411     1.0  0.77522  0.55077  0.11478  1.0000
  H   H3412     1.0  0.74721  0.52585  0.97957  1.0000
  H   H3413     1.0  0.88817  0.69552  0.10587  1.0000
  H   H3414     1.0  0.89889  0.52554  0.17041  1.0000
  H   H3415     1.0  0.79816  0.54094  0.11241  1.0000
  H   H3416     1.0  0.87289  0.68880  0.12626  1.0000
  H   H3417     1.0  0.66884  0.70316  0.09224  1.0000
  H   H3418     1.0  0.76844  0.69727  0.00652  1.0000
  H   H3419     1.0  0.90306  0.61450  0.07562  1.0000
  C   C2011     1.0  0.92707  0.52369  0.06338  1.0000
  H   H3420     1.0  0.77408  0.52665  0.07300  1.0000
  H   H3421     1.0  0.73002  0.58943  0.98645  1.0000
  H   H3422     1.0  0.88234  0.53999  0.15892  1.0000
  S   S598      1.0  0.94689  0.52575  0.06646  1.0000
  C   C2012     1.0  0.92791  0.61149  0.10037  1.0000
  C   C2013     1.0  0.94560  0.58961  0.07213  1.0000
  H   H3423     1.0  0.56891  0.70450  0.99467  1.0000
  H   H3424     1.0  0.92374  0.61374  0.16780  1.0000
  H   H3425     1.0  0.90458  0.53423  0.14754  1.0000
  N   N142      1.0  0.92595  0.59335  0.07999  1.0000
  H   H3426     1.0  0.97981  0.67701  0.20937  1.0000
  H   H3427     1.0  0.87062  0.58387  0.15107  1.0000
  H   H3428     1.0  0.71738  0.71721  0.03987  1.0000
  C   C2014     1.0  0.97101  0.68969  0.20479  1.0000
  C   C2015     1.0  0.77671  0.56895  0.06970  1.0000
  H   H3429     1.0  0.70098  0.55664  0.98720  1.0000
  H   H3430     1.0  0.91181  0.68264  0.19609  1.0000
  Fe  Fe303     1.0  0.96213  0.65226  0.12498  1.0000
  H   H3431     1.0  0.82265  0.55481  0.13945  1.0000
  H   H3432     1.0  0.96078  0.70488  0.18238  1.0000
  H   H3433     1.0  0.90822  0.60186  0.05015  1.0000
  C   C2016     1.0  0.92474  0.52686  0.04637  1.0000
  N   N143      1.0  0.87817  0.50278  0.16769  1.0000
  H   H3434     1.0  0.85166  0.68590  0.18793  1.0000
  C   C2017     1.0  0.72607  0.70741  0.04817  1.0000
  H   H3435     1.0  0.93265  0.68691  0.29290  1.0000
  H   H3436     1.0  0.93718  0.56488  0.17685  1.0000
  H   H3437     1.0  0.97784  0.54198  0.12630  1.0000
  H   H3438     1.0  0.93738  0.70307  0.16174  1.0000
  H   H3439     1.0  0.55134  0.69333  0.00120  1.0000
  H   H3440     1.0  0.92116  0.57641  0.06625  1.0000
  H   H3441     1.0  0.94839  0.58398  0.06044  1.0000
  H   H3442     1.0  0.76609  0.57957  0.09426  1.0000
  S   S599      1.0  0.93979  0.55355  0.13610  1.0000
  H   H3443     1.0  0.88711  0.66294  0.28861  1.0000
  C   C2018     1.0  0.91714  0.72690  0.21148  1.0000
  C   C2019     1.0  0.55679  0.72130  0.05777  1.0000
  H   H3444     1.0  0.96858  0.56854  0.07671  1.0000
  H   H3445     1.0  0.95242  0.69700  0.14264  1.0000
  H   H3446     1.0  0.75531  0.53676  0.09819  1.0000
  H   H3447     1.0  0.93317  0.69797  0.19104  1.0000
  H   H3448     1.0  0.77012  0.67758  0.08427  1.0000
  H   H3449     1.0  0.93096  0.60464  0.04304  1.0000
  H   H3450     1.0  0.78488  0.67296  0.06459  1.0000
  C   C2020     1.0  0.83622  0.55233  0.13215  1.0000
  C   C2021     1.0  0.91721  0.61018  0.06909  1.0000
  C   C2022     1.0  0.74061  0.55792  0.08161  1.0000
  C   C2023     1.0  0.78824  0.54171  0.09011  1.0000
  H   H3451     1.0  0.92692  0.58151  0.18896  1.0000
  H   H3452     1.0  0.75615  0.59187  0.07607  1.0000
  H   H3453     1.0  0.95797  0.71186  0.27169  1.0000
  H   H3454     1.0  0.92464  0.66211  0.20589  1.0000
  C   C2024     1.0  0.96296  0.64464  0.18897  1.0000
  C   C2025     1.0  0.95328  0.58251  0.13083  1.0000
  C   C2026     1.0  0.95150  0.69804  0.15612  1.0000
  C   C2027     1.0  0.77678  0.53987  0.06630  1.0000
  H   H3455     1.0  0.91528  0.51667  0.09078  1.0000
  Fe  Fe304     1.0  0.86069  0.50145  0.07746  1.0000
  C   C2028     1.0  0.86910  0.49484  0.15890  1.0000
  H   H3456     1.0  0.92358  0.62115  0.06772  1.0000
  C   C2029     1.0  0.96609  0.66019  0.19415  1.0000
  C   C2030     1.0  0.91364  0.51890  0.07762  1.0000
  C   C2031     1.0  0.92699  0.72589  0.22356  1.0000
  H   H3457     1.0  0.72797  0.56007  0.09143  1.0000
  C   C2032     1.0  0.88567  0.71453  0.29420  1.0000
  C   C2033     1.0  0.84859  0.68343  0.17689  1.0000
  H   H3458     1.0  0.66500  0.72855  0.10166  1.0000
  H   H3459     1.0  0.75334  0.55773  0.10144  1.0000
  H   H3460     1.0  0.88748  0.51378  0.08576  1.0000
  C   C2034     1.0  0.92278  0.56091  0.09154  1.0000
  H   H3461     1.0  0.91581  0.57523  0.15843  1.0000
  H   H3462     1.0  0.76698  0.54585  0.05797  1.0000
  H   H3463     1.0  0.93973  0.58929  0.13447  1.0000
  H   H3464     1.0  0.95939  0.70770  0.15487  1.0000
  H   H3465     1.0  0.91196  0.69619  0.11520  1.0000
  S   S600      1.0  0.83148  0.51994  0.13333  1.0000
  C   C2035     1.0  0.89592  0.51954  0.05776  1.0000
  C   C2036     1.0  0.79499  0.53731  0.05346  1.0000
  C   C2037     1.0  0.86406  0.56163  0.11921  1.0000
  S   S601      1.0  0.86766  0.48920  0.10354  1.0000
  S   S602      1.0  0.83380  0.51616  0.08807  1.0000
  C   C2038     1.0  0.89332  0.60182  0.18743  1.0000
  C   C2039     1.0  0.90396  0.61009  0.15488  1.0000
  H   H3466     1.0  0.96387  0.60552  0.12583  1.0000
  N   N144      1.0  0.75694  0.68579  0.04467  1.0000
  C   C2040     1.0  0.77500  0.68552  0.03253  1.0000
  C   C2041     1.0  0.75826  0.68893  0.06156  1.0000
  C   C2042     1.0  0.74391  0.70082  0.03627  1.0000
  C   C2043     1.0  0.75222  0.66847  0.04693  1.0000
  C   C2044     1.0  0.77619  0.68510  0.01346  1.0000
  H   H3467     1.0  0.78004  0.69715  0.03200  1.0000
  C   C2045     1.0  0.98839  0.56494  0.12136  1.0000
  C   C2046     1.0  0.73638  0.66379  0.06172  1.0000
  C   C2047     1.0  0.89041  0.51326  0.15378  1.0000
  H   H3468     1.0  0.78494  0.67385  0.03733  1.0000
  S   S603      1.0  0.83999  0.71951  0.16507  1.0000
  S   S604      1.0  0.96391  0.48825  0.10441  1.0000
  H   H3469     1.0  0.84316  0.53774  0.17785  1.0000
  H   H3470     1.0  0.74069  0.69735  0.02543  1.0000
  H   H3471     1.0  0.74917  0.66772  0.03477  1.0000
  H   H3472     1.0  0.76376  0.65735  0.04853  1.0000
  S   S605      1.0  0.87723  0.51573  0.05388  1.0000
  C   C2048     1.0  0.98774  0.71110  0.28235  1.0000
  H   H3473     1.0  0.52903  0.72189  0.06837  1.0000
  H   H3474     1.0  0.90115  0.68279  0.16807  1.0000
  Fe  Fe305     1.0  0.82460  0.49221  0.08952  1.0000
  C   C2049     1.0  0.91167  0.57911  0.17123  1.0000
  C   C2050     1.0  0.51409  0.71804  0.01520  1.0000
  C   C2051     1.0  0.72925  0.57540  0.98977  1.0000
  C   C2052     1.0  0.92570  0.71293  0.12015  1.0000
  H   H3475     1.0  0.72399  0.66787  0.05685  1.0000
  H   H3476     1.0  0.73420  0.66909  0.07335  1.0000
  C   C2053     1.0  0.71323  0.54638  0.98875  1.0000
  N   N145      1.0  0.84933  0.57380  0.06536  1.0000
  C   C2054     1.0  0.83520  0.56555  0.06414  1.0000
  C   C2055     1.0  0.84412  0.57796  0.08322  1.0000
  C   C2056     1.0  0.86655  0.56026  0.06395  1.0000
  C   C2057     1.0  0.85058  0.58983  0.05064  1.0000
  C   C2058     1.0  0.83850  0.55874  0.04742  1.0000
  C   C2059     1.0  0.82596  0.59048  0.08736  1.0000
  C   C2060     1.0  0.88285  0.56565  0.06543  1.0000
  C   C2061     1.0  0.85838  0.60407  0.05319  1.0000
  H   H3477     1.0  0.83312  0.55435  0.07549  1.0000
  H   H3478     1.0  0.82221  0.57510  0.06476  1.0000
  H   H3479     1.0  0.85392  0.58368  0.08561  1.0000
  H   H3480     1.0  0.84380  0.56563  0.09349  1.0000
  H   H3481     1.0  0.86500  0.54799  0.07410  1.0000
  H   H3482     1.0  0.87047  0.55638  0.05116  1.0000
  H   H3483     1.0  0.85847  0.58592  0.03823  1.0000
  H   H3484     1.0  0.83714  0.59667  0.04817  1.0000
  H   H3485     1.0  0.84905  0.54661  0.04731  1.0000
  H   H3486     1.0  0.82631  0.55513  0.04710  1.0000
  H   H3487     1.0  0.84164  0.56876  0.03533  1.0000
  H   H3488     1.0  0.82390  0.60186  0.07638  1.0000
  H   H3489     1.0  0.81499  0.58353  0.09080  1.0000
  H   H3490     1.0  0.82512  0.59561  0.09889  1.0000
  H   H3491     1.0  0.88098  0.56948  0.07789  1.0000
  H   H3492     1.0  0.88693  0.57602  0.05406  1.0000
  H   H3493     1.0  0.89422  0.55422  0.06513  1.0000
  H   H3494     1.0  0.86624  0.60990  0.04042  1.0000
  H   H3495     1.0  0.86724  0.59951  0.06245  1.0000
  H   H3496     1.0  0.84762  0.61511  0.05711  1.0000
  N   N146      1.0  0.89179  0.71350  0.13008  1.0000
  H   H3497     1.0  0.69901  0.52540  0.00133  1.0000
  H   H3498     1.0  0.90446  0.72326  0.21605  1.0000
  C   C2062     1.0  0.89067  0.69821  0.14558  1.0000
  H   H3499     1.0  0.51319  0.72944  0.02053  1.0000
  C   C2063     1.0  0.67511  0.72851  0.08916  1.0000
  H   H3500     1.0  0.55313  0.69138  0.02884  1.0000
  C   C2064     1.0  0.90400  0.69411  0.15722  1.0000
  C   C2065     1.0  0.99078  0.69322  0.27769  1.0000
  H   H3501     1.0  0.89860  0.72917  0.14406  1.0000
  C   C2066     1.0  0.89543  0.72183  0.27552  1.0000
  H   H3502     1.0  0.86362  0.71938  0.13073  1.0000
  S   S606      1.0  0.96258  0.50244  0.13930  1.0000
  H   H3503     1.0  0.87725  0.70018  0.15426  1.0000
  H   H3504     1.0  0.89261  0.68588  0.14134  1.0000
  H   H3505     1.0  0.89233  0.62051  0.15147  1.0000
  C   C2067     1.0  0.98456  0.58287  0.12116  1.0000
  H   H3506     1.0  0.93641  0.70091  0.11935  1.0000
  C   C2068     1.0  0.77084  0.67431  0.07173  1.0000
  H   H3507     1.0  0.98484  0.69441  0.26659  1.0000
  H   H3508     1.0  0.54315  0.71398  0.02735  1.0000
  H   H3509     1.0  0.74525  0.69084  0.07081  1.0000
  H   H3510     1.0  0.68856  0.70676  0.07573  1.0000
  H   H3511     1.0  0.90281  0.70500  0.16340  1.0000
  H   H3512     1.0  0.85688  0.53513  0.15690  1.0000
  S   S607      1.0  0.97939  0.67075  0.12209  1.0000
  H   H3513     1.0  0.88993  0.56891  0.15715  1.0000
  C   C2069     1.0  0.55418  0.70475  0.02093  1.0000
  S   S608      1.0  0.79838  0.49575  0.08317  1.0000
  H   H3514     1.0  0.79023  0.68394  0.00625  1.0000
  H   H3515     1.0  0.74161  0.57064  0.07228  1.0000
  Fe  Fe306     1.0  0.85676  0.71914  0.22151  1.0000
  C   C2070     1.0  0.86395  0.51379  0.17906  1.0000
  H   H3516     1.0  0.73957  0.54848  0.07459  1.0000
  H   H3517     1.0  0.79455  0.52980  0.04421  1.0000
  C   C2071     1.0  0.67491  0.71309  0.08164  1.0000
  H   H3518     1.0  0.98077  0.68966  0.17751  1.0000
  S   S609      1.0  0.67816  0.72846  0.02777  1.0000
  H   H3519     1.0  0.93682  0.55459  0.08714  1.0000
  H   H3520     1.0  0.51663  0.73068  0.98794  1.0000
  H   H3521     1.0  0.92565  0.61144  0.11437  1.0000
  H   H3522     1.0  0.96956  0.64423  0.17517  1.0000
  Fe  Fe307     1.0  0.85054  0.72540  0.18522  1.0000
  C   C2072     1.0  0.95790  0.57732  0.08423  1.0000
  C   C2073     1.0  0.53870  0.72849  0.05869  1.0000
  H   H3523     1.0  0.80587  0.52933  0.06001  1.0000
  H   H3524     1.0  0.57135  0.73162  0.99904  1.0000
  H   H3525     1.0  0.93718  0.58684  0.16572  1.0000
  H   H3526     1.0  0.92735  0.58423  0.10752  1.0000
  C   C2074     1.0  0.75619  0.55047  0.09103  1.0000
  H   H3527     1.0  0.74102  0.56773  0.99505  1.0000
  H   H3528     1.0  0.95857  0.69189  0.21477  1.0000
  C   C2075     1.0  0.85090  0.72855  0.26416  1.0000
  C   C2076     1.0  0.91746  0.60967  0.05029  1.0000
  H   H3529     1.0  0.90345  0.50454  0.14979  1.0000
  H   H3530     1.0  0.71471  0.54585  0.00205  1.0000
  C   C2077     1.0  0.92172  0.59597  0.09840  1.0000
  H   H3531     1.0  0.83735  0.67431  0.13751  1.0000
  H   H3532     1.0  0.92770  0.62095  0.14470  1.0000
  C   C2078     1.0  0.87149  0.54570  0.11391  1.0000
  C   C2079     1.0  0.78803  0.54973  0.10514  1.0000
  S   S610      1.0  0.84910  0.64064  0.16013  1.0000
  C   C2080     1.0  0.93864  0.68375  0.19536  1.0000
  H   H3533     1.0  0.95152  0.56867  0.09585  1.0000
  H   H3534     1.0  0.90760  0.52678  0.03036  1.0000
  C   C2081     1.0  0.84059  0.67674  0.14845  1.0000
  H   H3535     1.0  0.86535  0.61593  0.18967  1.0000
  H   H3536     1.0  0.88105  0.62962  0.17779  1.0000
  C   C2082     1.0  0.89952  0.49276  0.18891  1.0000
  H   H3537     1.0  0.73887  0.64930  0.06657  1.0000
  H   H3538     1.0  0.83349  0.70489  0.13998  1.0000
  C   C2083     1.0  0.84664  0.66263  0.16130  1.0000
  H   H3539     1.0  0.87136  0.60505  0.16532  1.0000
  H   H3540     1.0  0.91965  0.56132  0.10553  1.0000
  H   H3541     1.0  0.56103  0.70922  0.06678  1.0000
  H   H3542     1.0  0.86993  0.66602  0.30804  1.0000
  C   C2084     1.0  0.89410  0.52900  0.15822  1.0000
  C   C2085     1.0  0.89795  0.51707  0.07479  1.0000
  C   C2086     1.0  0.86127  0.53318  0.11758  1.0000
  C   C2087     1.0  0.84634  0.56504  0.12814  1.0000
  H   H3543     1.0  0.86718  0.52083  0.11370  1.0000
  H   H3544     1.0  0.84052  0.57731  0.13225  1.0000
  S   S611      1.0  0.85347  0.70190  0.24836  1.0000
  H   H3545     1.0  0.90483  0.60440  0.19036  1.0000
  C   C2088     1.0  0.83832  0.69409  0.14992  1.0000
  H   H3546     1.0  0.72129  0.51781  0.99051  1.0000
  H   H3547     1.0  0.87475  0.58461  0.18038  1.0000
  H   H3548     1.0  0.88924  0.59106  0.19850  1.0000
  H   H3549     1.0  0.89190  0.58890  0.14088  1.0000
  H   H3550     1.0  0.77208  0.67353  0.01265  1.0000
  C   C2089     1.0  0.87566  0.69072  0.28978  1.0000
  H   H3551     1.0  0.97305  0.67577  0.16001  1.0000
  H   H3552     1.0  0.91000  0.71735  0.27381  1.0000
  C   C2090     1.0  0.88134  0.59261  0.16809  1.0000
  H   H3553     1.0  0.56684  0.70674  0.02219  1.0000
  C   C2091     1.0  0.88380  0.58305  0.15341  1.0000
  H   H3554     1.0  0.98077  0.65853  0.19099  1.0000
  C   C2092     1.0  0.91709  0.61980  0.15680  1.0000
  C   C2093     1.0  0.96695  0.59167  0.12596  1.0000
  C   C2094     1.0  0.85056  0.66606  0.17556  1.0000
  S   S612      1.0  0.87276  0.70848  0.19790  1.0000
  C   C2095     1.0  0.74561  0.53949  0.98091  1.0000
  H   H3555     1.0  0.90743  0.71817  0.10362  1.0000
  H   H3556     1.0  0.52390  0.70742  0.99256  1.0000
  N   N147      1.0  0.96880  0.71963  0.28910  1.0000
  H   H3557     1.0  0.88039  0.69449  0.27538  1.0000
  H   H3558     1.0  0.87160  0.72164  0.29546  1.0000
  C   C2096     1.0  0.70944  0.52861  0.98950  1.0000
  C   C2097     1.0  0.82548  0.71670  0.29304  1.0000
  H   H3559     1.0  0.78718  0.73078  0.20530  1.0000
  C   C2098     1.0  0.84446  0.71405  0.26465  1.0000
  C   C2099     1.0  0.87656  0.71581  0.12164  1.0000
  C   C2100     1.0  0.55472  0.70556  0.00160  1.0000
  C   C2101     1.0  0.56943  0.72966  0.04530  1.0000
  H   H3560     1.0  0.97799  0.70010  0.20362  1.0000
  H   H3561     1.0  0.81564  0.71207  0.30420  1.0000
  H   H3562     1.0  0.88527  0.51877  0.14160  1.0000
  C   C2102     1.0  0.87586  0.69992  0.11526  1.0000
  H   H3563     1.0  0.72776  0.71429  0.05735  1.0000
  H   H3564     1.0  0.86486  0.70374  0.10831  1.0000
  C   C2103     1.0  0.95877  0.72401  0.27487  1.0000
  N   N148      1.0  0.54333  0.72145  0.99217  1.0000
  H   H3565     1.0  0.71891  0.69687  0.05537  1.0000
  H   H3566     1.0  0.51957  0.70564  0.02374  1.0000
  C   C2104     1.0  0.85043  0.52801  0.16969  1.0000
  H   H3567     1.0  0.74989  0.71253  0.03013  1.0000
  Fe  Fe308     1.0  0.98037  0.50123  0.11284  1.0000
  C   C2105     1.0  0.87441  0.67135  0.29391  1.0000
  H   H3568     1.0  0.71708  0.57402  0.00009  1.0000
  Fe  Fe309     1.0  0.99318  0.62206  0.11786  1.0000
  H   H3569     1.0  0.96593  0.73133  0.26252  1.0000
  C   C2106     1.0  0.83242  0.73069  0.29292  1.0000
  H   H3570     1.0  0.92523  0.48688  0.06190  1.0000
  C   C2107     1.0  0.78276  0.49003  0.06041  1.0000
  Fe  Fe310     1.0  0.98357  0.73279  0.22161  1.0000
  H   H3571     1.0  0.89103  0.71848  0.26540  1.0000
  H   H3572     1.0  0.92418  0.71597  0.13288  1.0000
  H   H3573     1.0  0.86149  0.50525  0.15003  1.0000
  H   H3574     1.0  0.92163  0.72192  0.23740  1.0000
  C   C2108     1.0  0.94382  0.72977  0.21774  1.0000
  H   H3575     1.0  0.98600  0.68315  0.28900  1.0000
  H   H3576     1.0  0.91461  0.48691  0.03897  1.0000
  H   H3577     1.0  0.86445  0.67045  0.28731  1.0000
  C   C2109     1.0  0.79863  0.48730  0.06556  1.0000
  H   H3578     1.0  0.91057  0.68728  0.27961  1.0000
  H   H3579     1.0  0.86194  0.69861  0.29252  1.0000
  C   C2110     1.0  0.90581  0.68506  0.29407  1.0000
  N   N149      1.0  0.88703  0.69495  0.29921  1.0000
  H   H3580     1.0  0.93102  0.72725  0.28983  1.0000
  S   S613      1.0  0.95575  0.72870  0.23312  1.0000
  H   H3581     1.0  0.90659  0.67067  0.29821  1.0000
  H   H3582     1.0  0.89037  0.71905  0.30340  1.0000
  C   C2111     1.0  0.92393  0.73216  0.19356  1.0000
  C   C2112     1.0  0.88828  0.48785  0.17933  1.0000
  H   H3583     1.0  0.91640  0.70171  0.30442  1.0000
  C   C2113     1.0  0.91951  0.68833  0.30211  1.0000
  H   H3584     1.0  0.97717  0.73298  0.30397  1.0000
  H   H3585     1.0  0.86092  0.73298  0.25315  1.0000
  S   S614      1.0  0.91204  0.73296  0.17825  1.0000
  Fe  Fe311     1.0  0.88342  0.73285  0.19052  1.0000
  H   H3586     1.0  0.91814  0.71574  0.47233  1.0000
  H   H3587     1.0  0.93604  0.72258  0.34276  1.0000
  H   H3588     1.0  0.89049  0.72621  0.56597  1.0000
  C   C2114     1.0  0.96527  0.68664  0.61207  1.0000
  C   C2115     1.0  0.98976  0.70479  0.44083  1.0000
  C   C2116     1.0  0.96646  0.71085  0.58483  1.0000
  H   H3589     1.0  0.96617  0.73030  0.60564  1.0000
  C   C2117     1.0  0.95038  0.66902  0.48214  1.0000
  H   H3590     1.0  0.89649  0.67634  0.47580  1.0000
  H   H3591     1.0  0.99261  0.69207  0.44949  1.0000
  H   H3592     1.0  0.99137  0.67033  0.61556  1.0000
  H   H3593     1.0  0.96324  0.71543  0.62612  1.0000
  N   N150      1.0  0.96090  0.70610  0.60451  1.0000
  H   H3594     1.0  0.85626  0.71039  0.32147  1.0000
  H   H3595     1.0  0.93424  0.70749  0.60226  1.0000
  C   C2118     1.0  0.87890  0.73303  0.41172  1.0000
  H   H3596     1.0  0.96230  0.68246  0.45703  1.0000
  H   H3597     1.0  0.88800  0.69463  0.32553  1.0000
  H   H3598     1.0  0.90851  0.71979  0.53741  1.0000
  H   H3599     1.0  0.95299  0.68475  0.42817  1.0000
  C   C2119     1.0  0.89543  0.72824  0.53815  1.0000
  C   C2120     1.0  0.98438  0.72217  0.41267  1.0000
  H   H3600     1.0  0.92048  0.68132  0.45035  1.0000
  H   H3601     1.0  0.94659  0.71431  0.31039  1.0000
  H   H3602     1.0  0.94906  0.66858  0.45620  1.0000
  N   N151      1.0  0.93439  0.69435  0.46038  1.0000
  H   H3603     1.0  0.98094  0.70967  0.58018  1.0000
  H   H3604     1.0  0.93758  0.66971  0.49169  1.0000
  C   C2121     1.0  0.98400  0.67623  0.60493  1.0000
  H   H3605     1.0  0.85817  0.69324  0.34049  1.0000
  C   C2122     1.0  0.91783  0.68915  0.46034  1.0000
  C   C2123     1.0  0.86084  0.69607  0.32599  1.0000
  H   H3606     1.0  0.93744  0.72723  0.60469  1.0000
  H   H3607     1.0  0.92060  0.67886  0.31475  1.0000
  C   C2124     1.0  0.96906  0.71612  0.61202  1.0000
  C   C2125     1.0  0.94935  0.67852  0.46306  1.0000
  C   C2126     1.0  0.88082  0.68963  0.31875  1.0000
  C   C2127     1.0  0.93975  0.70598  0.44267  1.0000
  C   C2128     1.0  0.96102  0.70041  0.57479  1.0000
  H   H3608     1.0  0.96181  0.69183  0.33079  1.0000
  H   H3609     1.0  0.95964  0.67380  0.48661  1.0000
  C   C2129     1.0  0.94104  0.71270  0.60915  1.0000
  H   H3610     1.0  0.95011  0.70636  0.41502  1.0000
  C   C2130     1.0  0.94368  0.69771  0.42676  1.0000
  H   H3611     1.0  0.94649  0.70305  0.57627  1.0000
  H   H3612     1.0  0.98895  0.69400  0.41996  1.0000
  H   H3613     1.0  0.96355  0.68419  0.62650  1.0000
  H   H3614     1.0  0.99333  0.72013  0.61505  1.0000
  C   C2131     1.0  0.96985  0.69995  0.31990  1.0000
  H   H3615     1.0  0.92934  0.71817  0.44052  1.0000
  S   S615      1.0  0.98047  0.72261  0.39246  1.0000
  H   H3616     1.0  0.94165  0.71864  0.48606  1.0000
  H   H3617     1.0  0.90530  0.68471  0.48862  1.0000
  H   H3618     1.0  0.93132  0.69674  0.42397  1.0000
  H   H3619     1.0  0.96629  0.68610  0.57849  1.0000
  H   H3620     1.0  0.95631  0.65487  0.48258  1.0000
  H   H3621     1.0  0.92630  0.69757  0.48738  1.0000
  C   C2132     1.0  0.90903  0.67814  0.47752  1.0000
  Fe  Fe312     1.0  0.88006  0.71944  0.63065  1.0000
  S   S616      1.0  0.99024  0.71747  0.46787  1.0000
  S   S617      1.0  0.89544  0.72536  0.42395  1.0000
  H   H3622     1.0  0.91740  0.66482  0.48065  1.0000
  H   H3623     1.0  0.95789  0.70437  0.47337  1.0000
  S   S618      1.0  0.89386  0.72859  0.60276  1.0000
  H   H3624     1.0  0.85263  0.68921  0.32251  1.0000
  C   C2133     1.0  0.94492  0.71376  0.47387  1.0000
  C   C2134     1.0  0.98918  0.71039  0.61074  1.0000
  C   C2135     1.0  0.93010  0.70517  0.47390  1.0000
  H   H3625     1.0  0.95192  0.71038  0.44173  1.0000
  H   H3626     1.0  0.95556  0.68024  0.61020  1.0000
  H   H3627     1.0  0.90755  0.70108  0.45662  1.0000
  H   H3628     1.0  0.89561  0.72430  0.38870  1.0000
  C   C2136     1.0  0.98790  0.72001  0.44652  1.0000
  S   S619      1.0  0.90808  0.72903  0.32463  1.0000
  H   H3629     1.0  0.98289  0.66515  0.60015  1.0000
  C   C2137     1.0  0.88281  0.73155  0.39429  1.0000
  H   H3630     1.0  0.96093  0.72502  0.57987  1.0000
  H   H3631     1.0  0.99233  0.68392  0.59408  1.0000
  H   H3632     1.0  0.88409  0.67511  0.32338  1.0000
  H   H3633     1.0  0.93247  0.69361  0.63330  1.0000
  H   H3634     1.0  0.96666  0.70465  0.56061  1.0000
  H   H3635     1.0  0.97153  0.71038  0.32521  1.0000
  H   H3636     1.0  0.98295  0.69130  0.31611  1.0000
  H   H3637     1.0  0.93878  0.73261  0.39657  1.0000
  H   H3638     1.0  0.94277  0.72935  0.37502  1.0000
  H   H3639     1.0  0.93682  0.71261  0.63740  1.0000
  C   C2138     1.0  0.98781  0.70587  0.42409  1.0000
  H   H3640     1.0  0.99275  0.69761  0.61974  1.0000
  C   C2139     1.0  0.93183  0.70792  0.62865  1.0000
  H   H3641     1.0  0.91756  0.71438  0.63014  1.0000
  S   S620      1.0  0.90182  0.73115  0.50279  1.0000
  C   C2140     1.0  0.88527  0.73189  0.55430  1.0000
  H   H3642     1.0  0.94609  0.72535  0.46287  1.0000
  S   S621      1.0  0.85275  0.73170  0.62569  1.0000
  H   H3643     1.0  0.98050  0.61757  0.72479  1.0000
  H   H3644     1.0  0.94612  0.61340  0.78228  1.0000
  H   H3645     1.0  0.95320  0.56745  0.74837  1.0000
  C   C2141     1.0  0.87209  0.62796  0.67452  1.0000
  N   N152      1.0  0.90847  0.52886  0.77691  1.0000
  S   S622      1.0  0.85013  0.51881  0.75780  1.0000
  S   S623      1.0  0.95933  0.67089  0.75305  1.0000
  H   H3646     1.0  0.97503  0.49241  0.74649  1.0000
  C   C2142     1.0  0.96523  0.56968  0.73804  1.0000
  H   H3647     1.0  0.68829  0.70842  0.91784  1.0000
  H   H3648     1.0  0.85160  0.59260  0.68080  1.0000
  H   H3649     1.0  0.54037  0.70620  0.92445  1.0000
  H   H3650     1.0  0.76639  0.50131  0.89790  1.0000
  H   H3651     1.0  0.87572  0.62082  0.66379  1.0000
  H   H3652     1.0  0.91677  0.70274  0.67375  1.0000
  H   H3653     1.0  0.60880  0.67876  0.84184  1.0000
  H   H3654     1.0  0.63078  0.70013  0.94828  1.0000
  S   S624      1.0  0.85454  0.66580  0.72374  1.0000
  H   H3655     1.0  0.77184  0.66075  0.86378  1.0000
  Fe  Fe313     1.0  0.86604  0.49195  0.75429  1.0000
  H   H3656     1.0  0.79598  0.49668  0.87383  1.0000
  H   H3657     1.0  0.84664  0.62033  0.66475  1.0000
  C   C2143     1.0  0.95019  0.71079  0.71109  1.0000
  C   C2144     1.0  0.98749  0.68837  0.70656  1.0000
  S   S625      1.0  0.66383  0.70999  0.87973  1.0000
  H   H3658     1.0  0.76948  0.63126  0.88188  1.0000
  S   S626      1.0  0.72355  0.48913  0.88648  1.0000
  H   H3659     1.0  0.96019  0.70223  0.68708  1.0000
  H   H3660     1.0  0.89780  0.53651  0.80190  1.0000
  H   H3661     1.0  0.72787  0.53214  0.91852  1.0000
  H   H3662     1.0  0.87239  0.64188  0.66783  1.0000
  C   C2145     1.0  0.72865  0.57025  0.97320  1.0000
  C   C2146     1.0  0.56158  0.71145  0.88153  1.0000
  H   H3663     1.0  0.85633  0.63706  0.70613  1.0000
  H   H3664     1.0  0.84423  0.72654  0.69855  1.0000
  S   S627      1.0  0.68671  0.62805  0.88463  1.0000
  H   H3665     1.0  0.90979  0.50340  0.77269  1.0000
  H   H3666     1.0  0.65478  0.64963  0.90000  1.0000
  C   C2147     1.0  0.85517  0.68661  0.69088  1.0000
  C   C2148     1.0  0.74073  0.52247  0.91808  1.0000
  C   C2149     1.0  0.98269  0.67243  0.70380  1.0000
  Fe  Fe314     1.0  0.75379  0.61650  0.86218  1.0000
  S   S628      1.0  0.73279  0.60993  0.85354  1.0000
  S   S629      1.0  0.77233  0.63376  0.84456  1.0000
  Fe  Fe315     1.0  0.71562  0.61411  0.87965  1.0000
  Fe  Fe316     1.0  0.74224  0.58243  0.86808  1.0000
  S   S630      1.0  0.75114  0.55967  0.85462  1.0000
  H   H3667     1.0  0.77148  0.51857  0.88054  1.0000
  S   S631      1.0  0.76434  0.58886  0.87505  1.0000
  Fe  Fe317     1.0  0.88047  0.60092  0.73731  1.0000
  S   S632      1.0  0.88171  0.59258  0.76538  1.0000
  S   S633      1.0  0.89027  0.58054  0.72104  1.0000
  Fe  Fe318     1.0  0.86533  0.63893  0.73931  1.0000
  S   S634      1.0  0.86491  0.63369  0.76810  1.0000
  Fe  Fe319     1.0  0.89191  0.61675  0.76075  1.0000
  Fe  Fe320     1.0  0.85463  0.60988  0.77050  1.0000
  S   S635      1.0  0.83548  0.59579  0.79202  1.0000
  S   S636      1.0  0.89320  0.62368  0.73193  1.0000
  S   S637      1.0  0.85260  0.61656  0.74243  1.0000
  C   C2150     1.0  0.79001  0.62339  0.82991  1.0000
  C   C2151     1.0  0.79295  0.60538  0.83110  1.0000
  C   C2152     1.0  0.80724  0.59712  0.81969  1.0000
  C   C2153     1.0  0.81839  0.60684  0.80658  1.0000
  C   C2154     1.0  0.81553  0.62489  0.80531  1.0000
  C   C2155     1.0  0.80142  0.63312  0.81708  1.0000
  H   H3668     1.0  0.78424  0.59776  0.84078  1.0000
  H   H3669     1.0  0.80964  0.58313  0.82109  1.0000
  H   H3670     1.0  0.82410  0.63249  0.79527  1.0000
  H   H3671     1.0  0.79921  0.64708  0.81607  1.0000
  C   C2156     1.0  0.87722  0.54720  0.78735  1.0000
  H   H3672     1.0  0.86200  0.60636  0.70735  1.0000
  H   H3673     1.0  0.78554  0.52589  0.93410  1.0000
  S   S638      1.0  0.91537  0.61212  0.77246  1.0000
  H   H3674     1.0  0.90163  0.72135  0.71315  1.0000
  H   H3675     1.0  0.85071  0.65124  0.65274  1.0000
  H   H3676     1.0  0.77943  0.50659  0.94883  1.0000
  H   H3677     1.0  0.80534  0.50373  0.88708  1.0000
  C   C2157     1.0  0.82857  0.64220  0.70727  1.0000
  C   C2158     1.0  0.86091  0.59293  0.68839  1.0000
  C   C2159     1.0  0.73042  0.50914  0.87734  1.0000
  C   C2160     1.0  0.72125  0.52423  0.88382  1.0000
  C   C2161     1.0  0.72736  0.53995  0.87699  1.0000
  C   C2162     1.0  0.74238  0.54068  0.86334  1.0000
  C   C2163     1.0  0.75114  0.52575  0.85657  1.0000
  C   C2164     1.0  0.74540  0.50998  0.86372  1.0000
  H   H3678     1.0  0.70961  0.52365  0.89433  1.0000
  H   H3679     1.0  0.72040  0.55147  0.88218  1.0000
  H   H3680     1.0  0.76262  0.52621  0.84597  1.0000
  H   H3681     1.0  0.75249  0.49850  0.85851  1.0000
  C   C2165     1.0  0.97988  0.55283  0.74061  1.0000
  H   H3682     1.0  0.63294  0.70896  0.92499  1.0000
  H   H3683     1.0  0.91022  0.49703  0.80418  1.0000
  H   H3684     1.0  0.96788  0.58021  0.78250  1.0000
  H   H3685     1.0  0.65425  0.70698  0.82567  1.0000
  H   H3686     1.0  0.77130  0.58212  0.95160  1.0000
  H   H3687     1.0  0.61040  0.66700  0.86919  1.0000
  C   C2166     1.0  0.96411  0.48604  0.75197  1.0000
  H   H3688     1.0  0.90971  0.64781  0.75127  1.0000
  S   S639      1.0  0.58221  0.71371  0.86765  1.0000
  C   C2167     1.0  0.94203  0.62582  0.77368  1.0000
  H   H3689     1.0  0.82799  0.49079  0.81326  1.0000
  C   C2168     1.0  0.68142  0.65042  0.88535  1.0000
  C   C2169     1.0  0.66418  0.65790  0.89334  1.0000
  C   C2170     1.0  0.86071  0.53615  0.74613  1.0000
  C   C2171     1.0  0.87652  0.53357  0.73356  1.0000
  C   C2172     1.0  0.88510  0.54755  0.72509  1.0000
  C   C2173     1.0  0.87828  0.56386  0.72975  1.0000
  C   C2174     1.0  0.86232  0.56647  0.74204  1.0000
  C   C2175     1.0  0.85339  0.55276  0.74991  1.0000
  H   H3690     1.0  0.88217  0.52082  0.73042  1.0000
  H   H3691     1.0  0.89739  0.54548  0.71549  1.0000
  H   H3692     1.0  0.85687  0.57900  0.74566  1.0000
  H   H3693     1.0  0.84092  0.55494  0.75917  1.0000
  H   H3694     1.0  0.89520  0.69125  0.72027  1.0000
  C   C2176     1.0  0.54233  0.70791  0.91048  1.0000
  H   H3695     1.0  0.88816  0.51647  0.77602  1.0000
  C   C2177     1.0  0.90948  0.53779  0.75796  1.0000
  C   C2178     1.0  0.78196  0.65322  0.91542  1.0000
  H   H3696     1.0  0.66500  0.69559  0.91921  1.0000
  H   H3697     1.0  0.92617  0.53569  0.73218  1.0000
  C   C2179     1.0  0.90082  0.51296  0.78050  1.0000
  H   H3698     1.0  0.96361  0.63606  0.77448  1.0000
  H   H3699     1.0  0.83186  0.65855  0.66926  1.0000
  C   C2180     1.0  0.97562  0.58525  0.75419  1.0000
  H   H3700     1.0  0.94940  0.58664  0.77238  1.0000
  H   H3701     1.0  0.88233  0.71174  0.67978  1.0000
  C   C2181     1.0  0.64850  0.65482  0.85505  1.0000
  C   C2182     1.0  0.74529  0.62994  0.93893  1.0000
  H   H3702     1.0  0.80101  0.60045  0.88644  1.0000
  H   H3703     1.0  0.81881  0.64698  0.69883  1.0000
  H   H3704     1.0  0.97450  0.54131  0.74167  1.0000
  H   H3705     1.0  0.98206  0.58942  0.71003  1.0000
  C   C2183     1.0  0.79414  0.49828  0.88734  1.0000
  H   H3706     1.0  0.64958  0.70793  0.84845  1.0000
  C   C2184     1.0  0.77821  0.50845  0.92214  1.0000
  N   N153      1.0  0.79853  0.54633  0.80816  1.0000
  C   C2185     1.0  0.78011  0.55696  0.80678  1.0000
  C   C2186     1.0  0.80133  0.53021  0.80116  1.0000
  C   C2187     1.0  0.81154  0.55721  0.79649  1.0000
  C   C2188     1.0  0.79992  0.54215  0.82702  1.0000
  C   C2189     1.0  0.77497  0.57514  0.81145  1.0000
  C   C2190     1.0  0.78842  0.51799  0.81103  1.0000
  C   C2191     1.0  0.83120  0.54929  0.79665  1.0000
  C   C2192     1.0  0.81414  0.52592  0.83304  1.0000
  H   H3707     1.0  0.77806  0.55913  0.79333  1.0000
  H   H3708     1.0  0.76991  0.54974  0.81563  1.0000
  H   H3709     1.0  0.81490  0.52205  0.80070  1.0000
  H   H3710     1.0  0.80023  0.53404  0.78722  1.0000
  H   H3711     1.0  0.81016  0.56041  0.78268  1.0000
  H   H3712     1.0  0.80888  0.57003  0.80003  1.0000
  H   H3713     1.0  0.80223  0.55366  0.83020  1.0000
  H   H3714     1.0  0.78708  0.53986  0.83585  1.0000
  H   H3715     1.0  0.78123  0.58495  0.80087  1.0000
  H   H3716     1.0  0.76041  0.58013  0.81304  1.0000
  H   H3717     1.0  0.77813  0.57462  0.82396  1.0000
  H   H3718     1.0  0.79336  0.50539  0.80665  1.0000
  H   H3719     1.0  0.78730  0.51478  0.82531  1.0000
  H   H3720     1.0  0.77505  0.52370  0.80818  1.0000
  H   H3721     1.0  0.83612  0.53677  0.79219  1.0000
  H   H3722     1.0  0.83394  0.54781  0.80960  1.0000
  H   H3723     1.0  0.83907  0.55867  0.78742  1.0000
  H   H3724     1.0  0.82044  0.52910  0.84189  1.0000
  H   H3725     1.0  0.82500  0.52130  0.82255  1.0000
  H   H3726     1.0  0.80787  0.51483  0.84101  1.0000
  C   C2193     1.0  0.86444  0.67235  0.70150  1.0000
  H   H3727     1.0  0.65275  0.65205  0.86756  1.0000
  H   H3728     1.0  0.87062  0.53596  0.79220  1.0000
  H   H3729     1.0  0.79910  0.66176  0.85867  1.0000
  H   H3730     1.0  0.70691  0.65550  0.87082  1.0000
  H   H3731     1.0  0.63373  0.69325  0.82647  1.0000
  C   C2194     1.0  0.88143  0.66379  0.69428  1.0000
  H   H3732     1.0  0.62249  0.69603  0.85540  1.0000
  H   H3733     1.0  0.74154  0.51601  0.93179  1.0000
  H   H3734     1.0  0.98885  0.57646  0.75423  1.0000
  H   H3735     1.0  0.77146  0.60448  0.96689  1.0000
  H   H3736     1.0  0.95199  0.69769  0.72010  1.0000
  H   H3737     1.0  0.68821  0.71996  0.93301  1.0000
  H   H3738     1.0  0.91364  0.51871  0.74186  1.0000
  H   H3739     1.0  0.93320  0.51793  0.74876  1.0000
  C   C2195     1.0  0.69359  0.66114  0.87704  1.0000
  H   H3740     1.0  0.55764  0.71007  0.95118  1.0000
  N   N154      1.0  0.64388  0.67439  0.84792  1.0000
  C   C2196     1.0  0.54969  0.70839  0.96484  1.0000
  C   C2197     1.0  0.71324  0.55911  0.94954  1.0000
  H   H3741     1.0  0.79200  0.50047  0.91985  1.0000
  C   C2198     1.0  0.85407  0.60858  0.69747  1.0000
  C   C2199     1.0  0.65551  0.71277  0.95558  1.0000
  H   H3742     1.0  0.97739  0.59822  0.75465  1.0000
  C   C2200     1.0  0.76461  0.65904  0.87759  1.0000
  C   C2201     1.0  0.75486  0.62541  0.95203  1.0000
  H   H3743     1.0  0.56987  0.70896  0.90517  1.0000
  H   H3744     1.0  0.80596  0.61628  0.90718  1.0000
  H   H3745     1.0  0.77774  0.60429  0.89700  1.0000
  S   S640      1.0  0.74656  0.48985  0.96496  1.0000
  C   C2202     1.0  0.66335  0.64399  0.84324  1.0000
  H   H3746     1.0  0.81548  0.62418  0.87616  1.0000
  H   H3747     1.0  0.67039  0.67596  0.83236  1.0000
  Fe  Fe321     1.0  0.60279  0.73191  0.91179  1.0000
  C   C2203     1.0  0.77129  0.64073  0.88836  1.0000
  H   H3748     1.0  0.73805  0.64330  0.93534  1.0000
  C   C2204     1.0  0.98491  0.58991  0.72243  1.0000
  H   H3749     1.0  0.86185  0.58055  0.69858  1.0000
  H   H3750     1.0  0.71047  0.55147  0.94165  1.0000
  C   C2205     1.0  0.79367  0.65015  0.89755  1.0000
  H   H3751     1.0  0.88480  0.70498  0.73601  1.0000
  H   H3752     1.0  0.97026  0.67555  0.69928  1.0000
  S   S641      1.0  0.59400  0.72827  0.94098  1.0000
  H   H3753     1.0  0.95459  0.61272  0.74060  1.0000
  H   H3754     1.0  0.77536  0.55050  0.87719  1.0000
  H   H3755     1.0  0.93423  0.51106  0.77647  1.0000
  H   H3756     1.0  0.79213  0.66313  0.88832  1.0000
  C   C2206     1.0  0.68329  0.70902  0.93190  1.0000
  C   C2207     1.0  0.87146  0.71163  0.71409  1.0000
  C   C2208     1.0  0.80982  0.65021  0.86140  1.0000
  H   H3757     1.0  0.80091  0.52546  0.90013  1.0000
  C   C2209     1.0  0.68825  0.67936  0.87600  1.0000
  S   S642      1.0  0.73578  0.62315  0.88704  1.0000
  C   C2210     1.0  0.72926  0.54839  0.95762  1.0000
  C   C2211     1.0  0.77626  0.51706  0.93734  1.0000
  C   C2212     1.0  0.52811  0.70897  0.90327  1.0000
  H   H3758     1.0  0.66734  0.67619  0.85463  1.0000
  H   H3759     1.0  0.93161  0.54912  0.77866  1.0000
  H   H3760     1.0  0.64100  0.71838  0.95758  1.0000
  H   H3761     1.0  0.80772  0.64664  0.89884  1.0000
  C   C2213     1.0  0.88915  0.66953  0.67660  1.0000
  H   H3762     1.0  0.92705  0.67096  0.74390  1.0000
  C   C2214     1.0  0.61742  0.67287  0.87515  1.0000
  S   S643      1.0  0.61346  0.70835  0.89982  1.0000
  H   H3763     1.0  0.85691  0.73034  0.67618  1.0000
  H   H3764     1.0  0.66449  0.62984  0.84959  1.0000
  C   C2215     1.0  0.65849  0.69716  0.93284  1.0000
  H   H3765     1.0  0.81725  0.64691  0.84863  1.0000
  S   S644      1.0  0.50708  0.70787  0.91678  1.0000
  H   H3766     1.0  0.79520  0.48513  0.89634  1.0000
  H   H3767     1.0  0.69242  0.68022  0.93903  1.0000
  H   H3768     1.0  0.78391  0.54286  0.90670  1.0000
  H   H3769     1.0  0.89943  0.62551  0.67549  1.0000
  H   H3770     1.0  0.61704  0.67618  0.81991  1.0000
  C   C2216     1.0  0.93125  0.65835  0.75216  1.0000
  H   H3771     1.0  0.93564  0.61738  0.72004  1.0000
  C   C2217     1.0  0.92146  0.64528  0.75631  1.0000
  C   C2218     1.0  0.92653  0.52305  0.78124  1.0000
  C   C2219     1.0  0.88008  0.68408  0.66612  1.0000
  N   N155      1.0  0.85387  0.62651  0.68557  1.0000
  H   H3772     1.0  0.51972  0.71206  0.87956  1.0000
  H   H3773     1.0  0.81916  0.65385  0.86681  1.0000
  C   C2220     1.0  0.65888  0.67607  0.89235  1.0000
  C   C2221     1.0  0.62038  0.67237  0.83296  1.0000
  H   H3774     1.0  0.75482  0.54217  0.91592  1.0000
  C   C2222     1.0  0.95351  0.60107  0.73669  1.0000
  H   H3775     1.0  0.84055  0.60742  0.70521  1.0000
  H   H3776     1.0  0.84946  0.65320  0.68838  1.0000
  H   H3777     1.0  0.74016  0.51267  0.91131  1.0000
  C   C2223     1.0  0.88247  0.69846  0.72685  1.0000
  H   H3778     1.0  0.97724  0.70691  0.65913  1.0000
  H   H3779     1.0  0.65672  0.69920  0.96385  1.0000
  C   C2224     1.0  0.53065  0.71128  0.88519  1.0000
  S   S645      1.0  0.72334  0.58579  0.89356  1.0000
  H   H3780     1.0  0.98142  0.73308  0.69339  1.0000
  C   C2225     1.0  0.79128  0.60307  0.89854  1.0000
  C   C2226     1.0  0.55899  0.70950  0.89958  1.0000
  H   H3781     1.0  0.60715  0.68174  0.88287  1.0000
  C   C2227     1.0  0.93820  0.53673  0.77422  1.0000
  H   H3782     1.0  0.63683  0.64886  0.85837  1.0000
  H   H3783     1.0  0.94643  0.59681  0.71417  1.0000
  C   C2228     1.0  0.63854  0.69836  0.93512  1.0000
  H   H3784     1.0  0.68802  0.69102  0.95693  1.0000
  S   S646      1.0  0.75587  0.64177  0.96168  1.0000
  H   H3785     1.0  0.79385  0.59130  0.90915  1.0000
  C   C2229     1.0  0.79275  0.61928  0.90389  1.0000
  H   H3786     1.0  0.96060  0.72424  0.68489  1.0000
  H   H3787     1.0  0.79450  0.53413  0.87031  1.0000
  H   H3788     1.0  0.87430  0.59270  0.67988  1.0000
  C   C2230     1.0  0.96313  0.57881  0.77154  1.0000
  C   C2231     1.0  0.92686  0.62901  0.76715  1.0000
  H   H3789     1.0  0.64755  0.67363  0.82082  1.0000
  H   H3790     1.0  0.63721  0.68729  0.86966  1.0000
  H   H3791     1.0  0.87479  0.68843  0.73501  1.0000
  H   H3792     1.0  0.73091  0.53425  0.95790  1.0000
  C   C2232     1.0  0.89081  0.71738  0.68433  1.0000
  C   C2233     1.0  0.98637  0.71972  0.70103  1.0000
  H   H3793     1.0  0.90239  0.66297  0.67115  1.0000
  C   C2234     1.0  0.69306  0.69216  0.94267  1.0000
  H   H3794     1.0  0.67647  0.64676  0.84185  1.0000
  C   C2235     1.0  0.90738  0.70266  0.68664  1.0000
  H   H3795     1.0  0.89611  0.54145  0.75511  1.0000
  C   C2236     1.0  0.77579  0.51023  0.89258  1.0000
  H   H3796     1.0  0.90193  0.55406  0.78393  1.0000
  C   C2237     1.0  0.54745  0.71214  0.87439  1.0000
  H   H3797     1.0  0.70733  0.69238  0.93975  1.0000
  H   H3798     1.0  0.56471  0.72389  0.96919  1.0000
  H   H3799     1.0  0.95059  0.53128  0.77918  1.0000
  H   H3800     1.0  0.84196  0.69323  0.69637  1.0000
  H   H3801     1.0  0.88877  0.65298  0.70238  1.0000
  C   C2238     1.0  0.63710  0.67879  0.83144  1.0000
  H   H3802     1.0  0.67173  0.70426  0.83623  1.0000
  H   H3803     1.0  0.79705  0.55250  0.87654  1.0000
  C   C2239     1.0  0.83830  0.64815  0.66175  1.0000
  H   H3804     1.0  0.94221  0.53947  0.75976  1.0000
  H   H3805     1.0  0.96163  0.57055  0.72560  1.0000
  H   H3806     1.0  0.73967  0.57442  0.96259  1.0000
  H   H3807     1.0  0.97915  0.71945  0.71484  1.0000
  H   H3808     1.0  0.78284  0.61999  0.91641  1.0000
  C   C2240     1.0  0.63048  0.68344  0.86161  1.0000
  Fe  Fe322     1.0  0.63461  0.72269  0.88337  1.0000
  Fe  Fe323     1.0  0.74469  0.59471  0.89924  1.0000
  H   H3809     1.0  0.95831  0.61427  0.70878  1.0000
  N   N156      1.0  0.77431  0.52091  0.90549  1.0000
  H   H3810     1.0  0.76973  0.49867  0.92678  1.0000
  H   H3811     1.0  0.88819  0.51085  0.80858  1.0000
  H   H3812     1.0  0.78505  0.64192  0.92627  1.0000
  H   H3813     1.0  0.87510  0.55416  0.77412  1.0000
  C   C2241     1.0  0.89763  0.50271  0.79967  1.0000
  C   C2242     1.0  0.84787  0.64005  0.69659  1.0000
  H   H3814     1.0  0.92540  0.51907  0.79563  1.0000
  C   C2243     1.0  0.74466  0.61715  0.93077  1.0000
  H   H3815     1.0  0.65992  0.72739  0.91091  1.0000
  S   S647      1.0  0.75392  0.58381  0.92464  1.0000
  Fe  Fe324     1.0  0.98697  0.65687  0.75622  1.0000
  H   H3816     1.0  0.62236  0.65790  0.83708  1.0000
  H   H3817     1.0  0.70086  0.56198  0.95937  1.0000
  H   H3818     1.0  0.82611  0.65223  0.71503  1.0000
  C   C2244     1.0  0.78731  0.53280  0.89873  1.0000
  C   C2245     1.0  0.86298  0.69250  0.67324  1.0000
  H   H3819     1.0  0.73663  0.62065  0.92126  1.0000
  H   H3820     1.0  0.74105  0.55200  0.94776  1.0000
  C   C2246     1.0  0.75584  0.53223  0.90848  1.0000
  C   C2247     1.0  0.78850  0.54296  0.87957  1.0000
  H   H3821     1.0  0.82597  0.62997  0.71674  1.0000
  H   H3822     1.0  0.75253  0.54007  0.89582  1.0000
  H   H3823     1.0  0.82921  0.64873  0.65348  1.0000
  C   C2248     1.0  0.92125  0.52677  0.74458  1.0000
  H   H3824     1.0  0.76252  0.52427  0.94149  1.0000
  C   C2249     1.0  0.84149  0.62962  0.67367  1.0000
  C   C2250     1.0  0.89703  0.54170  0.78793  1.0000
  H   H3825     1.0  0.82838  0.62685  0.68128  1.0000
  H   H3826     1.0  0.64552  0.68165  0.89838  1.0000
  H   H3827     1.0  0.85582  0.70363  0.66519  1.0000
  H   H3828     1.0  0.76762  0.65630  0.91564  1.0000
  C   C2251     1.0  0.95195  0.63868  0.76928  1.0000
  N   N157      1.0  0.96984  0.58649  0.73781  1.0000
  H   H3829     1.0  0.66335  0.68450  0.94152  1.0000
  Fe  Fe325     1.0  0.59799  0.72405  0.87954  1.0000
  C   C2252     1.0  0.75411  0.59990  0.93518  1.0000
  C   C2253     1.0  0.65861  0.70122  0.83817  1.0000
  C   C2254     1.0  0.94657  0.65499  0.75860  1.0000
  H   H3830     1.0  0.94175  0.59690  0.74621  1.0000
  C   C2255     1.0  0.67073  0.68694  0.88320  1.0000
  C   C2256     1.0  0.96358  0.71088  0.69339  1.0000
  H   H3831     1.0  0.75054  0.66035  0.87745  1.0000
  H   H3832     1.0  0.62429  0.66239  0.88458  1.0000
  H   H3833     1.0  0.69755  0.68767  0.86901  1.0000
  C   C2257     1.0  0.94841  0.60756  0.71877  1.0000
  C   C2258     1.0  0.65570  0.72882  0.92476  1.0000
  C   C2259     1.0  0.98897  0.69804  0.66390  1.0000
  N   N158      1.0  0.66333  0.71221  0.93660  1.0000
  N   N159      1.0  0.79008  0.63644  0.89063  1.0000
  H   H3834     1.0  0.76493  0.66975  0.88330  1.0000
  H   H3835     1.0  0.79773  0.62836  0.86580  1.0000
  H   H3836     1.0  0.93659  0.71397  0.70883  1.0000
  C   C2260     1.0  0.66067  0.68107  0.84344  1.0000
  H   H3837     1.0  0.76187  0.63929  0.90128  1.0000
  C   C2261     1.0  0.76398  0.60805  0.95681  1.0000
  H   H3838     1.0  0.66056  0.64583  0.83025  1.0000
  H   H3839     1.0  0.78470  0.66465  0.91829  1.0000
  H   H3840     1.0  0.96314  0.56474  0.77367  1.0000
  H   H3841     1.0  0.91331  0.55066  0.75467  1.0000
  N   N160      1.0  0.98286  0.70580  0.69426  1.0000
  H   H3842     1.0  0.96020  0.48673  0.72677  1.0000
  H   H3843     1.0  0.53598  0.70908  0.96406  1.0000
  H   H3844     1.0  0.89073  0.60688  0.68823  1.0000
  H   H3845     1.0  0.98035  0.66299  0.71657  1.0000
  H   H3846     1.0  0.87032  0.55661  0.79598  1.0000
  H   H3847     1.0  0.86644  0.70374  0.70824  1.0000
  C   C2262     1.0  0.88736  0.62139  0.68432  1.0000
  H   H3848     1.0  0.88444  0.62683  0.69604  1.0000
  H   H3849     1.0  0.98182  0.68926  0.72047  1.0000
  C   C2263     1.0  0.76383  0.59539  0.94820  1.0000
  H   H3850     1.0  0.71604  0.57175  0.94094  1.0000
  C   C2264     1.0  0.80316  0.63397  0.87363  1.0000
  H   H3851     1.0  0.85954  0.71832  0.72255  1.0000
  N   N161      1.0  0.88036  0.72495  0.69997  1.0000
  H   H3852     1.0  0.54941  0.71363  0.86045  1.0000
  H   H3853     1.0  0.63675  0.68594  0.93340  1.0000
  H   H3854     1.0  0.91489  0.70436  0.69523  1.0000
  H   H3855     1.0  0.89474  0.72776  0.67280  1.0000
  H   H3856     1.0  0.55541  0.69521  0.97201  1.0000
  H   H3857     1.0  0.90381  0.68963  0.69152  1.0000
  S   S648      1.0  0.89076  0.69174  0.64443  1.0000
  H   H3858     1.0  0.95079  0.72085  0.71753  1.0000
  C   C2265     1.0  0.55053  0.72325  0.97270  1.0000
  H   H3859     1.0  0.76538  0.54728  0.95672  1.0000
  H   H3860     1.0  0.71643  0.57873  0.96904  1.0000
  H   H3861     1.0  0.64100  0.73141  0.92807  1.0000
  C   C2266     1.0  0.66327  0.72305  0.96390  1.0000
  H   H3862     1.0  0.98461  0.55049  0.75272  1.0000
  H   H3863     1.0  0.98640  0.68479  0.66989  1.0000
  H   H3864     1.0  0.89173  0.49154  0.80069  1.0000
  H   H3865     1.0  0.67298  0.73052  0.95491  1.0000
  H   H3866     1.0  0.99132  0.55287  0.72928  1.0000
  H   H3867     1.0  0.99373  0.66562  0.69473  1.0000
  S   S649      1.0  0.96850  0.48584  0.78412  1.0000
  H   H3868     1.0  0.99439  0.62344  0.82357  1.0000
  H   H3869     1.0  0.76436  0.55678  0.97455  1.0000
  C   C2267     1.0  0.76329  0.54495  0.97108  1.0000
  C   C2268     1.0  0.89156  0.73195  0.70728  1.0000
  H   H3870     1.0  0.77437  0.53424  0.97512  1.0000
  N   N162      1.0  0.72916  0.55118  0.97512  1.0000
  H   H3871     1.0  0.99203  0.60141  0.83481  1.0000
  C   C2269     1.0  0.99107  0.60702  0.71978  1.0000
  H   H3872     1.0  0.65235  0.73272  0.97011  1.0000
  H   H3873     1.0  0.59957  0.72395  0.97520  1.0000
  S   S650      1.0  0.88165  0.48413  0.72919  1.0000
  H   H3874     1.0  0.66953  0.71402  0.97458  1.0000
  H   H3875     1.0  0.82198  0.77668  0.28961  1.0000
  H   H3876     1.0  0.78770  0.79997  0.16907  1.0000
  H   H3877     1.0  0.58321  0.76400  0.07928  1.0000
  H   H3878     1.0  0.60209  0.88386  0.13743  1.0000
  H   H3879     1.0  0.72277  0.91833  0.30378  1.0000
  H   H3880     1.0  0.79150  0.77228  0.26688  1.0000
  S   S651      1.0  0.62660  0.74245  0.04898  1.0000
  C   C2270     1.0  0.76815  0.90792  0.20137  1.0000
  S   S652      1.0  0.60235  0.76619  0.02055  1.0000
  H   H3881     1.0  0.61141  0.91213  0.07765  1.0000
  C   C2271     1.0  0.51166  0.86150  0.03247  1.0000
  S   S653      1.0  0.64360  0.76910  0.01365  1.0000
  Fe  Fe326     1.0  0.61952  0.77073  0.03551  1.0000
  S   S654      1.0  0.60806  0.79090  0.05221  1.0000
  Fe  Fe327     1.0  0.62712  0.76158  0.99999  1.0000
  H   H3882     1.0  0.68114  0.94891  0.25606  1.0000
  S   S655      1.0  0.86930  0.74212  0.21515  1.0000
  C   C2272     1.0  0.92095  0.77909  0.20482  1.0000
  C   C2273     1.0  0.55796  0.79422  0.06839  1.0000
  Fe  Fe328     1.0  0.62438  0.84320  0.12731  1.0000
  S   S656      1.0  0.63262  0.85107  0.09821  1.0000
  C   C2274     1.0  0.78038  0.85554  0.28783  1.0000
  Fe  Fe329     1.0  0.66211  0.83414  0.13256  1.0000
  S   S657      1.0  0.67360  0.84111  0.10375  1.0000
  S   S658      1.0  0.51030  0.75207  0.04813  1.0000
  Fe  Fe330     1.0  0.65078  0.86435  0.10353  1.0000
  S   S659      1.0  0.65227  0.89163  0.08810  1.0000
  Fe  Fe331     1.0  0.65452  0.82710  0.10080  1.0000
  S   S660      1.0  0.66374  0.81030  0.08078  1.0000
  S   S661      1.0  0.64065  0.85864  0.13255  1.0000
  S   S662      1.0  0.64486  0.81794  0.12974  1.0000
  S   S663      1.0  0.66972  0.93409  0.13241  1.0000
  C   C2275     1.0  0.65902  0.90305  0.09943  1.0000
  C   C2276     1.0  0.66519  0.89436  0.11466  1.0000
  C   C2277     1.0  0.66882  0.90398  0.12455  1.0000
  C   C2278     1.0  0.66640  0.92225  0.11915  1.0000
  C   C2279     1.0  0.66074  0.93085  0.10363  1.0000
  C   C2280     1.0  0.65701  0.92124  0.09382  1.0000
  H   H3883     1.0  0.66718  0.88026  0.11884  1.0000
  H   H3884     1.0  0.67346  0.89725  0.13641  1.0000
  H   H3885     1.0  0.65911  0.94489  0.09926  1.0000
  H   H3886     1.0  0.65203  0.92790  0.08221  1.0000
  H   H3887     1.0  0.53498  0.76917  0.10402  1.0000
  C   C2281     1.0  0.56199  0.79818  0.04823  1.0000
  H   H3888     1.0  0.55047  0.80672  0.07245  1.0000
  H   H3889     1.0  0.72824  0.93635  0.28725  1.0000
  H   H3890     1.0  0.66891  0.86060  0.15033  1.0000
  C   C2282     1.0  0.55796  0.76218  0.07363  1.0000
  C   C2283     1.0  0.54319  0.77900  0.09693  1.0000
  C   C2284     1.0  0.62333  0.79732  0.05951  1.0000
  C   C2285     1.0  0.64042  0.79774  0.04946  1.0000
  C   C2286     1.0  0.65254  0.80241  0.05584  1.0000
  C   C2287     1.0  0.64756  0.80687  0.07219  1.0000
  C   C2288     1.0  0.63023  0.80712  0.08195  1.0000
  C   C2289     1.0  0.61818  0.80226  0.07562  1.0000
  H   H3891     1.0  0.64440  0.79423  0.03688  1.0000
  H   H3892     1.0  0.66588  0.80238  0.04818  1.0000
  H   H3893     1.0  0.62632  0.81046  0.09460  1.0000
  H   H3894     1.0  0.60491  0.80206  0.08329  1.0000
  H   H3895     1.0  0.55248  0.75142  0.08362  1.0000
  H   H3896     1.0  0.53122  0.91853  0.05601  1.0000
  H   H3897     1.0  0.68831  0.76917  0.09862  1.0000
  C   C2290     1.0  0.54568  0.75246  0.03453  1.0000
  H   H3898     1.0  0.55003  0.80585  0.04317  1.0000
  H   H3899     1.0  0.92069  0.76488  0.20852  1.0000
  C   C2291     1.0  0.54348  0.73834  0.99629  1.0000
  C   C2292     1.0  0.73212  0.86826  0.30856  1.0000
  Fe  Fe332     1.0  0.55507  0.95055  0.08064  1.0000
  H   H3900     1.0  0.57208  0.80636  0.04292  1.0000
  H   H3901     1.0  0.84153  0.87087  0.29417  1.0000
  H   H3902     1.0  0.80628  0.89468  0.17293  1.0000
  H   H3903     1.0  0.58265  0.74322  0.07658  1.0000
  H   H3904     1.0  0.57570  0.94797  0.13770  1.0000
  H   H3905     1.0  0.90137  0.74568  0.11141  1.0000
  H   H3906     1.0  0.63079  0.91662  0.14204  1.0000
  H   H3907     1.0  0.81104  0.81772  0.20049  1.0000
  C   C2293     1.0  0.92824  0.81638  0.20179  1.0000
  H   H3908     1.0  0.56553  0.75993  0.10675  1.0000
  H   H3909     1.0  0.60542  0.82015  0.12172  1.0000
  H   H3910     1.0  0.67464  0.87905  0.16671  1.0000
  H   H3911     1.0  0.53524  0.74961  0.98868  1.0000
  H   H3912     1.0  0.81802  0.79477  0.16461  1.0000
  H   H3913     1.0  0.66405  0.79563  0.19795  1.0000
  H   H3914     1.0  0.58504  0.78531  0.98198  1.0000
  H   H3915     1.0  0.50075  0.84095  0.05199  1.0000
  H   H3916     1.0  0.80196  0.79708  0.24841  1.0000
  C   C2294     1.0  0.50945  0.90100  0.11603  1.0000
  H   H3917     1.0  0.77264  0.76834  0.16493  1.0000
  H   H3918     1.0  0.80993  0.76248  0.27650  1.0000
  H   H3919     1.0  0.55605  0.76126  0.06101  1.0000
  H   H3920     1.0  0.53498  0.79187  0.09968  1.0000
  H   H3921     1.0  0.61152  0.90855  0.15398  1.0000
  C   C2295     1.0  0.68486  0.83677  0.16242  1.0000
  H   H3922     1.0  0.83505  0.77755  0.15702  1.0000
  H   H3923     1.0  0.62652  0.89895  0.12503  1.0000
  C   C2296     1.0  0.61695  0.91182  0.12522  1.0000
  S   S664      1.0  0.59559  0.84757  0.14085  1.0000
  S   S665      1.0  0.52333  0.86409  0.09096  1.0000
  H   H3924     1.0  0.65514  0.93910  0.27665  1.0000
  Fe  Fe333     1.0  0.49789  0.86881  0.11062  1.0000
  H   H3925     1.0  0.85019  0.74777  0.27816  1.0000
  H   H3926     1.0  0.57666  0.92907  0.11449  1.0000
  C   C2297     1.0  0.51745  0.77318  0.08029  1.0000
  H   H3927     1.0  0.59851  0.93031  0.08693  1.0000
  C   C2298     1.0  0.50551  0.84590  0.03821  1.0000
  C   C2299     1.0  0.78525  0.75837  0.19294  1.0000
  C   C2300     1.0  0.67737  0.85475  0.15958  1.0000
  C   C2301     1.0  0.58674  0.92848  0.12164  1.0000
  H   H3928     1.0  0.81889  0.75568  0.17132  1.0000
  H   H3929     1.0  0.95511  0.74134  0.30138  1.0000
  H   H3930     1.0  0.79269  0.85458  0.23421  1.0000
  H   H3931     1.0  0.55832  0.85602  0.14110  1.0000
  C   C2302     1.0  0.78054  0.89774  0.19023  1.0000
  C   C2303     1.0  0.68058  0.86520  0.16896  1.0000
  H   H3932     1.0  0.79816  0.94130  0.12946  1.0000
  N   N163      1.0  0.67321  0.74632  0.07697  1.0000
  H   H3933     1.0  0.66430  0.95472  0.03319  1.0000
  H   H3934     1.0  0.49688  0.97158  0.08841  1.0000
  H   H3935     1.0  0.76921  0.95708  0.17001  1.0000
  Fe  Fe334     1.0  0.50698  0.85971  0.07526  1.0000
  H   H3936     1.0  0.95373  0.79581  0.22715  1.0000
  C   C2304     1.0  0.78634  0.77064  0.16118  1.0000
  H   H3937     1.0  0.51071  0.77516  0.09366  1.0000
  H   H3938     1.0  0.61145  0.74158  0.98761  1.0000
  C   C2305     1.0  0.68273  0.94103  0.26934  1.0000
  Fe  Fe335     1.0  0.50136  0.77808  0.98681  1.0000
  C   C2306     1.0  0.80356  0.92378  0.29651  1.0000
  C   C2307     1.0  0.97454  0.75114  0.27977  1.0000
  C   C2308     1.0  0.81114  0.78867  0.28924  1.0000
  H   H3939     1.0  0.89631  0.76950  0.23313  1.0000
  H   H3940     1.0  0.72406  0.94875  0.26197  1.0000
  S   S666      1.0  0.86888  0.75863  0.30113  1.0000
  H   H3941     1.0  0.71180  0.92255  0.24961  1.0000
  H   H3942     1.0  0.58517  0.76037  0.05797  1.0000
  H   H3943     1.0  0.74185  0.95780  0.12078  1.0000
  H   H3944     1.0  0.49553  0.92781  0.10881  1.0000
  H   H3945     1.0  0.68925  0.93492  0.30240  1.0000
  H   H3946     1.0  0.55871  0.78109  0.97638  1.0000
  H   H3947     1.0  0.92799  0.82843  0.20581  1.0000
  H   H3948     1.0  0.77625  0.79974  0.29417  1.0000
  H   H3949     1.0  0.66292  0.75883  0.09909  1.0000
  C   C2309     1.0  0.51787  0.92736  0.05703  1.0000
  N   N164      1.0  0.75457  0.95526  0.15208  1.0000
  C   C2310     1.0  0.75112  0.93794  0.16362  1.0000
  C   C2311     1.0  0.76979  0.95150  0.13696  1.0000
  S   S667      1.0  0.50069  0.84080  0.12527  1.0000
  C   C2312     1.0  0.56189  0.74246  0.99257  1.0000
  C   C2313     1.0  0.73443  0.93882  0.17861  1.0000
  C   C2314     1.0  0.65976  0.95783  0.04638  1.0000
  H   H3950     1.0  0.52219  0.88007  0.01014  1.0000
  H   H3951     1.0  0.79068  0.88411  0.28767  1.0000
  H   H3952     1.0  0.75028  0.92904  0.15586  1.0000
  H   H3953     1.0  0.76248  0.93076  0.16982  1.0000
  H   H3954     1.0  0.77064  0.96335  0.12617  1.0000
  H   H3955     1.0  0.76761  0.94183  0.13089  1.0000
  C   C2315     1.0  0.69057  0.75888  0.09120  1.0000
  H   H3956     1.0  0.65692  0.74429  0.06070  1.0000
  H   H3957     1.0  0.81585  0.78551  0.14773  1.0000
  C   C2316     1.0  0.93098  0.78226  0.18552  1.0000
  H   H3958     1.0  0.73372  0.92525  0.18615  1.0000
  H   H3959     1.0  0.80289  0.78692  0.30280  1.0000
  H   H3960     1.0  0.72207  0.94441  0.17372  1.0000
  H   H3961     1.0  0.94412  0.77309  0.18367  1.0000
  Fe  Fe336     1.0  0.50203  0.77198  0.02499  1.0000
  H   H3962     1.0  0.76681  0.79366  0.26864  1.0000
  C   C2317     1.0  0.73236  0.95806  0.13356  1.0000
  H   H3963     1.0  0.88958  0.75769  0.12799  1.0000
  H   H3964     1.0  0.83643  0.79276  0.24093  1.0000
  H   H3965     1.0  0.89242  0.73637  0.27312  1.0000
  C   C2318     1.0  0.71720  0.93208  0.29762  1.0000
  C   C2319     1.0  0.79646  0.86748  0.23012  1.0000
  C   C2320     1.0  0.82047  0.78251  0.16001  1.0000
  H   H3966     1.0  0.62298  0.92147  0.11427  1.0000
  C   C2321     1.0  0.95746  0.78189  0.22615  1.0000
  C   C2322     1.0  0.53086  0.78505  0.07123  1.0000
  C   C2323     1.0  0.78790  0.92800  0.19442  1.0000
  C   C2324     1.0  0.69597  0.82943  0.17436  1.0000
  H   H3967     1.0  0.56308  0.89936  0.06175  1.0000
  H   H3968     1.0  0.59371  0.86527  0.10085  1.0000
  H   H3969     1.0  0.63684  0.79840  0.19177  1.0000
  S   S668      1.0  0.67919  0.82281  0.15270  1.0000
  N   N165      1.0  0.54794  0.77984  0.07754  1.0000
  C   C2325     1.0  0.62796  0.95863  0.05347  1.0000
  H   H3970     1.0  0.64308  0.93609  0.04128  1.0000
  H   H3971     1.0  0.53356  0.78518  0.05706  1.0000
  H   H3972     1.0  0.81288  0.92107  0.17685  1.0000
  S   S669      1.0  0.74378  0.84791  0.19769  1.0000
  N   N166      1.0  0.80037  0.79018  0.27624  1.0000
  C   C2326     1.0  0.69149  0.85785  0.18109  1.0000
  H   H3973     1.0  0.55159  0.88683  0.05604  1.0000
  Fe  Fe337     1.0  0.61120  0.73778  0.03235  1.0000
  C   C2327     1.0  0.68814  0.92768  0.20816  1.0000
  H   H3974     1.0  0.81534  0.76827  0.18670  1.0000
  H   H3975     1.0  0.55749  0.88038  0.07693  1.0000
  H   H3976     1.0  0.52381  0.79866  0.07251  1.0000
  C   C2328     1.0  0.81292  0.79008  0.21159  1.0000
  C   C2329     1.0  0.64910  0.82214  0.20084  1.0000
  H   H3977     1.0  0.81061  0.76360  0.22469  1.0000
  H   H3978     1.0  0.62145  0.86269  0.19569  1.0000
  N   N167      1.0  0.58705  0.85706  0.06337  1.0000
  C   C2330     1.0  0.60022  0.84720  0.05025  1.0000
  C   C2331     1.0  0.57277  0.84677  0.07203  1.0000
  C   C2332     1.0  0.59648  0.85716  0.07689  1.0000
  C   C2333     1.0  0.58015  0.87550  0.05389  1.0000
  C   C2334     1.0  0.61771  0.85346  0.04169  1.0000
  C   C2335     1.0  0.56229  0.84477  0.05978  1.0000
  C   C2336     1.0  0.58565  0.86728  0.09116  1.0000
  C   C2337     1.0  0.56212  0.88569  0.06288  1.0000
  H   H3979     1.0  0.60393  0.83302  0.05631  1.0000
  H   H3980     1.0  0.59427  0.84775  0.03930  1.0000
  H   H3981     1.0  0.56298  0.85225  0.08272  1.0000
  H   H3982     1.0  0.57861  0.83325  0.07865  1.0000
  H   H3983     1.0  0.60182  0.84344  0.08351  1.0000
  H   H3984     1.0  0.60807  0.86333  0.07076  1.0000
  H   H3985     1.0  0.59006  0.88366  0.05115  1.0000
  H   H3986     1.0  0.57851  0.87537  0.04083  1.0000
  H   H3987     1.0  0.62471  0.84724  0.03041  1.0000
  H   H3988     1.0  0.61550  0.86787  0.03672  1.0000
  H   H3989     1.0  0.62680  0.84910  0.05085  1.0000
  H   H3990     1.0  0.55084  0.83900  0.06782  1.0000
  H   H3991     1.0  0.55692  0.85749  0.05162  1.0000
  H   H3992     1.0  0.57046  0.83556  0.05133  1.0000
  H   H3993     1.0  0.57349  0.86258  0.09848  1.0000
  H   H3994     1.0  0.58248  0.88163  0.08573  1.0000
  C   C2338     1.0  0.58308  0.83888  0.13222  1.0000
  H   H3995     1.0  0.58765  0.80817  0.10939  1.0000
  C   C2339     1.0  0.60897  0.91822  0.08893  1.0000
  H   H3996     1.0  0.81396  0.87854  0.28040  1.0000
  C   C2340     1.0  0.59133  0.82549  0.12312  1.0000
  S   S670      1.0  0.99251  0.75020  0.19584  1.0000
  H   H3997     1.0  0.70177  0.81550  0.17668  1.0000
  C   C2341     1.0  0.56478  0.84562  0.13412  1.0000
  H   H3998     1.0  0.71213  0.96646  0.28799  1.0000
  C   C2342     1.0  0.79831  0.75687  0.15062  1.0000
  C   C2343     1.0  0.79663  0.90255  0.18149  1.0000
  H   H3999     1.0  0.61331  0.89244  0.10599  1.0000
  H   H4000     1.0  0.66433  0.93578  0.29508  1.0000
  H   H4001     1.0  0.89400  0.78816  0.24230  1.0000
  C   C2344     1.0  0.69936  0.83994  0.18361  1.0000
  C   C2345     1.0  0.50569  0.91952  0.05117  1.0000
  H   H4002     1.0  0.73360  0.84451  0.27287  1.0000
  H   H4003     1.0  0.81137  0.81017  0.25520  1.0000
  H   H4004     1.0  0.70775  0.83412  0.19295  1.0000
  C   C2346     1.0  0.60309  0.90496  0.10588  1.0000
  C   C2347     1.0  0.50832  0.91898  0.10923  1.0000
  H   H4005     1.0  0.70104  0.76188  0.07940  1.0000
  C   C2348     1.0  0.80036  0.91748  0.18371  1.0000
  H   H4006     1.0  0.57352  0.75163  0.02381  1.0000
  H   H4007     1.0  0.49856  0.94542  0.02557  1.0000
  H   H4008     1.0  0.60989  0.93123  0.14151  1.0000
  C   C2349     1.0  0.82815  0.78467  0.25160  1.0000
  C   C2350     1.0  0.76400  0.98295  0.15286  1.0000
  H   H4009     1.0  0.55334  0.77535  0.11992  1.0000
  H   H4010     1.0  0.77885  0.82596  0.21252  1.0000
  C   C2351     1.0  0.58130  0.81877  0.11607  1.0000
  C   C2352     1.0  0.78546  0.78189  0.22902  1.0000
  H   H4011     1.0  0.54078  0.84464  0.12784  1.0000
  H   H4012     1.0  0.54144  0.76458  0.02565  1.0000
  S   S671      1.0  0.77643  0.87914  0.18652  1.0000
  C   C2353     1.0  0.80397  0.80770  0.20857  1.0000
  S   S672      1.0  0.83539  0.78461  0.20157  1.0000
  C   C2354     1.0  0.51718  0.85900  0.00246  1.0000
  C   C2355     1.0  0.67477  0.96408  0.04956  1.0000
  H   H4013     1.0  0.94616  0.73988  0.17390  1.0000
  S   S673      1.0  0.69403  0.87121  0.19359  1.0000
  H   H4014     1.0  0.92552  0.77703  0.24591  1.0000
  S   S674      1.0  0.55278  0.95778  0.05274  1.0000
  H   H4015     1.0  0.92333  0.77948  0.17757  1.0000
  H   H4016     1.0  0.59117  0.90200  0.10412  1.0000
  H   H4017     1.0  0.57671  0.88539  0.12658  1.0000
  H   H4018     1.0  0.77276  0.91468  0.29638  1.0000
  Fe  Fe338     1.0  0.84735  0.75620  0.20125  1.0000
  S   S675      1.0  0.79314  0.94707  0.19595  1.0000
  C   C2356     1.0  0.63807  0.97920  0.06286  1.0000
  C   C2357     1.0  0.59225  0.89662  0.13725  1.0000
  Fe  Fe339     1.0  0.71652  0.86275  0.20787  1.0000
  C   C2358     1.0  0.61688  0.91735  0.14178  1.0000
  H   H4019     1.0  0.56878  0.88557  0.14909  1.0000
  C   C2359     1.0  0.57457  0.89337  0.13629  1.0000
  H   H4020     1.0  0.75568  0.90425  0.20818  1.0000
  C   C2360     1.0  0.81181  0.76861  0.17435  1.0000
  H   H4021     1.0  0.59831  0.81269  0.22574  1.0000
  H   H4022     1.0  0.57142  0.80646  0.97609  1.0000
  N   N168      1.0  0.59941  0.91078  0.12283  1.0000
  H   H4023     1.0  0.62150  0.92164  0.08832  1.0000
  H   H4024     1.0  0.82969  0.92761  0.29676  1.0000
  H   H4025     1.0  0.77058  0.76054  0.19567  1.0000
  H   H4026     1.0  0.78843  0.76006  0.20471  1.0000
  H   H4027     1.0  0.69536  0.74613  0.09966  1.0000
  C   C2361     1.0  0.73858  0.96618  0.14508  1.0000
  C   C2362     1.0  0.75877  0.96527  0.16283  1.0000
  C   C2363     1.0  0.56311  0.82581  0.11751  1.0000
  C   C2364     1.0  0.55484  0.83925  0.12655  1.0000
  C   C2365     1.0  0.63514  0.81172  0.18323  1.0000
  H   H4028     1.0  0.80529  0.89157  0.24833  1.0000
  H   H4029     1.0  0.90692  0.78621  0.20512  1.0000
  S   S676      1.0  0.51060  0.83078  0.08651  1.0000
  N   N169      1.0  0.79199  0.77150  0.17700  1.0000
  C   C2366     1.0  0.77641  0.79948  0.22549  1.0000
  H   H4030     1.0  0.78510  0.75123  0.29533  1.0000
  H   H4031     1.0  0.91961  0.82005  0.19227  1.0000
  H   H4032     1.0  0.75943  0.80880  0.18629  1.0000
  C   C2367     1.0  0.78573  0.81238  0.21541  1.0000
  H   H4033     1.0  0.57076  0.79156  0.07219  1.0000
  C   C2368     1.0  0.79203  0.73885  0.19228  1.0000
  H   H4034     1.0  0.65370  0.76536  0.06393  1.0000
  C   C2369     1.0  0.80371  0.77718  0.22204  1.0000
  H   H4035     1.0  0.95422  0.78500  0.20033  1.0000
  H   H4036     1.0  0.68053  0.96442  0.29000  1.0000
  S   S677      1.0  0.86198  0.80823  0.29510  1.0000
  H   H4037     1.0  0.62749  0.75518  0.07931  1.0000
  H   H4038     1.0  0.61963  0.93849  0.04697  1.0000
  H   H4039     1.0  0.56754  0.74583  0.97840  1.0000
  S   S678      1.0  0.51020  0.83311  0.99226  1.0000
  H   H4040     1.0  0.64983  0.89321  0.18701  1.0000
  H   H4041     1.0  0.67888  0.93148  0.22006  1.0000
  H   H4042     1.0  0.67266  0.90902  0.21200  1.0000
  H   H4043     1.0  0.70121  0.91896  0.29052  1.0000
  H   H4044     1.0  0.77711  0.84241  0.29335  1.0000
  C   C2370     1.0  0.78401  0.78960  0.18074  1.0000
  C   C2371     1.0  0.85054  0.84322  0.29461  1.0000
  H   H4045     1.0  0.59385  0.93904  0.11365  1.0000
  C   C2372     1.0  0.65204  0.90227  0.19375  1.0000
  H   H4046     1.0  0.66719  0.80248  0.21551  1.0000
  C   C2373     1.0  0.80995  0.79640  0.25777  1.0000
  H   H4047     1.0  0.60686  0.81364  0.18444  1.0000
  H   H4048     1.0  0.63882  0.91009  0.19870  1.0000
  C   C2374     1.0  0.68033  0.91694  0.20053  1.0000
  H   H4049     1.0  0.80758  0.76300  0.13921  1.0000
  C   C2375     1.0  0.61627  0.82782  0.20642  1.0000
  H   H4050     1.0  0.64712  0.79587  0.21798  1.0000
  Fe  Fe340     1.0  0.75342  0.86814  0.20428  1.0000
  C   C2376     1.0  0.92151  0.80293  0.21812  1.0000
  H   H4051     1.0  0.68933  0.77392  0.05308  1.0000
  H   H4052     1.0  0.81759  0.94488  0.28185  1.0000
  H   H4053     1.0  0.59027  0.89912  0.15034  1.0000
  H   H4054     1.0  0.64652  0.93039  0.20914  1.0000
  N   N170      1.0  0.63329  0.82577  0.19280  1.0000
  H   H4055     1.0  0.80263  0.90026  0.27312  1.0000
  C   C2377     1.0  0.77174  0.92319  0.20327  1.0000
  C   C2378     1.0  0.66440  0.91382  0.18054  1.0000
  C   C2379     1.0  0.78497  0.94927  0.30918  1.0000
  C   C2380     1.0  0.78511  0.76496  0.29508  1.0000
  C   C2381     1.0  0.65188  0.93778  0.19587  1.0000
  H   H4056     1.0  0.70974  0.95428  0.24765  1.0000
  S   S679      1.0  0.55116  0.81801  0.10739  1.0000
  C   C2382     1.0  0.65704  0.80284  0.20852  1.0000
  C   C2383     1.0  0.66419  0.94365  0.28162  1.0000
  C   C2384     1.0  0.65215  0.95601  0.19781  1.0000
  H   H4057     1.0  0.64161  0.94042  0.18814  1.0000
  Fe  Fe341     1.0  0.52487  0.83578  0.10403  1.0000
  H   H4058     1.0  0.66889  0.77329  0.07901  1.0000
  H   H4059     1.0  0.74102  0.97917  0.13705  1.0000
  H   H4060     1.0  0.51954  0.94040  0.04870  1.0000
  H   H4061     1.0  0.65790  0.92057  0.16932  1.0000
  N   N171      1.0  0.66905  0.92697  0.18746  1.0000
  H   H4062     1.0  0.83018  0.80548  0.27449  1.0000
  C   C2385     1.0  0.67301  0.75977  0.08658  1.0000
  H   H4063     1.0  0.78662  0.73552  0.18284  1.0000
  H   H4064     1.0  0.93261  0.79590  0.18008  1.0000
  H   H4065     1.0  0.56463  0.90565  0.13323  1.0000
  H   H4066     1.0  0.67649  0.90458  0.17533  1.0000
  H   H4067     1.0  0.62903  0.95297  0.02816  1.0000
  H   H4068     1.0  0.67624  0.97725  0.04161  1.0000
  H   H4069     1.0  0.52358  0.75911  0.08064  1.0000
  H   H4070     1.0  0.78577  0.78352  0.15165  1.0000
  H   H4071     1.0  0.67020  0.94522  0.16247  1.0000
  H   H4072     1.0  0.60452  0.83351  0.20039  1.0000
  H   H4073     1.0  0.62226  0.80220  0.16875  1.0000
  H   H4074     1.0  0.68178  0.94923  0.17568  1.0000
  C   C2386     1.0  0.67878  0.93845  0.17202  1.0000
  C   C2387     1.0  0.73887  0.84154  0.29821  1.0000
  C   C2388     1.0  0.79700  0.96114  0.30917  1.0000
  H   H4075     1.0  0.74713  0.96852  0.17345  1.0000
  Fe  Fe342     1.0  0.72729  0.86783  0.23897  1.0000
  C   C2389     1.0  0.63929  0.74911  0.08515  1.0000
  H   H4076     1.0  0.70105  0.76117  0.03711  1.0000
  H   H4077     1.0  0.83582  0.77883  0.26192  1.0000
  Fe  Fe343     1.0  0.64960  0.74028  0.02607  1.0000
  H   H4078     1.0  0.95256  0.76426  0.21358  1.0000
  H   H4079     1.0  0.69144  0.90684  0.19517  1.0000
  C   C2390     1.0  0.69653  0.92908  0.16205  1.0000
  H   H4080     1.0  0.70631  0.92301  0.17042  1.0000
  H   H4081     1.0  0.76197  0.93120  0.21145  1.0000
  H   H4082     1.0  0.78569  0.81645  0.27864  1.0000
  S   S680      1.0  0.72635  0.88431  0.21201  1.0000
  H   H4083     1.0  0.69496  0.91913  0.15604  1.0000
  Fe  Fe344     1.0  0.74304  0.83430  0.22578  1.0000
  S   S681      1.0  0.75348  0.80518  0.23351  1.0000
  H   H4084     1.0  0.72145  0.89182  0.29146  1.0000
  C   C2391     1.0  0.61963  0.81360  0.17477  1.0000
  H   H4085     1.0  0.64744  0.81120  0.17273  1.0000
  H   H4086     1.0  0.64460  0.84141  0.16820  1.0000
  H   H4087     1.0  0.70207  0.93900  0.15104  1.0000
  C   C2392     1.0  0.63308  0.84290  0.17940  1.0000
  H   H4088     1.0  0.62109  0.84688  0.17379  1.0000
  H   H4089     1.0  0.81010  0.86593  0.23159  1.0000
  H   H4090     1.0  0.81097  0.86897  0.25822  1.0000
  H   H4091     1.0  0.77829  0.77191  0.23696  1.0000
  H   H4092     1.0  0.68756  0.95481  0.04604  1.0000
  C   C2393     1.0  0.92167  0.77319  0.23568  1.0000
  S   S682      1.0  0.75520  0.85315  0.23147  1.0000
  H   H4093     1.0  0.61840  0.82542  0.16406  1.0000
  C   C2394     1.0  0.63931  0.98242  0.03119  1.0000
  H   H4094     1.0  0.78989  0.75216  0.14502  1.0000
  N   N172      1.0  0.92823  0.78375  0.21770  1.0000
  S   S683      1.0  0.71490  0.84766  0.23577  1.0000
  H   H4095     1.0  0.66034  0.82695  0.19098  1.0000
  H   H4096     1.0  0.61714  0.79914  0.21566  1.0000
  C   C2395     1.0  0.73326  0.85117  0.28275  1.0000
  H   H4097     1.0  0.76945  0.88096  0.23841  1.0000
  H   H4098     1.0  0.62776  0.95051  0.06698  1.0000
  H   H4099     1.0  0.92788  0.75900  0.23660  1.0000
  H   H4100     1.0  0.58149  0.92659  0.15067  1.0000
  S   S684      1.0  0.68658  0.97709  0.10684  1.0000
  H   H4101     1.0  0.56211  0.93295  0.14150  1.0000
  C   C2396     1.0  0.57614  0.93388  0.13901  1.0000
  H   H4102     1.0  0.75491  0.89040  0.26451  1.0000
  H   H4103     1.0  0.52284  0.93920  0.09629  1.0000
  C   C2397     1.0  0.63356  0.85888  0.18584  1.0000
  H   H4104     1.0  0.79246  0.95347  0.14606  1.0000
  H   H4105     1.0  0.64550  0.85676  0.19103  1.0000
  C   C2398     1.0  0.69057  0.96406  0.27750  1.0000
  H   H4106     1.0  0.76734  0.85922  0.26690  1.0000
  H   H4107     1.0  0.78942  0.79135  0.19106  1.0000
  S   S685      1.0  0.53164  0.97113  0.08956  1.0000
  C   C2399     1.0  0.76363  0.79452  0.18647  1.0000
  C   C2400     1.0  0.52382  0.92547  0.10218  1.0000
  C   C2401     1.0  0.54146  0.89623  0.10986  1.0000
  H   H4108     1.0  0.76533  0.91539  0.24372  1.0000
  H   H4109     1.0  0.97338  0.76231  0.28565  1.0000
  H   H4110     1.0  0.55418  0.88740  0.11033  1.0000
  C   C2402     1.0  0.54041  0.91410  0.10243  1.0000
  H   H4111     1.0  0.75781  0.92055  0.26476  1.0000
  H   H4112     1.0  0.63415  0.87029  0.17453  1.0000
  C   C2403     1.0  0.61283  0.81132  0.22060  1.0000
  S   S686      1.0  0.55998  0.92184  0.09320  1.0000
  H   H4113     1.0  0.65802  0.89390  0.20480  1.0000
  H   H4114     1.0  0.66184  0.95547  0.20527  1.0000
  S   S687      1.0  0.75026  0.96417  0.27340  1.0000
  C   C2404     1.0  0.76821  0.91183  0.25693  1.0000
  C   C2405     1.0  0.76755  0.89250  0.26578  1.0000
  C   C2406     1.0  0.78280  0.88114  0.23976  1.0000
  H   H4115     1.0  0.78542  0.89413  0.23194  1.0000
  C   C2407     1.0  0.55871  0.77389  0.10618  1.0000
  C   C2408     1.0  0.52601  0.88966  0.11647  1.0000
  H   H4116     1.0  0.86106  0.84498  0.28309  1.0000
  H   H4117     1.0  0.52690  0.87579  0.12192  1.0000
  H   H4118     1.0  0.64602  0.82952  0.21131  1.0000
  H   H4119     1.0  0.79672  0.87194  0.21592  1.0000
  H   H4120     1.0  0.61573  0.83772  0.21368  1.0000
  S   S688      1.0  0.72009  0.88191  0.26101  1.0000
  H   H4121     1.0  0.67286  0.96397  0.06359  1.0000
  H   H4122     1.0  0.51260  0.91705  0.03796  1.0000
  H   H4123     1.0  0.78106  0.91489  0.25592  1.0000
  N   N173      1.0  0.78300  0.87899  0.25871  1.0000
  C   C2409     1.0  0.88939  0.74701  0.12208  1.0000
  H   H4124     1.0  0.75892  0.78774  0.20017  1.0000
  H   H4125     1.0  0.94216  0.81211  0.19518  1.0000
  C   C2410     1.0  0.94820  0.77848  0.21365  1.0000
  H   H4126     1.0  0.63892  0.96177  0.20512  1.0000
  H   H4127     1.0  0.76574  0.89119  0.27998  1.0000
  H   H4128     1.0  0.70068  0.91954  0.21183  1.0000
  H   H4129     1.0  0.75715  0.81444  0.27415  1.0000
  H   H4130     1.0  0.71368  0.94000  0.30767  1.0000
  H   H4131     1.0  0.61438  0.96690  0.05375  1.0000
  H   H4132     1.0  0.78866  0.93147  0.15126  1.0000
  S   S689      1.0  0.57500  0.96671  0.07651  1.0000
  H   H4133     1.0  0.73026  0.94469  0.14001  1.0000
  H   H4134     1.0  0.61914  0.80969  0.23159  1.0000
  H   H4135     1.0  0.76169  0.93651  0.29986  1.0000
  H   H4136     1.0  0.97200  0.77886  0.22092  1.0000
  H   H4137     1.0  0.50540  0.90618  0.05961  1.0000
  C   C2411     1.0  0.72697  0.86936  0.28027  1.0000
  H   H4138     1.0  0.65950  0.94494  0.05569  1.0000
  Fe  Fe345     1.0  0.77221  0.96666  0.20953  1.0000
  C   C2412     1.0  0.78015  0.86087  0.26825  1.0000
  H   H4139     1.0  0.72474  0.91630  0.26622  1.0000
  C   C2413     1.0  0.96858  0.73596  0.29450  1.0000
  C   C2414     1.0  0.68892  0.76308  0.04758  1.0000
  C   C2415     1.0  0.83949  0.85786  0.30087  1.0000
  C   C2416     1.0  0.90143  0.77459  0.24156  1.0000
  H   H4140     1.0  0.79372  0.85420  0.29002  1.0000
  H   H4141     1.0  0.80962  0.81699  0.28628  1.0000
  H   H4142     1.0  0.98855  0.74750  0.27317  1.0000
  C   C2417     1.0  0.50524  0.83682  0.02598  1.0000
  H   H4143     1.0  0.56739  0.78609  0.04305  1.0000
  H   H4144     1.0  0.73304  0.92723  0.24445  1.0000
  H   H4145     1.0  0.68378  0.97265  0.26693  1.0000
  S   S690      1.0  0.64558  0.97922  0.10546  1.0000
  H   H4146     1.0  0.65836  0.95767  0.28185  1.0000
  H   H4147     1.0  0.77031  0.86450  0.29547  1.0000
  C   C2418     1.0  0.70064  0.93257  0.29129  1.0000
  C   C2419     1.0  0.56386  0.74526  0.03364  1.0000
  S   S691      1.0  0.51177  0.87355  0.04713  1.0000
  C   C2420     1.0  0.78820  0.94404  0.14144  1.0000
  C   C2421     1.0  0.76988  0.80605  0.26883  1.0000
  H   H4148     1.0  0.69200  0.93942  0.19880  1.0000
  H   H4149     1.0  0.65447  0.96526  0.18492  1.0000
  Fe  Fe346     1.0  0.66473  0.96332  0.12229  1.0000
  H   H4150     1.0  0.79061  0.85061  0.26250  1.0000
  C   C2422     1.0  0.68850  0.74571  0.06137  1.0000
  H   H4151     1.0  0.63906  0.73505  0.09069  1.0000
  C   C2423     1.0  0.80158  0.88636  0.27618  1.0000
  C   C2424     1.0  0.72090  0.92657  0.25495  1.0000
  N   N174      1.0  0.69715  0.94555  0.27467  1.0000
  H   H4152     1.0  0.92388  0.80583  0.22971  1.0000
  C   C2425     1.0  0.82062  0.93065  0.28783  1.0000
  H   H4153     1.0  0.68623  0.92703  0.26838  1.0000
  C   C2426     1.0  0.72636  0.87783  0.29323  1.0000
  H   H4154     1.0  0.82661  0.77389  0.24665  1.0000
  C   C2427     1.0  0.80069  0.88122  0.25962  1.0000
  H   H4155     1.0  0.52162  0.86416  0.98864  1.0000
  H   H4156     1.0  0.89846  0.76640  0.25497  1.0000
  H   H4157     1.0  0.67751  0.76702  0.04117  1.0000
  H   H4158     1.0  0.80745  0.90917  0.29919  1.0000
  N   N175      1.0  0.64151  0.96983  0.04831  1.0000
  S   S692      1.0  0.51987  0.78275  0.00015  1.0000
  S   S693      1.0  0.74889  0.95824  0.22876  1.0000
  Fe  Fe347     1.0  0.73301  0.98274  0.21497  1.0000
  C   C2428     1.0  0.57827  0.75761  0.07190  1.0000
  H   H4159     1.0  0.87733  0.75136  0.11663  1.0000
  H   H4160     1.0  0.93858  0.74758  0.28136  1.0000
  S   S694      1.0  0.86261  0.74906  0.17584  1.0000
  H   H4161     1.0  0.96613  0.75613  0.27002  1.0000
  H   H4162     1.0  0.56830  0.78251  0.10033  1.0000
  C   C2429     1.0  0.53310  0.74395  0.04695  1.0000
  C   C2430     1.0  0.51747  0.86800  0.01461  1.0000
  C   C2431     1.0  0.63035  0.94592  0.04162  1.0000
  C   C2432     1.0  0.79716  0.77235  0.27782  1.0000
  H   H4163     1.0  0.63767  0.75587  0.09571  1.0000
  C   C2433     1.0  0.81952  0.80442  0.28650  1.0000
  H   H4164     1.0  0.64223  0.97514  0.02069  1.0000
  H   H4165     1.0  0.75692  0.79193  0.17763  1.0000
  H   H4166     1.0  0.90683  0.80654  0.22011  1.0000
  H   H4167     1.0  0.73488  0.94618  0.18797  1.0000
  H   H4168     1.0  0.90894  0.76505  0.30815  1.0000
  C   C2434     1.0  0.71307  0.94468  0.25966  1.0000
  H   H4169     1.0  0.82800  0.92402  0.27690  1.0000
  H   H4170     1.0  0.81137  0.95584  0.30548  1.0000
  H   H4171     1.0  0.77454  0.81314  0.25529  1.0000
  H   H4172     1.0  0.68394  0.97159  0.19508  1.0000
  C   C2435     1.0  0.74401  0.97687  0.30272  1.0000
  H   H4173     1.0  0.79587  0.92790  0.28611  1.0000
  C   C2436     1.0  0.74514  0.98103  0.28468  1.0000
  H   H4174     1.0  0.82581  0.80240  0.29757  1.0000
  C   C2437     1.0  0.51103  0.84344  0.00808  1.0000
  H   H4175     1.0  0.72722  0.96941  0.15589  1.0000
  H   H4176     1.0  0.51302  0.92836  0.07087  1.0000
  C   C2438     1.0  0.78318  0.80328  0.28024  1.0000
  H   H4177     1.0  0.56059  0.75414  0.99765  1.0000
  H   H4178     1.0  0.95501  0.77315  0.23930  1.0000
  C   C2439     1.0  0.70445  0.97359  0.27790  1.0000
  C   C2440     1.0  0.94074  0.73605  0.18776  1.0000
  H   H4179     1.0  0.77120  0.77247  0.29626  1.0000
  C   C2441     1.0  0.65614  0.75139  0.07080  1.0000
  C   C2442     1.0  0.84497  0.73681  0.27838  1.0000
  S   S695      1.0  0.65481  0.97983  0.14236  1.0000
  H   H4180     1.0  0.63914  0.96948  0.07541  1.0000
  Fe  Fe348     1.0  0.50033  0.80822  0.00213  1.0000
  C   C2443     1.0  0.84816  0.82631  0.30334  1.0000
  H   H4181     1.0  0.80581  0.74506  0.15813  1.0000
  H   H4182     1.0  0.96381  0.73742  0.19517  1.0000
  Fe  Fe349     1.0  0.75208  0.97493  0.24464  1.0000
  S   S696      1.0  0.77720  0.98120  0.22674  1.0000
  H   H4183     1.0  0.67844  0.98168  0.16494  1.0000
  H   H4184     1.0  0.50042  0.82485  0.03040  1.0000
  H   H4185     1.0  0.70138  0.74108  0.06545  1.0000
  H   H4186     1.0  0.74359  0.82747  0.30022  1.0000
  H   H4187     1.0  0.50688  0.77684  0.07280  1.0000
  C   C2444     1.0  0.76582  0.92264  0.30630  1.0000
  Fe  Fe350     1.0  0.57053  0.97591  0.04928  1.0000
  H   H4188     1.0  0.80665  0.73472  0.18948  1.0000
  H   H4189     1.0  0.78086  0.95374  0.29643  1.0000
  H   H4190     1.0  0.79393  0.97381  0.29975  1.0000
  H   H4191     1.0  0.68841  0.73585  0.05438  1.0000
  C   C2445     1.0  0.69151  0.98024  0.18525  1.0000
  C   C2446     1.0  0.95073  0.73471  0.19982  1.0000
  S   S697      1.0  0.59376  0.98052  0.02724  1.0000
  H   H4192     1.0  0.93376  0.73730  0.26720  1.0000
  S   S698      1.0  0.70833  0.97792  0.21089  1.0000
  H   H4193     1.0  0.92923  0.78345  0.30704  1.0000
  S   S699      1.0  0.83338  0.73394  0.20959  1.0000
  H   H4194     1.0  0.78996  0.76450  0.30666  1.0000
  H   H4195     1.0  0.71349  0.97641  0.26494  1.0000
  C   C2447     1.0  0.93950  0.73465  0.27879  1.0000
  H   H4196     1.0  0.53727  0.73892  0.01005  1.0000
  Fe  Fe351     1.0  0.53047  0.97941  0.06127  1.0000
  H   H4197     1.0  0.71950  0.96637  0.13075  1.0000
  Fe  Fe352     1.0  0.85773  0.76402  0.46465  1.0000
  H   H4198     1.0  0.97399  0.76464  0.61341  1.0000
  S   S700      1.0  0.82848  0.77414  0.46813  1.0000
  Fe  Fe353     1.0  0.89204  0.77616  0.44799  1.0000
  H   H4199     1.0  0.92121  0.77141  0.49262  1.0000
  S   S701      1.0  0.90364  0.79956  0.43366  1.0000
  H   H4200     1.0  0.99320  0.78882  0.56096  1.0000
  N   N176      1.0  0.80419  0.78661  0.57645  1.0000
  H   H4201     1.0  0.84723  0.84297  0.58859  1.0000
  C   C2448     1.0  0.92365  0.78637  0.54222  1.0000
  S   S702      1.0  0.87307  0.76940  0.43709  1.0000
  S   S703      1.0  0.87537  0.77358  0.47518  1.0000
  H   H4202     1.0  0.68427  0.98165  0.62129  1.0000
  Fe  Fe354     1.0  0.79331  0.84676  0.51141  1.0000
  S   S704      1.0  0.77241  0.85432  0.49571  1.0000
  S   S705      1.0  0.80623  0.81986  0.52397  1.0000
  Fe  Fe355     1.0  0.79561  0.88397  0.50741  1.0000
  S   S706      1.0  0.77507  0.89507  0.49130  1.0000
  S   S707      1.0  0.80781  0.90046  0.51629  1.0000
  Fe  Fe356     1.0  0.76043  0.87557  0.51080  1.0000
  S   S708      1.0  0.73102  0.88444  0.51985  1.0000
  Fe  Fe357     1.0  0.78881  0.87299  0.47757  1.0000
  S   S709      1.0  0.79498  0.87921  0.44806  1.0000
  S   S710      1.0  0.77995  0.86635  0.52804  1.0000
  S   S711      1.0  0.81080  0.86370  0.49204  1.0000
  Fe  Fe358     1.0  0.78552  0.86937  0.34005  1.0000
  S   S712      1.0  0.77835  0.84371  0.35481  1.0000
  H   H4203     1.0  0.72840  0.91867  0.59368  1.0000
  Fe  Fe359     1.0  0.74822  0.89004  0.35146  1.0000
  S   S713      1.0  0.73794  0.86604  0.36685  1.0000
  S   S714      1.0  0.73153  0.91743  0.34826  1.0000
  Fe  Fe360     1.0  0.76336  0.85794  0.37637  1.0000
  S   S715      1.0  0.76385  0.84565  0.40496  1.0000
  Fe  Fe361     1.0  0.75392  0.85436  0.34380  1.0000
  H   H4204     1.0  0.89290  0.76723  0.53707  1.0000
  S   S716      1.0  0.77261  0.88279  0.36227  1.0000
  H   H4205     1.0  0.82527  0.85883  0.56037  1.0000
  Fe  Fe362     1.0  0.76333  0.85554  0.62112  1.0000
  H   H4206     1.0  0.82344  0.77791  0.60396  1.0000
  H   H4207     1.0  0.71990  0.94421  0.54498  1.0000
  H   H4208     1.0  0.80798  0.96241  0.49416  1.0000
  C   C2449     1.0  0.72593  0.95459  0.54557  1.0000
  H   H4209     1.0  0.74860  0.95708  0.55248  1.0000
  H   H4210     1.0  0.84115  0.88471  0.57386  1.0000
  H   H4211     1.0  0.77652  0.95073  0.60243  1.0000
  H   H4212     1.0  0.84193  0.80399  0.56125  1.0000
  S   S717      1.0  0.85733  0.73536  0.34095  1.0000
  H   H4213     1.0  0.92854  0.80888  0.35703  1.0000
  H   H4214     1.0  0.93638  0.73497  0.56280  1.0000
  H   H4215     1.0  0.76740  0.91956  0.51742  1.0000
  H   H4216     1.0  0.68849  0.90066  0.57173  1.0000
  C   C2450     1.0  0.79283  0.92716  0.34498  1.0000
  C   C2451     1.0  0.88866  0.78638  0.39059  1.0000
  S   S718      1.0  0.95970  0.77606  0.32132  1.0000
  S   S719      1.0  0.75426  0.87940  0.60128  1.0000
  C   C2452     1.0  0.81097  0.94960  0.47340  1.0000
  C   C2453     1.0  0.80148  0.76661  0.55797  1.0000
  C   C2454     1.0  0.80944  0.95012  0.49072  1.0000
  C   C2455     1.0  0.76927  0.94757  0.61580  1.0000
  C   C2456     1.0  0.81135  0.77277  0.60730  1.0000
  H   H4217     1.0  0.85851  0.98107  0.42122  1.0000
  H   H4218     1.0  0.83661  0.75712  0.41432  1.0000
  H   H4219     1.0  0.80851  0.93518  0.51710  1.0000
  S   S720      1.0  0.83367  0.77501  0.32900  1.0000
  H   H4220     1.0  0.78222  0.92769  0.56904  1.0000
  H   H4221     1.0  0.69540  0.97715  0.60097  1.0000
  H   H4222     1.0  0.88974  0.79866  0.38053  1.0000
  H   H4223     1.0  0.87545  0.78381  0.39194  1.0000
  H   H4224     1.0  0.78171  0.81970  0.56158  1.0000
  H   H4225     1.0  0.81448  0.76708  0.54879  1.0000
  H   H4226     1.0  0.87422  0.82940  0.41684  1.0000
  H   H4227     1.0  0.75840  0.91215  0.57544  1.0000
  S   S721      1.0  0.95263  0.80218  0.48035  1.0000
  H   H4228     1.0  0.95026  0.77407  0.46668  1.0000
  C   C2457     1.0  0.92886  0.75080  0.63233  1.0000
  H   H4229     1.0  0.78448  0.94408  0.40710  1.0000
  H   H4230     1.0  0.73443  0.91789  0.54745  1.0000
  H   H4231     1.0  0.73770  0.86617  0.58085  1.0000
  H   H4232     1.0  0.94008  0.78636  0.38135  1.0000
  S   S722      1.0  0.70537  0.88468  0.60052  1.0000
  C   C2458     1.0  0.86151  0.74970  0.54014  1.0000
  C   C2459     1.0  0.92130  0.74253  0.32536  1.0000
  H   H4233     1.0  0.84299  0.78480  0.57876  1.0000
  Fe  Fe363     1.0  0.84430  0.75052  0.31864  1.0000
  C   C2460     1.0  0.73040  0.92110  0.57926  1.0000
  C   C2461     1.0  0.73850  0.92958  0.35867  1.0000
  C   C2462     1.0  0.73772  0.94750  0.35167  1.0000
  C   C2463     1.0  0.74537  0.95681  0.35856  1.0000
  C   C2464     1.0  0.75361  0.94825  0.37255  1.0000
  C   C2465     1.0  0.75374  0.93052  0.38004  1.0000
  C   C2466     1.0  0.74612  0.92121  0.37312  1.0000
  H   H4234     1.0  0.73166  0.95403  0.34062  1.0000
  H   H4235     1.0  0.69070  0.94950  0.61611  1.0000
  H   H4236     1.0  0.75999  0.92390  0.39095  1.0000
  H   H4237     1.0  0.74614  0.90754  0.37898  1.0000
  C   C2467     1.0  0.72399  0.88371  0.54246  1.0000
  C   C2468     1.0  0.73491  0.87387  0.55407  1.0000
  C   C2469     1.0  0.72928  0.87396  0.57195  1.0000
  H   H4238     1.0  0.74745  0.86574  0.54945  1.0000
  S   S723      1.0  0.76442  0.95946  0.38023  1.0000
  C   C2470     1.0  0.78664  0.86935  0.43634  1.0000
  C   C2471     1.0  0.78707  0.87679  0.41858  1.0000
  C   C2472     1.0  0.78023  0.86958  0.40883  1.0000
  C   C2473     1.0  0.77303  0.85475  0.41671  1.0000
  C   C2474     1.0  0.77296  0.84704  0.43441  1.0000
  C   C2475     1.0  0.77970  0.85433  0.44423  1.0000
  H   H4239     1.0  0.79252  0.88833  0.41233  1.0000
  H   H4240     1.0  0.78046  0.87560  0.39525  1.0000
  H   H4241     1.0  0.76757  0.83545  0.44057  1.0000
  H   H4242     1.0  0.77959  0.84829  0.45784  1.0000
  C   C2476     1.0  0.82727  0.82580  0.44558  1.0000
  H   H4243     1.0  0.93082  0.77303  0.44850  1.0000
  H   H4244     1.0  0.81316  0.90605  0.47897  1.0000
  C   C2477     1.0  0.84955  0.75018  0.40862  1.0000
  C   C2478     1.0  0.90309  0.77068  0.38510  1.0000
  C   C2479     1.0  0.78593  0.94287  0.42059  1.0000
  H   H4245     1.0  0.81431  0.85659  0.60725  1.0000
  N   N177      1.0  0.79243  0.92971  0.31289  1.0000
  C   C2480     1.0  0.94927  0.76459  0.60809  1.0000
  C   C2481     1.0  0.93066  0.77022  0.31496  1.0000
  H   H4246     1.0  0.91634  0.74695  0.63766  1.0000
  H   H4247     1.0  0.83339  0.86572  0.60113  1.0000
  H   H4248     1.0  0.77275  0.95247  0.31929  1.0000
  Fe  Fe364     1.0  0.99278  0.73973  0.36787  1.0000
  C   C2482     1.0  0.72995  0.96894  0.58791  1.0000
  Fe  Fe365     1.0  0.88798  0.74169  0.44401  1.0000
  H   H4249     1.0  0.90099  0.77149  0.50837  1.0000
  C   C2483     1.0  0.93385  0.73739  0.38434  1.0000
  C   C2484     1.0  0.82055  0.78467  0.48557  1.0000
  C   C2485     1.0  0.83012  0.78074  0.49858  1.0000
  C   C2486     1.0  0.82510  0.79103  0.51105  1.0000
  C   C2487     1.0  0.81069  0.80537  0.51029  1.0000
  C   C2488     1.0  0.80067  0.80875  0.49779  1.0000
  C   C2489     1.0  0.80546  0.79826  0.48556  1.0000
  H   H4250     1.0  0.84148  0.76990  0.49888  1.0000
  H   H4251     1.0  0.83281  0.78829  0.52080  1.0000
  H   H4252     1.0  0.78926  0.81944  0.49748  1.0000
  H   H4253     1.0  0.79794  0.80117  0.47562  1.0000
  H   H4254     1.0  0.94512  0.79592  0.52139  1.0000
  C   C2490     1.0  0.86765  0.83833  0.42600  1.0000
  H   H4255     1.0  0.81824  0.84657  0.58136  1.0000
  H   H4256     1.0  0.89213  0.75910  0.56758  1.0000
  S   S724      1.0  0.81155  0.87425  0.32274  1.0000
  C   C2491     1.0  0.86410  0.82720  0.44477  1.0000
  C   C2492     1.0  0.86168  0.81608  0.48453  1.0000
  H   H4257     1.0  0.84537  0.80893  0.47224  1.0000
  H   H4258     1.0  0.87662  0.82447  0.44920  1.0000
  H   H4259     1.0  0.86316  0.81397  0.44417  1.0000
  H   H4260     1.0  0.86277  0.82710  0.48935  1.0000
  H   H4261     1.0  0.87467  0.81068  0.47665  1.0000
  H   H4262     1.0  0.81408  0.83074  0.44219  1.0000
  H   H4263     1.0  0.83701  0.82255  0.43371  1.0000
  H   H4264     1.0  0.87656  0.84709  0.42466  1.0000
  Fe  Fe366     1.0  0.89411  0.75216  0.61170  1.0000
  H   H4265     1.0  0.80262  0.75444  0.56835  1.0000
  H   H4266     1.0  0.74741  0.91348  0.51861  1.0000
  H   H4267     1.0  0.91257  0.77338  0.41330  1.0000
  H   H4268     1.0  0.95222  0.77446  0.53451  1.0000
  H   H4269     1.0  0.79080  0.92058  0.44256  1.0000
  S   S725      1.0  0.87105  0.73556  0.47087  1.0000
  H   H4270     1.0  0.78303  0.83061  0.57701  1.0000
  H   H4271     1.0  0.86643  0.75175  0.51238  1.0000
  H   H4272     1.0  0.79062  0.87193  0.59241  1.0000
  H   H4273     1.0  0.84832  0.75786  0.54083  1.0000
  S   S726      1.0  0.83824  0.76095  0.37808  1.0000
  H   H4274     1.0  0.91720  0.75151  0.41209  1.0000
  C   C2493     1.0  0.70147  0.89320  0.56682  1.0000
  N   N178      1.0  0.81795  0.87322  0.58115  1.0000
  H   H4275     1.0  0.95160  0.75832  0.39965  1.0000
  C   C2494     1.0  0.69738  0.95476  0.62308  1.0000
  H   H4276     1.0  0.74053  0.97797  0.60453  1.0000
  H   H4277     1.0  0.80085  0.88169  0.55233  1.0000
  H   H4278     1.0  0.76787  0.92503  0.33096  1.0000
  H   H4279     1.0  0.87360  0.73925  0.37027  1.0000
  C   C2495     1.0  0.94431  0.76340  0.32407  1.0000
  C   C2496     1.0  0.98274  0.73754  0.41817  1.0000
  C   C2497     1.0  0.93097  0.74933  0.55996  1.0000
  H   H4280     1.0  0.83131  0.88317  0.54494  1.0000
  H   H4281     1.0  0.75290  0.95426  0.53121  1.0000
  C   C2498     1.0  0.92677  0.75493  0.54163  1.0000
  H   H4282     1.0  0.78020  0.80006  0.59151  1.0000
  H   H4283     1.0  0.82657  0.80472  0.58119  1.0000
  H   H4284     1.0  0.82028  0.79835  0.55212  1.0000
  H   H4285     1.0  0.80024  0.78107  0.61494  1.0000
  H   H4286     1.0  0.89452  0.78051  0.56827  1.0000
  H   H4287     1.0  0.74390  0.96408  0.58149  1.0000
  C   C2499     1.0  0.83385  0.79598  0.57220  1.0000
  H   H4288     1.0  0.88904  0.78850  0.40325  1.0000
  H   H4289     1.0  0.73784  0.85355  0.49340  1.0000
  C   C2500     1.0  0.81306  0.93358  0.46903  1.0000
  Fe  Fe367     1.0  0.72678  0.87758  0.61563  1.0000
  C   C2501     1.0  0.79855  0.87915  0.58061  1.0000
  S   S727      1.0  0.86812  0.76739  0.60510  1.0000
  H   H4290     1.0  0.79569  0.91501  0.42201  1.0000
  C   C2502     1.0  0.75398  0.95442  0.43011  1.0000
  C   C2503     1.0  0.82848  0.79899  0.62334  1.0000
  H   H4291     1.0  0.76814  0.93137  0.46166  1.0000
  Fe  Fe368     1.0  0.89009  0.74544  0.47926  1.0000
  H   H4292     1.0  0.81409  0.75969  0.61620  1.0000
  S   S728      1.0  0.97833  0.74091  0.54333  1.0000
  C   C2504     1.0  0.87034  0.74001  0.38385  1.0000
  N   N179      1.0  0.77222  0.95683  0.42885  1.0000
  H   H4293     1.0  0.91413  0.79573  0.35684  1.0000
  H   H4294     1.0  0.80280  0.82336  0.56195  1.0000
  C   C2505     1.0  0.91558  0.76814  0.50685  1.0000
  H   H4295     1.0  0.83997  0.90043  0.54551  1.0000
  H   H4296     1.0  0.75292  0.95268  0.41742  1.0000
  H   H4297     1.0  0.82993  0.77698  0.56113  1.0000
  H   H4298     1.0  0.79955  0.94449  0.41916  1.0000
  H   H4299     1.0  0.94182  0.75037  0.42167  1.0000
  N   N180      1.0  0.81656  0.80981  0.39237  1.0000
  C   C2506     1.0  0.83630  0.80314  0.38698  1.0000
  C   C2507     1.0  0.81221  0.81220  0.41086  1.0000
  C   C2508     1.0  0.81043  0.82710  0.38065  1.0000
  C   C2509     1.0  0.80736  0.79664  0.39093  1.0000
  C   C2510     1.0  0.84394  0.80400  0.36723  1.0000
  C   C2511     1.0  0.81447  0.79517  0.42510  1.0000
  C   C2512     1.0  0.81861  0.84225  0.38031  1.0000
  C   C2513     1.0  0.78692  0.80090  0.39637  1.0000
  H   H4300     1.0  0.84373  0.81031  0.39117  1.0000
  H   H4301     1.0  0.84022  0.78919  0.39377  1.0000
  H   H4302     1.0  0.79849  0.81994  0.41443  1.0000
  H   H4303     1.0  0.82072  0.82019  0.41221  1.0000
  H   H4304     1.0  0.81270  0.82566  0.36701  1.0000
  H   H4305     1.0  0.79590  0.83174  0.38466  1.0000
  H   H4306     1.0  0.81053  0.79510  0.37723  1.0000
  H   H4307     1.0  0.81237  0.78320  0.39824  1.0000
  H   H4308     1.0  0.83683  0.79797  0.36149  1.0000
  H   H4309     1.0  0.84393  0.81766  0.35968  1.0000
  H   H4310     1.0  0.85793  0.79658  0.36526  1.0000
  H   H4311     1.0  0.82814  0.78709  0.42286  1.0000
  H   H4312     1.0  0.81177  0.79860  0.43797  1.0000
  H   H4313     1.0  0.80486  0.78722  0.42629  1.0000
  H   H4314     1.0  0.83327  0.83891  0.37700  1.0000
  H   H4315     1.0  0.81386  0.84645  0.39293  1.0000
  H   H4316     1.0  0.81422  0.85377  0.37013  1.0000
  H   H4317     1.0  0.78099  0.80928  0.38523  1.0000
  H   H4318     1.0  0.78166  0.80741  0.40752  1.0000
  H   H4319     1.0  0.78216  0.78847  0.40085  1.0000
  C   C2514     1.0  0.91915  0.75982  0.31562  1.0000
  N   N181      1.0  0.72415  0.88012  0.46756  1.0000
  C   C2515     1.0  0.72687  0.86054  0.46973  1.0000
  C   C2516     1.0  0.71928  0.88881  0.45012  1.0000
  C   C2517     1.0  0.70878  0.88563  0.48190  1.0000
  C   C2518     1.0  0.74090  0.88409  0.46896  1.0000
  C   C2519     1.0  0.72911  0.84921  0.48793  1.0000
  C   C2520     1.0  0.73232  0.88214  0.43427  1.0000
  C   C2521     1.0  0.70357  0.90524  0.48224  1.0000
  C   C2522     1.0  0.74495  0.90216  0.45879  1.0000
  H   H4320     1.0  0.73889  0.85550  0.46027  1.0000
  H   H4321     1.0  0.71783  0.90323  0.44718  1.0000
  H   H4322     1.0  0.70603  0.88695  0.45029  1.0000
  H   H4323     1.0  0.69676  0.88170  0.48141  1.0000
  H   H4324     1.0  0.71157  0.87886  0.49503  1.0000
  H   H4325     1.0  0.74092  0.88285  0.48287  1.0000
  H   H4326     1.0  0.75279  0.87428  0.46438  1.0000
  H   H4327     1.0  0.71608  0.84933  0.49727  1.0000
  H   H4328     1.0  0.73508  0.83534  0.48696  1.0000
  H   H4329     1.0  0.72978  0.89155  0.42197  1.0000
  H   H4330     1.0  0.74630  0.88072  0.43456  1.0000
  H   H4331     1.0  0.73050  0.86932  0.43360  1.0000
  H   H4332     1.0  0.69113  0.90760  0.49228  1.0000
  H   H4333     1.0  0.70093  0.91389  0.46970  1.0000
  H   H4334     1.0  0.71366  0.90902  0.48647  1.0000
  H   H4335     1.0  0.74863  0.90313  0.44449  1.0000
  H   H4336     1.0  0.75663  0.90374  0.46236  1.0000
  H   H4337     1.0  0.73397  0.91331  0.46177  1.0000
  C   C2523     1.0  0.84660  0.82132  0.47457  1.0000
  H   H4338     1.0  0.82655  0.81368  0.45581  1.0000
  S   S729      1.0  0.91825  0.76396  0.60101  1.0000
  C   C2524     1.0  0.77721  0.92042  0.31946  1.0000
  H   H4339     1.0  0.83412  0.82573  0.48390  1.0000
  C   C2525     1.0  0.88871  0.73548  0.52295  1.0000
  H   H4340     1.0  0.93187  0.75984  0.36313  1.0000
  N   N182      1.0  0.84877  0.83509  0.45774  1.0000
  C   C2526     1.0  0.83155  0.84011  0.45175  1.0000
  H   H4341     1.0  0.85866  0.80555  0.49625  1.0000
  C   C2527     1.0  0.80650  0.77061  0.59117  1.0000
  S   S730      1.0  0.74661  0.83802  0.32980  1.0000
  H   H4342     1.0  0.82023  0.84416  0.46236  1.0000
  H   H4343     1.0  0.87529  0.77797  0.56350  1.0000
  H   H4344     1.0  0.83099  0.85171  0.44072  1.0000
  C   C2528     1.0  0.91841  0.80054  0.44530  1.0000
  C   C2529     1.0  0.80312  0.92375  0.32681  1.0000
  Fe  Fe369     1.0  0.84899  0.76060  0.34977  1.0000
  H   H4345     1.0  0.79940  0.80501  0.59308  1.0000
  H   H4346     1.0  0.77995  0.78255  0.57304  1.0000
  H   H4347     1.0  0.92769  0.82911  0.46318  1.0000
  C   C2530     1.0  0.99077  0.74469  0.56968  1.0000
  C   C2531     1.0  0.94326  0.78752  0.53480  1.0000
  C   C2532     1.0  0.76590  0.95920  0.62679  1.0000
  H   H4348     1.0  0.91776  0.79697  0.38758  1.0000
  H   H4349     1.0  0.85550  0.84614  0.42150  1.0000
  Fe  Fe370     1.0  0.75378  0.89483  0.62011  1.0000
  C   C2533     1.0  0.70719  0.89327  0.54893  1.0000
  C   C2534     1.0  0.96146  0.76075  0.61874  1.0000
  C   C2535     1.0  0.88989  0.77328  0.56142  1.0000
  H   H4350     1.0  0.95256  0.77135  0.59456  1.0000
  C   C2536     1.0  0.74604  0.94908  0.54483  1.0000
  C   C2537     1.0  0.85265  0.85063  0.46157  1.0000
  H   H4351     1.0  0.84561  0.85230  0.47499  1.0000
  H   H4352     1.0  0.77073  0.98039  0.57083  1.0000
  H   H4353     1.0  0.81466  0.92989  0.32309  1.0000
  H   H4354     1.0  0.92166  0.78305  0.55667  1.0000
  Fe  Fe371     1.0  0.98212  0.76324  0.33506  1.0000
  C   C2538     1.0  0.86824  0.74258  0.55533  1.0000
  H   H4355     1.0  0.82430  0.82075  0.60182  1.0000
  H   H4356     1.0  0.86696  0.84834  0.46150  1.0000
  H   H4357     1.0  0.77070  0.97118  0.62192  1.0000
  C   C2539     1.0  0.76294  0.93205  0.62199  1.0000
  H   H4358     1.0  0.94093  0.77361  0.41358  1.0000
  H   H4359     1.0  0.80233  0.92494  0.35336  1.0000
  C   C2540     1.0  0.93016  0.78529  0.45158  1.0000
  H   H4360     1.0  0.85314  0.86887  0.43557  1.0000
  H   H4361     1.0  0.93633  0.77705  0.51080  1.0000
  H   H4362     1.0  0.78963  0.95255  0.44612  1.0000
  C   C2541     1.0  0.92652  0.78727  0.37983  1.0000
  H   H4363     1.0  0.89121  0.78982  0.53569  1.0000
  H   H4364     1.0  0.77891  0.88298  0.56542  1.0000
  H   H4365     1.0  0.72899  0.90906  0.57652  1.0000
  C   C2542     1.0  0.80966  0.93471  0.50374  1.0000
  C   C2543     1.0  0.82755  0.88778  0.57151  1.0000
  C   C2544     1.0  0.84765  0.86879  0.44958  1.0000
  C   C2545     1.0  0.93454  0.73586  0.33498  1.0000
  C   C2546     1.0  0.79367  0.78331  0.56545  1.0000
  C   C2547     1.0  0.79022  0.81986  0.57007  1.0000
  C   C2548     1.0  0.94602  0.74631  0.33436  1.0000
  C   C2549     1.0  0.80042  0.82000  0.62185  1.0000
  S   S731      1.0  0.73550  0.85215  0.63400  1.0000
  C   C2550     1.0  0.92661  0.79524  0.36032  1.0000
  C   C2551     1.0  0.87176  0.74627  0.52399  1.0000
  S   S732      1.0  0.72533  0.89508  0.63317  1.0000
  H   H4366     1.0  0.85300  0.87839  0.45281  1.0000
  H   H4367     1.0  0.91550  0.79990  0.53903  1.0000
  H   H4368     1.0  0.81110  0.87779  0.62432  1.0000
  H   H4369     1.0  0.97703  0.74861  0.57599  1.0000
  C   C2552     1.0  0.89775  0.77630  0.54165  1.0000
  H   H4370     1.0  0.71872  0.95974  0.55746  1.0000
  H   H4371     1.0  0.90280  0.77090  0.37148  1.0000
  H   H4372     1.0  0.71560  0.85733  0.46673  1.0000
  C   C2553     1.0  0.81234  0.91830  0.48221  1.0000
  H   H4373     1.0  0.79353  0.89327  0.58113  1.0000
  C   C2554     1.0  0.81828  0.81396  0.61448  1.0000
  H   H4374     1.0  0.71971  0.93221  0.57543  1.0000
  N   N183      1.0  0.91762  0.77381  0.53580  1.0000
  H   H4375     1.0  0.83305  0.87367  0.45190  1.0000
  N   N184      1.0  0.92155  0.76969  0.38680  1.0000
  H   H4376     1.0  0.79407  0.76558  0.59633  1.0000
  H   H4377     1.0  0.82095  0.89977  0.57678  1.0000
  H   H4378     1.0  0.79215  0.79433  0.55393  1.0000
  C   C2555     1.0  0.79340  0.80245  0.58368  1.0000
  C   C2556     1.0  0.93434  0.75683  0.37648  1.0000
  C   C2557     1.0  0.94122  0.78590  0.46182  1.0000
  C   C2558     1.0  0.82184  0.78939  0.56488  1.0000
  H   H4379     1.0  0.90877  0.82824  0.44425  1.0000
  C   C2559     1.0  0.73847  0.85010  0.31107  1.0000
  S   S733      1.0  0.76601  0.91840  0.60767  1.0000
  H   H4380     1.0  0.81687  0.75969  0.58636  1.0000
  Fe  Fe372     1.0  0.86676  0.74291  0.59855  1.0000
  C   C2560     1.0  0.91780  0.81643  0.44913  1.0000
  C   C2561     1.0  0.76589  0.94509  0.46274  1.0000
  S   S734      1.0  0.80830  0.96923  0.45774  1.0000
  H   H4381     1.0  0.75538  0.90408  0.54760  1.0000
  H   H4382     1.0  0.78032  0.91316  0.54724  1.0000
  C   C2562     1.0  0.81047  0.91895  0.49958  1.0000
  C   C2563     1.0  0.74910  0.92450  0.57078  1.0000
  H   H4383     1.0  0.75064  0.93450  0.57681  1.0000
  H   H4384     1.0  0.77651  0.94919  0.55532  1.0000
  C   C2564     1.0  0.93296  0.75958  0.61484  1.0000
  C   C2565     1.0  0.78260  0.93519  0.55537  1.0000
  C   C2566     1.0  0.94008  0.80163  0.46627  1.0000
  C   C2567     1.0  0.92846  0.81692  0.45983  1.0000
  C   C2568     1.0  0.92182  0.77875  0.51607  1.0000
  H   H4385     1.0  0.91617  0.79293  0.51126  1.0000
  H   H4386     1.0  0.77801  0.93316  0.53147  1.0000
  C   C2569     1.0  0.77384  0.92736  0.54562  1.0000
  H   H4387     1.0  0.79677  0.93439  0.54879  1.0000
  Fe  Fe373     1.0  0.97242  0.77684  0.48523  1.0000
  C   C2570     1.0  0.94014  0.76152  0.41030  1.0000
  H   H4388     1.0  0.73137  0.87490  0.31858  1.0000
  H   H4389     1.0  0.84223  0.79459  0.61753  1.0000
  H   H4390     1.0  0.85020  0.83725  0.56834  1.0000
  C   C2571     1.0  0.83465  0.82409  0.31834  1.0000
  H   H4391     1.0  0.94744  0.79367  0.54308  1.0000
  C   C2572     1.0  0.69703  0.97439  0.61463  1.0000
  H   H4392     1.0  0.77313  0.92021  0.43278  1.0000
  C   C2573     1.0  0.81935  0.86870  0.60005  1.0000
  C   C2574     1.0  0.71254  0.88366  0.57836  1.0000
  C   C2575     1.0  0.85375  0.74947  0.39099  1.0000
  H   H4393     1.0  0.92025  0.75380  0.51131  1.0000
  H   H4394     1.0  0.94821  0.75802  0.37425  1.0000
  H   H4395     1.0  0.81452  0.93307  0.45561  1.0000
  N   N185      1.0  0.75390  0.92990  0.55111  1.0000
  H   H4396     1.0  0.69859  0.90078  0.54011  1.0000
  H   H4397     1.0  0.75145  0.95060  0.46602  1.0000
  C   C2576     1.0  0.82604  0.85676  0.57415  1.0000
  H   H4398     1.0  0.74675  0.93588  0.51740  1.0000
  S   S735      1.0  0.87356  0.77028  0.33501  1.0000
  C   C2577     1.0  0.75293  0.92219  0.52296  1.0000
  H   H4399     1.0  0.79246  0.76571  0.55032  1.0000
  S   S736      1.0  0.78774  0.83739  0.60898  1.0000
  C   C2578     1.0  0.74872  0.91801  0.54309  1.0000
  C   C2579     1.0  0.78604  0.92372  0.43032  1.0000
  H   H4400     1.0  0.74514  0.97053  0.35291  1.0000
  H   H4401     1.0  0.93973  0.75157  0.53250  1.0000
  S   S737      1.0  0.76213  0.87909  0.32773  1.0000
  H   H4402     1.0  0.72251  0.95891  0.58909  1.0000
  H   H4403     1.0  0.89846  0.75864  0.39309  1.0000
  C   C2580     1.0  0.82331  0.83877  0.32432  1.0000
  H   H4404     1.0  0.83283  0.81111  0.32526  1.0000
  S   S738      1.0  0.88215  0.74217  0.63985  1.0000
  S   S739      1.0  0.96581  0.75068  0.49884  1.0000
  H   H4405     1.0  0.93783  0.78782  0.35198  1.0000
  C   C2581     1.0  0.95728  0.75210  0.63626  1.0000
  H   H4406     1.0  0.75127  0.94221  0.43960  1.0000
  C   C2582     1.0  0.92207  0.76383  0.40588  1.0000
  C   C2583     1.0  0.82860  0.89395  0.55169  1.0000
  S   S740      1.0  0.99347  0.76672  0.46373  1.0000
  S   S741      1.0  0.99100  0.77511  0.50174  1.0000
  H   H4407     1.0  0.69047  0.95302  0.63708  1.0000
  C   C2584     1.0  0.79300  0.87632  0.56516  1.0000
  C   C2585     1.0  0.82569  0.85567  0.31559  1.0000
  H   H4408     1.0  0.98260  0.74829  0.43967  1.0000
  H   H4409     1.0  0.91928  0.75203  0.57047  1.0000
  H   H4410     1.0  0.79384  0.86218  0.56635  1.0000
  C   C2586     1.0  0.77527  0.95672  0.44631  1.0000
  Fe  Fe374     1.0  0.85594  0.75541  0.63249  1.0000
  H   H4411     1.0  0.81629  0.90348  0.54893  1.0000
  H   H4412     1.0  0.97992  0.75019  0.40943  1.0000
  H   H4413     1.0  0.81463  0.89506  0.60556  1.0000
  S   S742      1.0  0.99176  0.73418  0.34277  1.0000
  H   H4414     1.0  0.75351  0.91793  0.31331  1.0000
  C   C2587     1.0  0.75351  0.92804  0.63925  1.0000
  H   H4415     1.0  0.73717  0.98072  0.42367  1.0000
  N   N186      1.0  0.71238  0.98108  0.61543  1.0000
  H   H4416     1.0  0.79382  0.96456  0.32208  1.0000
  H   H4417     1.0  0.81291  0.83694  0.33579  1.0000
  C   C2588     1.0  0.84557  0.84846  0.57494  1.0000
  H   H4418     1.0  0.79492  0.88628  0.61141  1.0000
  S   S743      1.0  0.76465  0.87124  0.63911  1.0000
  C   C2589     1.0  0.86211  0.74204  0.41893  1.0000
  H   H4419     1.0  0.95627  0.74106  0.34169  1.0000
  H   H4420     1.0  0.85428  0.85783  0.56803  1.0000
  S   S744      1.0  0.90841  0.74897  0.45273  1.0000
  H   H4421     1.0  0.91889  0.74590  0.54116  1.0000
  Fe  Fe375     1.0  0.88092  0.74598  0.32452  1.0000
  C   C2590     1.0  0.80938  0.88295  0.61065  1.0000
  H   H4422     1.0  0.73391  0.95798  0.61395  1.0000
  S   S745      1.0  0.98116  0.76845  0.36081  1.0000
  H   H4423     1.0  0.78397  0.91788  0.35169  1.0000
  H   H4424     1.0  0.72589  0.96508  0.43953  1.0000
  C   C2591     1.0  0.98429  0.73646  0.43523  1.0000
  H   H4425     1.0  0.78495  0.94078  0.34435  1.0000
  S   S746      1.0  0.85491  0.74733  0.57527  1.0000
  C   C2592     1.0  0.72965  0.97131  0.60608  1.0000
  Fe  Fe376     1.0  0.98894  0.74022  0.47897  1.0000
  H   H4426     1.0  0.72344  0.96531  0.53404  1.0000
  H   H4427     1.0  0.94127  0.75556  0.56071  1.0000
  Fe  Fe377     1.0  0.98600  0.74822  0.51399  1.0000
  H   H4428     1.0  0.85872  0.74268  0.43254  1.0000
  H   H4429     1.0  0.80208  0.97130  0.40241  1.0000
  H   H4430     1.0  0.77118  0.94471  0.47406  1.0000
  Fe  Fe378     1.0  0.85926  0.78219  0.31314  1.0000
  H   H4431     1.0  0.78209  0.90608  0.32413  1.0000
  H   H4432     1.0  0.80895  0.90938  0.32858  1.0000
  H   H4433     1.0  0.92040  0.73505  0.38681  1.0000
  H   H4434     1.0  0.86641  0.98271  0.45071  1.0000
  C   C2593     1.0  0.71407  0.97784  0.63406  1.0000
  H   H4435     1.0  0.72617  0.98173  0.63437  1.0000
  H   H4436     1.0  0.71087  0.94634  0.62224  1.0000
  H   H4437     1.0  0.71622  0.96357  0.64027  1.0000
  C   C2594     1.0  0.82090  0.78976  0.63963  1.0000
  H   H4438     1.0  0.99057  0.98031  0.44660  1.0000
  C   C2595     1.0  0.79294  0.81131  0.63851  1.0000
  H   H4439     1.0  0.74015  0.97454  0.44585  1.0000
  H   H4440     1.0  0.74557  0.96334  0.30975  1.0000
  C   C2596     1.0  0.79262  0.97864  0.41206  1.0000
  H   H4441     1.0  0.77055  0.97540  0.40415  1.0000
  C   C2597     1.0  0.73853  0.96962  0.43515  1.0000
  H   H4442     1.0  0.72472  0.98130  0.57918  1.0000
  S   S747      1.0  0.76237  0.98212  0.49005  1.0000
  H   H4443     1.0  0.86016  0.98207  0.47912  1.0000
  S   S748      1.0  0.82508  0.74011  0.31120  1.0000
  C   C2598     1.0  0.77416  0.97430  0.41665  1.0000
  H   H4444     1.0  0.77131  0.97018  0.44892  1.0000
  H   H4445     1.0  0.79811  0.97611  0.42375  1.0000
  H   H4446     1.0  0.55308  0.92196  0.74103  1.0000
  H   H4447     1.0  0.70115  0.98293  0.65977  1.0000
  C   C2599     1.0  0.55332  0.79092  0.88084  1.0000
  C   C2600     1.0  0.65508  0.90961  0.77986  1.0000
  H   H4448     1.0  0.53595  0.82609  0.93307  1.0000
  S   S749      1.0  0.66695  0.96450  0.76347  1.0000
  H   H4449     1.0  0.52796  0.81236  0.86013  1.0000
  S   S750      1.0  0.51736  0.86908  0.75384  1.0000
  H   H4450     1.0  0.50595  0.74610  0.94171  1.0000
  C   C2601     1.0  0.55316  0.78254  0.86611  1.0000
  H   H4451     1.0  0.54356  0.73576  0.96527  1.0000
  H   H4452     1.0  0.58087  0.81044  0.93631  1.0000
  S   S751      1.0  0.62485  0.74541  0.89656  1.0000
  H   H4453     1.0  0.70728  0.91105  0.68225  1.0000
  H   H4454     1.0  0.53035  0.95781  0.78624  1.0000
  C   C2602     1.0  0.68722  0.87858  0.74613  1.0000
  H   H4455     1.0  0.70096  0.93721  0.71491  1.0000
  S   S752      1.0  0.65156  0.88807  0.78654  1.0000
  C   C2603     1.0  0.66714  0.92364  0.71963  1.0000
  C   C2604     1.0  0.75646  0.95520  0.64406  1.0000
  H   H4456     1.0  0.59731  0.89432  0.82841  1.0000
  C   C2605     1.0  0.60295  0.74062  0.94941  1.0000
  N   N187      1.0  0.53498  0.94594  0.74677  1.0000
  H   H4457     1.0  0.88317  0.73814  0.71830  1.0000
  C   C2606     1.0  0.49640  0.79689  0.82603  1.0000
  H   H4458     1.0  0.73552  0.95184  0.73201  1.0000
  H   H4459     1.0  0.69475  0.92883  0.69171  1.0000
  C   C2607     1.0  0.66825  0.91325  0.78552  1.0000
  H   H4460     1.0  0.52004  0.97105  0.76885  1.0000
  S   S753      1.0  0.62631  0.77244  0.97163  1.0000
  Fe  Fe379     1.0  0.60791  0.75794  0.87681  1.0000
  H   H4461     1.0  0.52397  0.96156  0.72452  1.0000
  S   S754      1.0  0.60114  0.78736  0.86682  1.0000
  H   H4462     1.0  0.53917  0.78201  0.95980  1.0000
  C   C2608     1.0  0.56864  0.78583  0.96469  1.0000
  H   H4463     1.0  0.61609  0.88590  0.81318  1.0000
  H   H4464     1.0  0.73039  0.96836  0.74410  1.0000
  S   S755      1.0  0.58497  0.74611  0.89328  1.0000
  N   N188      1.0  0.53754  0.77470  0.86831  1.0000
  H   H4465     1.0  0.71590  0.91721  0.69724  1.0000
  Fe  Fe380     1.0  0.59980  0.88379  0.76637  1.0000
  S   S756      1.0  0.61185  0.86811  0.78909  1.0000
  S   S757      1.0  0.57194  0.89947  0.77305  1.0000
  Fe  Fe381     1.0  0.63313  0.87258  0.73967  1.0000
  S   S758      1.0  0.64783  0.85586  0.76030  1.0000
  S   S759      1.0  0.64346  0.87775  0.71046  1.0000
  Fe  Fe382     1.0  0.62241  0.84693  0.77398  1.0000
  S   S760      1.0  0.62054  0.81850  0.78508  1.0000
  Fe  Fe383     1.0  0.63588  0.87862  0.77352  1.0000
  S   S761      1.0  0.60854  0.86195  0.75214  1.0000
  S   S762      1.0  0.62301  0.89598  0.75196  1.0000
  H   H4466     1.0  0.51357  0.96911  0.74355  1.0000
  H   H4467     1.0  0.54198  0.81012  0.97042  1.0000
  H   H4468     1.0  0.64835  0.90940  0.71768  1.0000
  C   C2609     1.0  0.55872  0.76980  0.94005  1.0000
  C   C2610     1.0  0.86599  0.74023  0.69408  1.0000
  H   H4469     1.0  0.57244  0.93059  0.78676  1.0000
  S   S763      1.0  0.72627  0.86403  0.67994  1.0000
  H   H4470     1.0  0.53557  0.74499  0.90926  1.0000
  C   C2611     1.0  0.94096  0.74713  0.64302  1.0000
  H   H4471     1.0  0.65385  0.75679  0.91547  1.0000
  H   H4472     1.0  0.61724  0.93267  0.79619  1.0000
  H   H4473     1.0  0.89276  0.75785  0.68925  1.0000
  H   H4474     1.0  0.66333  0.89870  0.74746  1.0000
  H   H4475     1.0  0.54541  0.93452  0.77010  1.0000
  H   H4476     1.0  0.66405  0.91506  0.69738  1.0000
  H   H4477     1.0  0.64069  0.95054  0.75616  1.0000
  H   H4478     1.0  0.60584  0.96292  0.80660  1.0000
  C   C2612     1.0  0.52505  0.95731  0.77526  1.0000
  H   H4479     1.0  0.52867  0.91778  0.73450  1.0000
  H   H4480     1.0  0.87164  0.74996  0.68283  1.0000
  H   H4481     1.0  0.56603  0.75982  0.94934  1.0000
  H   H4482     1.0  0.51284  0.93811  0.72885  1.0000
  H   H4483     1.0  0.52486  0.92351  0.76389  1.0000
  H   H4484     1.0  0.68167  0.94343  0.73161  1.0000
  H   H4485     1.0  0.50893  0.78120  0.87310  1.0000
  H   H4486     1.0  0.55977  0.80230  0.87499  1.0000
  H   H4487     1.0  0.70303  0.93554  0.73655  1.0000
  C   C2613     1.0  0.60048  0.95768  0.79846  1.0000
  H   H4488     1.0  0.59023  0.90322  0.79929  1.0000
  C   C2614     1.0  0.70364  0.91583  0.69456  1.0000
  H   H4489     1.0  0.54849  0.93822  0.72218  1.0000
  H   H4490     1.0  0.69298  0.88262  0.75482  1.0000
  C   C2615     1.0  0.51995  0.78703  0.87298  1.0000
  H   H4491     1.0  0.54659  0.97671  0.71667  1.0000
  H   H4492     1.0  0.58444  0.78986  0.93179  1.0000
  H   H4493     1.0  0.57871  0.93440  0.72278  1.0000
  H   H4494     1.0  0.54581  0.97764  0.73871  1.0000
  H   H4495     1.0  0.53865  0.76673  0.90480  1.0000
  H   H4496     1.0  0.55359  0.75572  0.83154  1.0000
  C   C2616     1.0  0.65596  0.91937  0.70946  1.0000
  H   H4497     1.0  0.57195  0.95281  0.82633  1.0000
  H   H4498     1.0  0.79726  0.78924  0.66011  1.0000
  C   C2617     1.0  0.54846  0.78627  0.94731  1.0000
  C   C2618     1.0  0.66645  0.87226  0.70183  1.0000
  C   C2619     1.0  0.67309  0.87884  0.68407  1.0000
  C   C2620     1.0  0.69144  0.87580  0.67706  1.0000
  C   C2621     1.0  0.70325  0.86623  0.68782  1.0000
  C   C2622     1.0  0.69660  0.85925  0.70547  1.0000
  C   C2623     1.0  0.67825  0.86213  0.71243  1.0000
  H   H4499     1.0  0.66403  0.88652  0.67575  1.0000
  H   H4500     1.0  0.69643  0.88112  0.66341  1.0000
  H   H4501     1.0  0.70569  0.85167  0.71380  1.0000
  H   H4502     1.0  0.67327  0.85668  0.72603  1.0000
  C   C2624     1.0  0.60680  0.79581  0.84409  1.0000
  C   C2625     1.0  0.61107  0.78503  0.83219  1.0000
  C   C2626     1.0  0.61532  0.79217  0.81414  1.0000
  C   C2627     1.0  0.61551  0.81005  0.80786  1.0000
  C   C2628     1.0  0.61114  0.82085  0.81977  1.0000
  C   C2629     1.0  0.60665  0.81377  0.83782  1.0000
  H   H4503     1.0  0.61113  0.77122  0.83686  1.0000
  H   H4504     1.0  0.61868  0.78375  0.80500  1.0000
  H   H4505     1.0  0.61125  0.83462  0.81510  1.0000
  H   H4506     1.0  0.60335  0.82217  0.84695  1.0000
  C   C2630     1.0  0.52690  0.96337  0.73634  1.0000
  H   H4507     1.0  0.91004  0.74901  0.70091  1.0000
  C   C2631     1.0  0.56772  0.81085  0.91688  1.0000
  C   C2632     1.0  0.61717  0.76017  0.96330  1.0000
  H   H4508     1.0  0.63523  0.92029  0.76449  1.0000
  H   H4509     1.0  0.74312  0.93637  0.66367  1.0000
  C   C2633     1.0  0.90176  0.74547  0.69416  1.0000
  H   H4510     1.0  0.60590  0.93392  0.81796  1.0000
  H   H4511     1.0  0.85903  0.74746  0.70471  1.0000
  C   C2634     1.0  0.59957  0.90999  0.80126  1.0000
  H   H4512     1.0  0.69789  0.87190  0.73674  1.0000
  H   H4513     1.0  0.60784  0.94223  0.76887  1.0000
  C   C2635     1.0  0.57374  0.80159  0.93416  1.0000
  H   H4514     1.0  0.68214  0.93267  0.78466  1.0000
  H   H4515     1.0  0.68857  0.89562  0.70364  1.0000
  H   H4516     1.0  0.60729  0.76006  0.92550  1.0000
  C   C2636     1.0  0.69187  0.91486  0.73498  1.0000
  C   C2637     1.0  0.67176  0.93009  0.78035  1.0000
  H   H4517     1.0  0.67977  0.86858  0.75469  1.0000
  H   H4518     1.0  0.70521  0.90608  0.73527  1.0000
  C   C2638     1.0  0.61593  0.76533  0.94577  1.0000
  C   C2639     1.0  0.60766  0.89824  0.81684  1.0000
  H   H4519     1.0  0.55764  0.95361  0.81221  1.0000
  H   H4520     1.0  0.61071  0.90973  0.78957  1.0000
  C   C2640     1.0  0.58263  0.93738  0.78694  1.0000
  H   H4521     1.0  0.54012  0.79625  0.88826  1.0000
  C   C2641     1.0  0.53784  0.97768  0.72970  1.0000
  C   C2642     1.0  0.51755  0.80552  0.86092  1.0000
  S   S764      1.0  0.83328  0.77005  0.65015  1.0000
  H   H4522     1.0  0.70280  0.96581  0.73920  1.0000
  H   H4523     1.0  0.60799  0.96156  0.78489  1.0000
  H   H4524     1.0  0.70607  0.89194  0.71366  1.0000
  H   H4525     1.0  0.66823  0.88824  0.72994  1.0000
  C   C2643     1.0  0.59583  0.93803  0.76915  1.0000
  C   C2644     1.0  0.53221  0.87786  0.75930  1.0000
  C   C2645     1.0  0.54913  0.87776  0.74850  1.0000
  C   C2646     1.0  0.56146  0.88419  0.75278  1.0000
  C   C2647     1.0  0.55686  0.89090  0.76781  1.0000
  C   C2648     1.0  0.53993  0.89112  0.77858  1.0000
  C   C2649     1.0  0.52766  0.88457  0.77436  1.0000
  H   H4526     1.0  0.55274  0.87266  0.73679  1.0000
  H   H4527     1.0  0.57441  0.88426  0.74422  1.0000
  H   H4528     1.0  0.53631  0.89629  0.79024  1.0000
  H   H4529     1.0  0.51475  0.88464  0.78283  1.0000
  H   H4530     1.0  0.62054  0.77686  0.93752  1.0000
  H   H4531     1.0  0.58942  0.94768  0.75889  1.0000
  H   H4532     1.0  0.61646  0.90439  0.82035  1.0000
  H   H4533     1.0  0.58109  0.92090  0.83082  1.0000
  H   H4534     1.0  0.65793  0.92787  0.73143  1.0000
  C   C2650     1.0  0.52110  0.93496  0.75341  1.0000
  C   C2651     1.0  0.73059  0.96617  0.73124  1.0000
  C   C2652     1.0  0.56424  0.94540  0.82289  1.0000
  C   C2653     1.0  0.53215  0.82304  0.94748  1.0000
  H   H4535     1.0  0.53972  0.79401  0.93823  1.0000
  H   H4536     1.0  0.55348  0.94270  0.83456  1.0000
  C   C2654     1.0  0.53221  0.75840  0.90113  1.0000
  H   H4537     1.0  0.68465  0.91373  0.74890  1.0000
  N   N189      1.0  0.68226  0.90904  0.72490  1.0000
  C   C2655     1.0  0.69445  0.93389  0.72886  1.0000
  H   H4538     1.0  0.55505  0.79249  0.85359  1.0000
  H   H4539     1.0  0.51721  0.78906  0.88641  1.0000
  C   C2656     1.0  0.67434  0.89400  0.73697  1.0000
  H   H4540     1.0  0.54912  0.76355  0.93790  1.0000
  H   H4541     1.0  0.57870  0.80743  0.90577  1.0000
  H   H4542     1.0  0.56116  0.78146  0.89009  1.0000
  H   H4543     1.0  0.67170  0.93560  0.71145  1.0000
  H   H4544     1.0  0.51396  0.95043  0.78110  1.0000
  C   C2657     1.0  0.53825  0.77082  0.85106  1.0000
  C   C2658     1.0  0.53855  0.75750  0.88169  1.0000
  C   C2659     1.0  0.55480  0.75754  0.84410  1.0000
  H   H4545     1.0  0.52647  0.76574  0.85186  1.0000
  H   H4546     1.0  0.53773  0.78293  0.84054  1.0000
  H   H4547     1.0  0.51759  0.76273  0.90480  1.0000
  H   H4548     1.0  0.55234  0.74950  0.88005  1.0000
  H   H4549     1.0  0.56719  0.76218  0.84141  1.0000
  C   C2660     1.0  0.60401  0.73556  0.96698  1.0000
  S   S765      1.0  0.61997  0.73664  0.86177  1.0000
  N   N190      1.0  0.56488  0.82734  0.78088  1.0000
  C   C2661     1.0  0.57909  0.83252  0.76514  1.0000
  C   C2662     1.0  0.55933  0.84155  0.79109  1.0000
  C   C2663     1.0  0.54949  0.82643  0.77426  1.0000
  C   C2664     1.0  0.57263  0.80971  0.79121  1.0000
  C   C2665     1.0  0.58530  0.82097  0.75152  1.0000
  C   C2666     1.0  0.57364  0.84372  0.79900  1.0000
  C   C2667     1.0  0.53115  0.82814  0.78685  1.0000
  C   C2668     1.0  0.56145  0.80275  0.80925  1.0000
  H   H4550     1.0  0.57470  0.84625  0.75804  1.0000
  H   H4551     1.0  0.59123  0.83227  0.76914  1.0000
  H   H4552     1.0  0.54780  0.83974  0.80207  1.0000
  H   H4553     1.0  0.55467  0.85440  0.78265  1.0000
  H   H4554     1.0  0.54762  0.83715  0.76246  1.0000
  H   H4555     1.0  0.55222  0.81394  0.76992  1.0000
  H   H4556     1.0  0.57545  0.79939  0.78370  1.0000
  H   H4557     1.0  0.58594  0.80935  0.79299  1.0000
  H   H4558     1.0  0.57448  0.82118  0.74551  1.0000
  H   H4559     1.0  0.59567  0.82630  0.74076  1.0000
  H   H4560     1.0  0.59153  0.80728  0.75705  1.0000
  H   H4561     1.0  0.58493  0.84792  0.78883  1.0000
  H   H4562     1.0  0.56783  0.85424  0.80648  1.0000
  H   H4563     1.0  0.57847  0.83157  0.80821  1.0000
  H   H4564     1.0  0.52571  0.84182  0.78866  1.0000
  H   H4565     1.0  0.53116  0.81896  0.79968  1.0000
  H   H4566     1.0  0.52177  0.82522  0.78091  1.0000
  H   H4567     1.0  0.55284  0.79480  0.80806  1.0000
  H   H4568     1.0  0.55333  0.81307  0.81630  1.0000
  H   H4569     1.0  0.57053  0.79429  0.81784  1.0000
  C   C2669     1.0  0.64525  0.92305  0.76909  1.0000
  H   H4570     1.0  0.93767  0.74044  0.65656  1.0000
  H   H4571     1.0  0.53049  0.74936  0.87970  1.0000
  H   H4572     1.0  0.57536  0.95106  0.78715  1.0000
  H   H4573     1.0  0.74028  0.97282  0.72092  1.0000
  H   H4574     1.0  0.50632  0.92047  0.74621  1.0000
  N   N191      1.0  0.55959  0.79697  0.95013  1.0000
  H   H4575     1.0  0.56795  0.77297  0.92728  1.0000
  C   C2670     1.0  0.60868  0.75566  0.93888  1.0000
  H   H4576     1.0  0.52151  0.81552  0.95203  1.0000
  H   H4577     1.0  0.56672  0.91994  0.81822  1.0000
  C   C2671     1.0  0.51720  0.92758  0.73973  1.0000
  H   H4578     1.0  0.55649  0.80657  0.91536  1.0000
  H   H4579     1.0  0.55095  0.95479  0.75887  1.0000
  H   H4580     1.0  0.57792  0.77390  0.96087  1.0000
  C   C2672     1.0  0.80319  0.79620  0.64740  1.0000
  S   S766      1.0  0.51092  0.76538  0.96379  1.0000
  H   H4581     1.0  0.52627  0.83571  0.95166  1.0000
  H   H4582     1.0  0.55596  0.82305  0.95446  1.0000
  H   H4583     1.0  0.50490  0.79135  0.81518  1.0000
  H   H4584     1.0  0.64604  0.93139  0.70544  1.0000
  H   H4585     1.0  0.50813  0.94253  0.75955  1.0000
  H   H4586     1.0  0.59958  0.92516  0.76550  1.0000
  S   S767      1.0  0.97215  0.74718  0.65001  1.0000
  H   H4587     1.0  0.91090  0.74008  0.68304  1.0000
  H   H4588     1.0  0.71233  0.96485  0.71730  1.0000
  C   C2673     1.0  0.85152  0.73567  0.68815  1.0000
  H   H4589     1.0  0.50465  0.81365  0.86633  1.0000
  N   N192      1.0  0.59055  0.92864  0.80278  1.0000
  C   C2674     1.0  0.69489  0.90242  0.70946  1.0000
  S   S768      1.0  0.75148  0.96977  0.65795  1.0000
  C   C2675     1.0  0.60405  0.93750  0.80430  1.0000
  C   C2676     1.0  0.56891  0.94083  0.73296  1.0000
  C   C2677     1.0  0.55086  0.93636  0.73544  1.0000
  C   C2678     1.0  0.54004  0.94774  0.76252  1.0000
  H   H4590     1.0  0.56575  0.77243  0.86464  1.0000
  C   C2679     1.0  0.66176  0.94365  0.76992  1.0000
  C   C2680     1.0  0.64838  0.94016  0.76436  1.0000
  H   H4591     1.0  0.67594  0.90292  0.79380  1.0000
  H   H4592     1.0  0.51698  0.80523  0.84763  1.0000
  H   H4593     1.0  0.49727  0.82360  0.81263  1.0000
  H   H4594     1.0  0.56439  0.82532  0.91533  1.0000
  H   H4595     1.0  0.58644  0.96444  0.79949  1.0000
  C   C2681     1.0  0.57578  0.92777  0.81892  1.0000
  C   C2682     1.0  0.75039  0.93955  0.65030  1.0000
  C   C2683     1.0  0.71189  0.97174  0.72735  1.0000
  H   H4596     1.0  0.74862  0.91607  0.64411  1.0000
  H   H4597     1.0  0.84156  0.74791  0.68476  1.0000
  H   H4598     1.0  0.65424  0.74959  0.93794  1.0000
  Fe  Fe384     1.0  0.73601  0.86985  0.65064  1.0000
  C   C2684     1.0  0.66008  0.74595  0.92512  1.0000
  C   C2685     1.0  0.54796  0.81328  0.95614  1.0000
  H   H4599     1.0  0.57401  0.93535  0.74512  1.0000
  H   H4600     1.0  0.56861  0.95502  0.72870  1.0000
  C   C2686     1.0  0.49517  0.75754  0.94223  1.0000
  H   H4601     1.0  0.69050  0.97384  0.70401  1.0000
  H   H4602     1.0  0.55596  0.74445  0.85305  1.0000
  H   H4603     1.0  0.67444  0.74568  0.92117  1.0000
  H   H4604     1.0  0.72081  0.97975  0.69164  1.0000
  H   H4605     1.0  0.77915  0.81588  0.64434  1.0000
  H   H4606     1.0  0.59109  0.79825  0.96069  1.0000
  C   C2687     1.0  0.57955  0.79476  0.97100  1.0000
  H   H4607     1.0  0.62053  0.98309  0.93521  1.0000
  H   H4608     1.0  0.59838  0.98236  0.93771  1.0000
  C   C2688     1.0  0.61092  0.74543  0.97398  1.0000
