data_image0
_chemical_formula_structural       FeSFeS2FeSHSHC2HS2HCSH2SCFeHFe2S2H2FeS3H4SH2SHFeS2FeS2FeSFeS3CH2CHC2HCHC6H3SC6H10CNH5SCHCH2C6H3FeH5CH3C6H4CH2C2H2C6H4C3HSCH3C2NC2HC3HCH5CH11CHCHFeCHCH14C3HCH2CNC5FeC2H18CHCH4CH3C2H4CHC2HCSCH3CH2C2NCHCHFeNHCH2FeHCH7CHCH2CH6CH2CH2NC5HSH12SC2H5C4H4FeH7CH2SH2CSH4SCHNH2CHC4H2CHCSHCNFe2CH2FeSHSH2NHNCH3CHNSH2CHCH2CHC2H3CH2CH2CH3CH2CHCH2C3H4C2SH3CHCHNC2H7FeCHCHC3H5CNHCH5CHCH2CFeHCH3CHCH3CH3CH2CHCHNH3CH4FeS2FeS2FeSFeS3H2C2H2SFeSCHFeS2FeS2FeSFeS3FeSCFeS2FeSFeS3H3FeS2FeS2FeSFeS4FeS2HSHFeSHFeSC7H2C7H2C6H4C4HCHCH6NC2H2C6H4C4H2C6H4C6H6C6HCH2C6H2SHC6H4C6H4SHC4NCH7SNH3CSH4C3H4C2H2NHCH2CH2CH5CH2C4NHC2H4CH2S2CSHCH2SCH6CH9NH2CH4C2HC3HSNC8H16CH3NC8H20CH4SHCH4CHCHCH3NC8H17SCHC2NC2H7NH4CHC2H5SHC2H2C4HCHCNH3CHCH3C4HCH2C2FeH4CH4CHCH2SH2CH4C2H10CH5CH6FeHCH6C2HCHCH2C2H3C2H4CH4CSHSHC2HSH4C2HSCH4CHC2HSHCH5FeCH6C2NHNH6CHFeHSHS2H2FeS2CHSH8CH6CFeS2FeS2FeSFeS3HCFeS2HFeS2FeS2FeSFeS3HNHSH5SH7C6H4C6H4C2HNC2H2SHC8H2SC5H2CH4CH3SC4H7C6H4CH3CH3NHC3FeNH2C6HCH2C6H5CH4NC8H8CH2CHSH6C2HC2H2CH4CH2CH2C2H2CHSNCHC3H4CH11CSH5CH2SNHC2HCHFeHCH2CH4CH7CH5CHC2HC2H2NC2H5NCH2C3H5C2H2CHCH3CH3CH2SCH2CH4C6HCH2CSCSH5CHSCH4C4H3CHFeCHNH2C2HCH4CHSHFeH2CSH3SH3SFeCSHC2HCHFe2HSHSCHCS2FeHSHFeH3FeHCH2SFeCH3CSCH5CSHSHC2H5C2HCHCSCHC2H6C3H2CH2CHCH5SH2CH2C3HCNHCFeSCH5CH2FeNCH3C4H4C2H3CH2CHC2FeH3CH5SCH10CHC5H5C2HSCH3CHCNCFeS2HNHCHFeC2HCH8SHCFeH2SH2CHFeS2FeS2FeSFeS3H3CHSFeSCFeS2FeS2FeSFeS3FeS2FeHCSH2SCHCH2CNH2C2HFe2CSCH2S2HSH2C2HCHC3SHCH5CHC3HC2NHC6H4C6H4C6H4C6H2CH4NC7H4CHCH2CHCSHCHSHCHC7H3CH4CH2FeH2C2SH3CH3CH4CH2FeHNC8H21NHCH2CH5CH2CH3FeHC2HCHC3SCH2C2H6CH2C2H5C2H2CH2C2HCSH2FeH5C2HCH7NHSH3C2H3CHC2FeNSCHCHCH4CH4CHCHCNCH2CHCH2CH2SH3SC2HC2HSFeNH3C2HSC2HC2HCH2C3SH4CHCH4SH6C2H3CH5SH2SC3HSC2H5C3H6SH2CHSCH5C4H2CH2CSFeH3CFeC2H2NHC2H2CH2CHFeSCHCHC2HC2H5CHNH2CHCH3CHCH3SH2C3HCHCH3CHCH3SNCFe2H8S2H7CH2CS2CHFeC3H2CFeSFeS2FeSFeS2FeS2FeS2FeSFeS3Fe2S2FeSFeS2HS2H2CH2CH3CFeS2FeSFeSH6NH4FeS2FeS2H2C6H4CSH2C3H5C2H2CHC6H7C6H4C6H4C6H4C7H4C6H7CH2CS3HCH2C3H2SHC2H5C3HC2HCHCH3NHCHSCNHC4H2CH3CNC2H2C2H3CH3CNC7H16SNHSC2H2C3H8CSCH4CH8C2HC2H2C2HCNC5HCH12CH5FeH2NC8H9CH10CH2C3HCFeH9CH2C2HC2HCHCNC8H22CHCSFeSH3NCHC4H5C2H2SHCHCH6CSCH2CH4CHCHCHCH10SH2CNH2C2HC2NH3C3FeH3CHNHC2H2CHCH7CHSHFeCHCHSH6C2H4C4H5CH6FeH3CHC3HCHCHSCH3SH2C2HCH2SHCHCSH2C2H4CNCFeHSH2SH2FeS2FeS2FeSHSH2CSFeS2FeS2FeSFeS3H2CHCHFeS2FeHFeC2HS2CH2CH3CHC6H4C6H4CH5CHNC6H2FeH3C3H10C2H3CHCSCH2SCH3C6H3NC2HCHCSCSCH2CH4CHCFeH9CH6NCH2CFeH2SH7SC2HC2HCHC3HCH8CH7CHCHNC8H12CFeH6SCH4CH2SH2C2H2CHCHC2HCH4CNC2FeHCH8C2H3FeH2NSNC2H3CH3FeCH3CH6S2C2FeS2FeS2FeSFeS3FeS2FeS2FeSFeS3FeS2FeSHFeSFeS3FeHSFeS3HFeS2FeSHFeSFeS3CH2C2HCHCH3CS2H3SH3CH5C6H4C2NC5H3C5H2C6H6CS2FeH3C6H4C6H4C6H4C6H4C6H4C4HSH3C6H4C6H2FeHCHNCHCHC3H3C3H7CH7NC8H20C3NC8H20NC4SHSCH10CHC2H2CNH5CH6CH3FeC2H3C2H4SH8CH5C2HSH8SC6H2CHC5H3FeH3FeCH3C2FeCNH5C2H3SC2H4SH4NH2CH3FeSH2C2H4CH2CH4C3NCHC2HSH3CHCH2C2HSH2CHSHC4SCSH8C3H2CH4C2HCH2NH2CFeH4C2H4FeSH2CH12C2SFeH3SH5C2H3CSHCH2SHCHNSH2CH2CHCHCHNHCFeCHSHNCH2CHCHCH4CH2CHC2H3CH3FeHCHCH6NH4CH5CHCH2CSCHSHFeHFeSH2FeS4HCH3S2H2S2HSH2SCH4SH3CH2C6H5C3HNH4C2HC3FeHC6H4C6H6NH2CH2CNH2SH3CNCH7CHCHFeCHCFeSH4C3SH2C2HCH3CHFeCH2CHNH3Fe2H2CH2CH2CH4CH2CH2FeH3CHCH3CHCH2SC3NHCH3CHCH2CSH6C2HC3FeHCH2NH3CHCH3SH2CH2SNC2H3CHCHFeH2CHCH2C5H5SHC2HCSHCH2SH2SHC2H2CH4CHCH10SHCH2CH4NCHCH2Fe2S2H2CHC2HS2CSH3SFeHSHFeSFeS2FeS2H2CHSHFeS2FeS2FeSFeS3H2FeS2FeSHFeSFeS3H2FeS2CSHCH2FeNH2C2HC6H4CHFeCH4CH2C2HC5H5C6H4C2H2CHSCH2C2HCH3C8H3CHC6H4C4FeCH2CH3CHCHC3HCH2CH3CHC2H2CH2CH4CSHC3NHSCSH6C2SFeCHSCH5CH2SH2C2FeHC3H7SCHC2H3S2H10NHC3HCHCH3C2H3NH5CH3CH2CH3C2H2NH4C2SCHSFeCH3CH2CH6C3HNH2SHCHCHCH9FeC3H2CFeHSH2CSH2C2H4C2HCH3FeH2FeCN2S2H5FeH2CH5CH8NHCHCH4CH6C2H3FeNC4HCH2CHSCH2SH2SCFeSFeH2FeS2FeS2FeHFeS3FeHSFeS2FeHFeCS2FeS2FeS2FeSFeS3CHC2HFeS2H2CHFeSHSHCH3CFeHSFeS2CFeS3H3CHSH3C6H5CFeHFeH3CSH3C6H3C3H3C6H4FeC6H4C6H4C3H5CHCH9CHCH4C6H4C7H2NC4H3C2HCH4FeCH3CHCSHSHSC3HSHC5HSH5FeSHCH5NC2HCHC3H4FeCH13C2HCSHC4H2CFeHCFeC2H6SCHC2NC8H25C2H3CH2CHC5NC8H13NC8H23SCHNH2CH3CHCH2SH2FeN2CNHCH11CHCH3CH3CH2S2HC3HC5HCSH3CHFeCN2C2H4C2H3C3SCH3CHCSH3CH2C5H2SH5SHCH6S2H7CHCHNHNCH2C3H2NH3SHC2HCSFeCHFeH2SCH6CSH3SH3SC2H4CH5C2SFeH2CHNH6CH9CH4C2H2CFeHFeS2FeS2FeSFeHS2HSHFeSFeH8NCH2CHCFeS2FeHS4FeS2FeS2FeSFeS3FeS2FeHSFeSCHS2CH2CH3CHC3HCSHC7H5C6H4C7H3C2HCH3C2HSC3HC3HCH4C5H5CHCH2C6H4C3H2CHC3H2SCH4CHCHCHCH4CH2CSH3C3H3SHC3S2H3NC8H20NC8H22CHCFe2H2CHCH3SHNC4HCH7FeCH2CH3C2H2CHC3NHC3HCHFeHNH5CH2SH4SH4NC6H13FeH3CH3C2H3C2HNCSC2H4CH6CFeC2H2CHNHNH2CH3C2H5FeH4SHCHC2HCHSHCH10CH2CHCS2H9CHCHC3SHCH2CNCH2C6HCH2C2HC2HC2HC2H8SCH3CH4CH6NHCHSHC4SHCH3CH2CFeS2FeSNFeSFeS3FeS2FeS2FeSFeS3HSCH3FeS2FeS2FeSFeS3H2C2HCH5CSHFeSHCSC2SH6CNH4C2H3C3HC2HSH2C6H4C4H3CH2C6H4C6H4C3HC2H3FeC2HC3HC6H4CH2C2H2C2HCHSHC5HCH2CH2CHC2HFeH2S2HCHNCHCNH5CHCNC6H17CH3C2H4CH8CH6FeC2H3SCH8SCH4CH3CHC2HNC8H25C2HCHC2FeH5C2HCH3NC8H5C2H2SC2FeH2CHFeH2CHCNH3SC2H2CNHCH3CH5C3S2H8CHC2HSH5C2HCHCHC2HCNHFeHC2HCH13CH2SH2SH5CH2CH2C2HCH2C3SHCHCHSCH8CH2SCFeS2FeHCFeS3FeS2FeS2FeSFeS3H3C2FeC2H3CH4C6H4C6HNH4C4H4C2H5CH3C2H3C2H2C2H5CHC5HC7H6C2H2C3SH3CSNC5SC2H12CH8FeC2SH4CSC3SH5FeCHNH2SHC2HCHCHCNC2FeCHCHNHC2H2C2H3SH2CH2C3HFeC2H3C2H4CNH3C2SFeCH3CFeCH3CHCH4CHCHCSH5C4HSC2HSCSHC2H2C2H3SH3CH2SH6CH4CH7FeHCFeCHSH10CH2C2H5SC2HCFeH2CH3FeH2CHS2CH3NH2CH2SHNSHCH3CHC2HC3H2CHCH7C2HNCHC3HCH4CH2CH5CH5CH5CFeHS2HCHCFeHSFeSHSFeSCFeS2FeCFeSHS2NSHFeS2FeSFeS3FeS2FeS2FeSFeS3FeSNSFeSH2FeSHC5H2C6H4SC6H3C6H4C6H4C4HCH5C2SCNH3CH6CHC2H2C5NH4C7H4CH3C2H4C2H2C6SH3SCHC2FeCHC2HSFeH5SCSH3SH5C3H3CH4NC8H20FeHCH2SC4H6SH4NHCH2FeC3NCH2CHCH2NC8H20FeC2HSHCHNHCHSFeH3FeC2H2NH4C2HCHCHCHCH2SH2CHSHC2SCH2CH4C2HFeC3HSC3H11NHSH6C2HCHCH4FeH2CHSC2H3FeHCH3SHCHC2H5SCH2FeHCH4C2SH2SC2H4SCH3C3H3CH3C2HC3H3SH2CFeH2C2H5CHFeCH7CHCHCH3CHS2H4CSH2CH3CHSH2CH3CH7SH4NFeS2FeSFeSFeS2C2SC2H2Fe2SH2S2H4FeSFeSHCFeS2FeS2FeSFeS3FeS2H2FeHCHFeS2FeS2FeSFeS3HC6H4C4H2SH2C2H5C6H5CFeC6H2C6H4C6H4CHNCHFeHC2H4CFeH2CH3C6H4C2H2C2HNC5HC2H12SCH7CH6CHC2H2C3HCHNC3SCH2CH5CH3CH2CHCFeHCH2C2H4NC2HCH3C2H11SH3C3H10NH2CH3CH4CHCH3CHNCH6CH7SC2FeH2SCH2FeCH3C2NCH2C2H2CH4C2H3SH4FeC3H4CH4C4H2CHSC2H4CHCNC8H12SCHCH2C2H2NH2CHC3HCH3SC2HCH6CHSCHSH6C2HCH3SH5CH2SCSH5SNH3SH4CH3NHSCH2C2H2NH2CH4CH3CH3C2HC2H5CH2FeHNHCH2C2FeS2H2CHS2C2H2SH5SHC7SH3CHCHCH2C4HCH8NCH8NHCH4CH2CH4CHCFeHCH2CH3FeHCHSHSFeS2HNCHFeSCSFeCSH4FeS2FeS2FeSFeS3HFeHFeS2FeSH2SH3SCH2FeS2C4H2S2H3NC2HC3H4C6H4C6H5CHCSH3C6H5C6H4C6H4C6H5C2H2NCHCHCHFeH7CFeHCH6CSH2C2H7CHCHS2H2NC7H17NHC2H5CH3CHS2HCH2FeCH7NC8H18FeCH3C2HCH2CSNCH2SFeH2C3H4FeHFeHCH2SHC4H2CH4SH8CH4C2HCHC2H5NH4NCHCHC5HCHCH2CSC2HCH3SH2CHCSH2CNFeCHCFeC2H2C3H4CHSH7CSHC2H2SHC2HCH2FeHCH2CFeCH4CSH2CFeC2H5FeCSC3H3C2H3CNSH
_chemical_formula_sum              "Fe384 S768 H4608 C2688 N192"
_cell_length_a       80.0555
_cell_length_b       80.8956
_cell_length_c       80.9183
_cell_angle_alpha    75.7346
_cell_angle_beta     75.6879
_cell_angle_gamma    75.71

_space_group_name_H-M_alt    "P 1"
_space_group_IT_number       1

loop_
  _space_group_symop_operation_xyz
  'x, y, z'

loop_
  _atom_site_type_symbol
  _atom_site_label
  _atom_site_symmetry_multiplicity
  _atom_site_fract_x
  _atom_site_fract_y
  _atom_site_fract_z
  _atom_site_occupancy
  Fe  Fe1       1.0  0.11396  0.99880  0.74642  1.0000
  S   S1        1.0  0.12988  0.00902  0.75938  1.0000
  Fe  Fe2       1.0  0.07970  0.01139  0.77007  1.0000
  S   S2        1.0  0.09256  0.02273  0.78522  1.0000
  S   S3        1.0  0.05107  0.00969  0.77594  1.0000
  Fe  Fe3       1.0  0.10805  0.03257  0.75895  1.0000
  S   S4        1.0  0.11388  0.05948  0.75152  1.0000
  H   H1        1.0  0.04043  0.04135  0.82519  1.0000
  S   S5        1.0  0.09342  0.02336  0.74387  1.0000
  H   H2        1.0  0.15848  0.24807  0.70725  1.0000
  C   C1        1.0  0.05309  0.05544  0.79910  1.0000
  C   C2        1.0  0.05236  0.08682  0.78967  1.0000
  H   H3        1.0  0.12861  0.02005  0.79958  1.0000
  S   S6        1.0  0.16344  0.02522  0.83947  1.0000
  S   S7        1.0  0.03875  0.12304  0.73413  1.0000
  H   H4        1.0  0.03477  0.30006  0.82901  1.0000
  C   C3        1.0  0.02474  0.25347  0.84456  1.0000
  S   S8        1.0  0.02212  0.26528  0.62060  1.0000
  H   H5        1.0  0.11348  0.13793  0.75835  1.0000
  H   H6        1.0  0.09409  0.13249  0.75619  1.0000
  S   S9        1.0  0.23328  0.04994  0.61505  1.0000
  C   C4        1.0  0.15249  0.01371  0.83106  1.0000
  Fe  Fe4       1.0  0.21762  0.09867  0.69103  1.0000
  H   H7        1.0  0.03581  0.15558  0.66745  1.0000
  Fe  Fe5       1.0  0.19498  0.99467  0.89049  1.0000
  Fe  Fe6       1.0  0.19255  0.11073  0.72251  1.0000
  S   S10       1.0  0.20417  0.08763  0.74113  1.0000
  S   S11       1.0  0.16861  0.12859  0.73466  1.0000
  H   H8        1.0  0.14011  0.04140  0.69871  1.0000
  H   H9        1.0  0.24621  0.10131  0.82835  1.0000
  Fe  Fe7       1.0  0.20435  0.07219  0.72168  1.0000
  S   S12       1.0  0.19635  0.04631  0.72885  1.0000
  S   S13       1.0  0.21885  0.11677  0.70777  1.0000
  S   S14       1.0  0.19047  0.09464  0.70439  1.0000
  H   H10       1.0  0.14293  0.03621  0.81270  1.0000
  H   H11       1.0  0.05026  0.24620  0.85174  1.0000
  H   H12       1.0  0.18316  0.18139  0.72780  1.0000
  H   H13       1.0  0.14138  0.24827  0.69661  1.0000
  S   S15       1.0  0.10334  0.29672  0.81106  1.0000
  H   H14       1.0  0.23006  0.10752  0.62548  1.0000
  H   H15       1.0  0.02991  0.18029  0.64347  1.0000
  S   S16       1.0  0.10691  0.29074  0.76358  1.0000
  H   H16       1.0  0.99844  0.14587  0.79667  1.0000
  Fe  Fe8       1.0  0.07912  0.19486  0.73202  1.0000
  S   S17       1.0  0.09615  0.21330  0.73112  1.0000
  S   S18       1.0  0.07233  0.17483  0.75592  1.0000
  Fe  Fe9       1.0  0.07070  0.21203  0.69613  1.0000
  S   S19       1.0  0.08726  0.23208  0.69186  1.0000
  S   S20       1.0  0.05221  0.20819  0.68097  1.0000
  Fe  Fe10      1.0  0.10679  0.20962  0.70357  1.0000
  S   S21       1.0  0.13585  0.20212  0.69337  1.0000
  Fe  Fe11      1.0  0.07536  0.23387  0.71981  1.0000
  S   S22       1.0  0.06190  0.25773  0.73095  1.0000
  S   S23       1.0  0.09133  0.18958  0.70531  1.0000
  S   S24       1.0  0.05735  0.21562  0.72314  1.0000
  C   C5        1.0  0.13773  0.20895  0.74854  1.0000
  H   H17       1.0  0.20787  0.11053  0.78646  1.0000
  H   H18       1.0  0.13079  0.14372  0.70926  1.0000
  C   C6        1.0  0.08670  0.10334  0.72300  1.0000
  H   H19       1.0  0.13137  0.12604  0.73377  1.0000
  C   C7        1.0  0.10658  0.13370  0.71179  1.0000
  C   C8        1.0  0.01229  0.26712  0.83760  1.0000
  H   H20       1.0  0.04070  0.17999  0.82468  1.0000
  C   C9        1.0  0.00411  0.05567  0.77657  1.0000
  H   H21       1.0  0.12141  0.10352  0.70416  1.0000
  C   C10       1.0  0.09456  0.28034  0.75554  1.0000
  C   C11       1.0  0.10283  0.27132  0.74199  1.0000
  C   C12       1.0  0.09301  0.26380  0.73469  1.0000
  C   C13       1.0  0.07484  0.26561  0.74071  1.0000
  C   C14       1.0  0.06663  0.27442  0.75435  1.0000
  C   C15       1.0  0.07649  0.28158  0.76187  1.0000
  H   H22       1.0  0.11679  0.27044  0.73696  1.0000
  H   H23       1.0  0.09937  0.25713  0.72403  1.0000
  H   H24       1.0  0.05259  0.27576  0.75910  1.0000
  S   S25       1.0  0.99950  0.18005  0.83885  1.0000
  C   C16       1.0  0.15996  0.14891  0.72269  1.0000
  C   C17       1.0  0.14391  0.15841  0.73017  1.0000
  C   C18       1.0  0.13620  0.17438  0.72093  1.0000
  C   C19       1.0  0.14483  0.18135  0.70436  1.0000
  C   C20       1.0  0.16111  0.17207  0.69699  1.0000
  C   C21       1.0  0.16855  0.15574  0.70603  1.0000
  H   H25       1.0  0.13736  0.15332  0.74314  1.0000
  H   H26       1.0  0.12368  0.18138  0.72677  1.0000
  H   H27       1.0  0.16790  0.17743  0.68420  1.0000
  H   H28       1.0  0.18098  0.14852  0.70017  1.0000
  H   H29       1.0  0.18210  0.21522  0.75191  1.0000
  H   H30       1.0  0.05155  0.27957  0.69959  1.0000
  H   H31       1.0  0.19474  0.01613  0.80946  1.0000
  H   H32       1.0  0.01413  0.15957  0.66346  1.0000
  H   H33       1.0  0.10423  0.14882  0.73971  1.0000
  H   H34       1.0  0.09754  0.10014  0.74567  1.0000
  C   C22       1.0  0.03723  0.99965  0.73192  1.0000
  N   N1        1.0  0.04385  0.07309  0.80308  1.0000
  H   H35       1.0  0.03848  0.06619  0.83144  1.0000
  H   H36       1.0  0.04476  0.25286  0.70424  1.0000
  H   H37       1.0  0.23235  0.02742  0.77803  1.0000
  H   H38       1.0  0.02981  0.27357  0.90305  1.0000
  H   H39       1.0  0.12861  0.13799  0.68982  1.0000
  S   S26       1.0  0.06491  0.30573  0.79882  1.0000
  C   C23       1.0  0.15621  0.00812  0.68399  1.0000
  H   H40       1.0  0.11453  0.21159  0.76916  1.0000
  C   C24       1.0  0.22722  0.00672  0.93288  1.0000
  H   H41       1.0  0.14445  0.19889  0.75808  1.0000
  H   H42       1.0  0.12335  0.09063  0.72504  1.0000
  C   C25       1.0  0.03113  0.24924  0.63687  1.0000
  C   C26       1.0  0.04764  0.24911  0.64007  1.0000
  C   C27       1.0  0.05431  0.23672  0.65371  1.0000
  C   C28       1.0  0.04447  0.22443  0.66409  1.0000
  C   C29       1.0  0.02805  0.22465  0.66078  1.0000
  C   C30       1.0  0.02152  0.23681  0.64714  1.0000
  H   H43       1.0  0.05519  0.25863  0.63204  1.0000
  H   H44       1.0  0.06711  0.23653  0.65602  1.0000
  H   H45       1.0  0.02017  0.21554  0.66886  1.0000
  Fe  Fe12      1.0  0.11341  0.99843  0.78449  1.0000
  H   H46       1.0  0.11562  0.15740  0.69710  1.0000
  H   H47       1.0  0.15740  0.99525  0.69295  1.0000
  H   H48       1.0  0.09576  0.09225  0.71770  1.0000
  H   H49       1.0  0.02923  0.28905  0.72025  1.0000
  H   H50       1.0  0.03813  0.08839  0.82303  1.0000
  C   C31       1.0  0.12446  0.10371  0.71681  1.0000
  H   H51       1.0  0.03340  0.21067  0.82536  1.0000
  H   H52       1.0  0.07437  0.31402  0.73823  1.0000
  H   H53       1.0  0.15931  0.23023  0.69691  1.0000
  C   C32       1.0  0.04703  0.13774  0.74077  1.0000
  C   C33       1.0  0.04625  0.13703  0.75841  1.0000
  C   C34       1.0  0.05406  0.14842  0.76324  1.0000
  C   C35       1.0  0.06181  0.16095  0.75044  1.0000
  C   C36       1.0  0.06159  0.16212  0.73301  1.0000
  C   C37       1.0  0.05484  0.15016  0.72810  1.0000
  H   H54       1.0  0.03999  0.12751  0.76823  1.0000
  H   H55       1.0  0.05399  0.14760  0.77680  1.0000
  H   H56       1.0  0.06667  0.17217  0.72318  1.0000
  H   H57       1.0  0.05534  0.15081  0.71448  1.0000
  C   C38       1.0  0.03219  0.28700  0.83307  1.0000
  H   H58       1.0  0.14748  0.11658  0.70522  1.0000
  H   H59       1.0  0.09531  0.14319  0.71744  1.0000
  C   C39       1.0  0.11862  0.12183  0.73907  1.0000
  C   C40       1.0  0.09496  0.11075  0.73427  1.0000
  H   H60       1.0  0.15972  0.20262  0.71520  1.0000
  H   H61       1.0  0.04392  0.24989  0.68360  1.0000
  C   C41       1.0  0.13665  0.05685  0.74394  1.0000
  C   C42       1.0  0.14605  0.06773  0.74727  1.0000
  C   C43       1.0  0.16443  0.06475  0.74225  1.0000
  C   C44       1.0  0.17340  0.05059  0.73442  1.0000
  C   C45       1.0  0.16400  0.03989  0.73087  1.0000
  C   C46       1.0  0.14561  0.04333  0.73519  1.0000
  H   H62       1.0  0.13918  0.07818  0.75406  1.0000
  H   H63       1.0  0.17166  0.07312  0.74494  1.0000
  H   H64       1.0  0.17094  0.02901  0.72474  1.0000
  H   H65       1.0  0.13834  0.03546  0.73183  1.0000
  C   C47       1.0  0.03345  0.02783  0.77560  1.0000
  C   C48       1.0  0.03512  0.04439  0.76552  1.0000
  C   C49       1.0  0.02041  0.05834  0.76598  1.0000
  H   H66       1.0  0.02301  0.00373  0.73733  1.0000
  S   S27       1.0  0.18793  0.99541  0.91908  1.0000
  C   C50       1.0  0.01707  0.02524  0.78570  1.0000
  H   H67       1.0  0.04767  0.04644  0.75741  1.0000
  H   H68       1.0  0.03825  0.99785  0.71856  1.0000
  H   H69       1.0  0.01560  0.01248  0.79337  1.0000
  C   C51       1.0  0.13532  0.01329  0.81015  1.0000
  C   C52       1.0  0.14345  0.02241  0.81758  1.0000
  N   N2        1.0  0.22969  0.08394  0.80977  1.0000
  C   C53       1.0  0.22640  0.10210  0.81329  1.0000
  C   C54       1.0  0.22612  0.08556  0.79195  1.0000
  H   H70       1.0  0.23350  0.11068  0.80219  1.0000
  C   C55       1.0  0.21799  0.07352  0.82395  1.0000
  C   C56       1.0  0.05185  0.08767  0.77050  1.0000
  C   C57       1.0  0.20800  0.09638  0.78881  1.0000
  H   H71       1.0  0.08178  0.11351  0.71239  1.0000
  C   C58       1.0  0.21289  0.05817  0.81943  1.0000
  H   H72       1.0  0.02383  0.23353  0.69872  1.0000
  H   H73       1.0  0.21222  0.10832  0.81449  1.0000
  H   H74       1.0  0.01721  0.05129  0.81090  1.0000
  H   H75       1.0  0.23570  0.11998  0.74415  1.0000
  H   H76       1.0  0.02402  0.29443  0.66642  1.0000
  C   C59       1.0  0.16806  0.22040  0.75707  1.0000
  H   H77       1.0  0.22410  0.06821  0.83555  1.0000
  H   H78       1.0  0.20530  0.08198  0.82871  1.0000
  H   H79       1.0  0.00029  0.13341  0.69454  1.0000
  H   H80       1.0  0.00770  0.25266  0.70096  1.0000
  H   H81       1.0  0.00739  0.27940  0.65629  1.0000
  H   H82       1.0  0.19716  0.09306  0.79977  1.0000
  H   H83       1.0  0.01166  0.26088  0.78314  1.0000
  H   H84       1.0  0.03467  0.14249  0.69756  1.0000
  H   H85       1.0  0.21975  0.05056  0.75685  1.0000
  H   H86       1.0  0.20354  0.06278  0.81041  1.0000
  H   H87       1.0  0.20603  0.05066  0.83155  1.0000
  C   C60       1.0  0.06406  0.07266  0.82369  1.0000
  H   H88       1.0  0.04182  0.26591  0.88323  1.0000
  C   C61       1.0  0.99890  0.16088  0.81526  1.0000
  H   H89       1.0  0.14220  0.01468  0.68673  1.0000
  Fe  Fe13      1.0  0.01048  0.12399  0.74669  1.0000
  C   C62       1.0  0.02317  0.21997  0.81886  1.0000
  H   H90       1.0  0.01171  0.25405  0.92141  1.0000
  C   C63       1.0  0.23253  0.04219  0.75235  1.0000
  H   H91       1.0  0.01278  0.29792  0.69673  1.0000
  H   H92       1.0  0.02748  0.21304  0.89834  1.0000
  H   H93       1.0  0.17861  0.02182  0.79596  1.0000
  H   H94       1.0  0.16567  0.01014  0.76015  1.0000
  H   H95       1.0  0.00371  0.27926  0.70326  1.0000
  H   H96       1.0  0.07275  0.06070  0.81980  1.0000
  H   H97       1.0  0.24029  0.13740  0.76353  1.0000
  H   H98       1.0  0.01993  0.16505  0.72295  1.0000
  H   H99       1.0  0.03705  0.18625  0.65993  1.0000
  H   H100      1.0  0.03209  0.17818  0.78075  1.0000
  H   H101      1.0  0.16620  0.98854  0.72728  1.0000
  H   H102      1.0  0.19671  0.03030  0.92432  1.0000
  H   H103      1.0  0.00903  0.23648  0.64451  1.0000
  H   H104      1.0  0.21370  0.00541  0.93297  1.0000
  C   C64       1.0  0.23746  0.04325  0.86088  1.0000
  C   C65       1.0  0.20455  0.03433  0.91118  1.0000
  C   C66       1.0  0.01610  0.28371  0.70171  1.0000
  H   H105      1.0  0.05723  0.07495  0.76645  1.0000
  C   C67       1.0  0.23170  0.10348  0.82994  1.0000
  H   H106      1.0  0.02447  0.26737  0.72570  1.0000
  H   H107      1.0  0.04279  0.29789  0.68476  1.0000
  C   C68       1.0  0.00962  0.27427  0.66980  1.0000
  N   N3        1.0  0.17051  0.03525  0.67440  1.0000
  C   C69       1.0  0.18204  0.03060  0.65771  1.0000
  C   C70       1.0  0.16840  0.01853  0.68732  1.0000
  C   C71       1.0  0.17861  0.04599  0.68187  1.0000
  C   C72       1.0  0.15306  0.04577  0.67061  1.0000
  C   C73       1.0  0.18757  0.04589  0.64338  1.0000
  Fe  Fe14      1.0  0.07455  0.29951  0.82379  1.0000
  C   C74       1.0  0.19693  0.03745  0.68606  1.0000
  C   C75       1.0  0.13917  0.05105  0.68647  1.0000
  H   H108      1.0  0.19431  0.02122  0.66022  1.0000
  H   H109      1.0  0.17545  0.02363  0.65173  1.0000
  H   H110      1.0  0.16356  0.02080  0.70085  1.0000
  H   H111      1.0  0.18140  0.00960  0.68765  1.0000
  H   H112      1.0  0.17948  0.05889  0.67316  1.0000
  H   H113      1.0  0.17007  0.04920  0.69423  1.0000
  H   H114      1.0  0.15485  0.05822  0.66142  1.0000
  H   H115      1.0  0.14716  0.03921  0.66352  1.0000
  H   H116      1.0  0.19636  0.04060  0.63211  1.0000
  H   H117      1.0  0.17620  0.05489  0.63845  1.0000
  H   H118      1.0  0.19520  0.05320  0.64762  1.0000
  H   H119      1.0  0.15181  0.09370  0.70634  1.0000
  H   H120      1.0  0.22583  0.01433  0.94308  1.0000
  H   H121      1.0  0.17599  0.21231  0.71824  1.0000
  H   H122      1.0  0.20193  0.04694  0.69049  1.0000
  H   H123      1.0  0.20662  0.03378  0.67457  1.0000
  H   H124      1.0  0.19638  0.02590  0.69680  1.0000
  H   H125      1.0  0.14027  0.06378  0.68859  1.0000
  C   C76       1.0  0.03597  0.25593  0.69471  1.0000
  H   H126      1.0  0.17695  0.18979  0.74734  1.0000
  C   C77       1.0  0.22666  0.08915  0.64972  1.0000
  H   H127      1.0  0.04939  0.02869  0.80886  1.0000
  H   H128      1.0  0.16209  0.20987  0.76623  1.0000
  H   H129      1.0  0.04324  0.98701  0.75648  1.0000
  H   H130      1.0  0.16797  0.23606  0.73179  1.0000
  C   C78       1.0  0.04447  0.27352  0.84049  1.0000
  H   H131      1.0  0.05084  0.16623  0.80954  1.0000
  H   H132      1.0  0.10148  0.13025  0.70177  1.0000
  H   H133      1.0  0.14825  0.24093  0.74638  1.0000
  C   C79       1.0  0.15823  0.22969  0.74213  1.0000
  C   C80       1.0  0.16459  0.20610  0.72537  1.0000
  H   H134      1.0  0.22941  0.03213  0.74715  1.0000
  H   H135      1.0  0.16815  0.99815  0.79089  1.0000
  H   H136      1.0  0.06997  0.28840  0.77228  1.0000
  H   H137      1.0  0.16206  0.18001  0.74098  1.0000
  C   C81       1.0  0.04076  0.25670  0.84608  1.0000
  H   H138      1.0  0.01416  0.19252  0.65791  1.0000
  C   C82       1.0  0.02018  0.14625  0.69818  1.0000
  C   C83       1.0  0.02275  0.16459  0.66916  1.0000
  H   H139      1.0  0.16746  0.22989  0.76519  1.0000
  C   C84       1.0  0.01621  0.28380  0.83160  1.0000
  S   S28       1.0  0.06382  0.27775  0.84396  1.0000
  C   C85       1.0  0.12137  0.14350  0.70147  1.0000
  H   H140      1.0  0.24013  0.05071  0.74186  1.0000
  H   H141      1.0  0.06356  0.07150  0.83777  1.0000
  H   H142      1.0  0.11365  0.22951  0.75134  1.0000
  C   C86       1.0  0.01001  0.27499  0.77752  1.0000
  H   H143      1.0  0.06391  0.03432  0.81891  1.0000
  H   H144      1.0  0.06018  0.09685  0.76202  1.0000
  C   C87       1.0  0.00031  0.25870  0.91473  1.0000
  C   C88       1.0  0.02061  0.24120  0.89379  1.0000
  N   N4        1.0  0.11146  0.11775  0.72525  1.0000
  C   C89       1.0  0.02085  0.24590  0.70348  1.0000
  H   H145      1.0  0.23363  0.99498  0.51522  1.0000
  C   C90       1.0  0.17197  0.18846  0.73627  1.0000
  H   H146      1.0  0.12159  0.10983  0.74903  1.0000
  Fe  Fe15      1.0  0.22130  0.99116  0.64706  1.0000
  N   N5        1.0  0.15035  0.21864  0.73480  1.0000
  H   H147      1.0  0.06655  0.08477  0.78996  1.0000
  C   C91       1.0  0.23668  0.98802  0.93925  1.0000
  H   H148      1.0  0.07418  0.28259  0.67499  1.0000
  H   H149      1.0  0.01171  0.25992  0.67176  1.0000
  Fe  Fe16      1.0  0.23753  0.02094  0.62485  1.0000
  H   H150      1.0  0.07508  0.09820  0.73130  1.0000
  C   C92       1.0  0.22380  0.03390  0.91165  1.0000
  H   H151      1.0  0.18875  0.00880  0.75347  1.0000
  H   H152      1.0  0.01090  0.19230  0.78680  1.0000
  H   H153      1.0  0.07112  0.99500  0.74471  1.0000
  H   H154      1.0  0.06746  0.05513  0.79442  1.0000
  H   H155      1.0  0.18650  0.31479  0.80516  1.0000
  H   H156      1.0  0.02075  0.13097  0.67863  1.0000
  H   H157      1.0  0.12763  0.22734  0.76661  1.0000
  C   C93       1.0  0.14484  0.98679  0.82998  1.0000
  H   H158      1.0  0.06629  0.26443  0.67313  1.0000
  C   C94       1.0  0.02600  0.28007  0.67125  1.0000
  H   H159      1.0  0.02166  0.07113  0.75829  1.0000
  H   H160      1.0  0.00665  0.29444  0.82621  1.0000
  C   C95       1.0  0.14419  0.10425  0.71336  1.0000
  H   H161      1.0  0.14904  0.10162  0.72565  1.0000
  H   H162      1.0  0.02155  0.27930  0.77921  1.0000
  H   H163      1.0  0.01831  0.09029  0.80416  1.0000
  H   H164      1.0  0.00728  0.28590  0.72886  1.0000
  H   H165      1.0  0.01056  0.27732  0.76334  1.0000
  H   H166      1.0  0.02613  0.23325  0.81551  1.0000
  C   C96       1.0  0.10670  0.13608  0.74870  1.0000
  H   H167      1.0  0.07007  0.08408  0.81675  1.0000
  H   H168      1.0  0.08437  0.12100  0.73953  1.0000
  C   C97       1.0  0.23639  0.00643  0.90125  1.0000
  H   H169      1.0  0.22346  0.04171  0.92138  1.0000
  H   H170      1.0  0.12579  0.05204  0.68423  1.0000
  N   N6        1.0  0.03770  0.20922  0.79015  1.0000
  C   C98       1.0  0.04676  0.22461  0.78425  1.0000
  C   C99       1.0  0.02091  0.21436  0.80278  1.0000
  C   C100      1.0  0.03315  0.20599  0.77434  1.0000
  C   C101      1.0  0.05012  0.19369  0.79813  1.0000
  C   C102      1.0  0.06361  0.22280  0.77003  1.0000
  H   H171      1.0  0.01412  0.14518  0.71219  1.0000
  S   S29       1.0  0.12662  0.98802  0.72204  1.0000
  H   H172      1.0  0.20360  0.02629  0.90232  1.0000
  H   H173      1.0  0.03763  0.23663  0.77928  1.0000
  H   H174      1.0  0.05079  0.22743  0.79533  1.0000
  H   H175      1.0  0.01330  0.20383  0.80772  1.0000
  H   H176      1.0  0.01187  0.22532  0.79613  1.0000
  H   H177      1.0  0.02502  0.21799  0.76791  1.0000
  H   H178      1.0  0.04518  0.20292  0.76443  1.0000
  H   H179      1.0  0.05997  0.18777  0.78778  1.0000
  H   H180      1.0  0.05780  0.19795  0.80552  1.0000
  H   H181      1.0  0.07311  0.21051  0.77314  1.0000
  H   H182      1.0  0.06048  0.22392  0.75715  1.0000
  H   H183      1.0  0.07035  0.23368  0.76869  1.0000
  S   S30       1.0  0.22519  0.10501  0.66184  1.0000
  C   C103      1.0  0.15310  0.99587  0.83729  1.0000
  C   C104      1.0  0.17771  0.00987  0.76470  1.0000
  H   H184      1.0  0.22389  0.06778  0.67154  1.0000
  H   H185      1.0  0.02905  0.17781  0.80914  1.0000
  H   H186      1.0  0.17592  0.02268  0.76824  1.0000
  H   H187      1.0  0.03194  0.24180  0.89913  1.0000
  H   H188      1.0  0.99748  0.27953  0.67848  1.0000
  C   C105      1.0  0.01969  0.28120  0.72013  1.0000
  C   C106      1.0  0.13993  0.23066  0.72175  1.0000
  C   C107      1.0  0.15067  0.23969  0.70479  1.0000
  C   C108      1.0  0.12264  0.22023  0.75936  1.0000
  H   H189      1.0  0.13182  0.22352  0.71777  1.0000
  H   H190      1.0  0.13046  0.24129  0.72753  1.0000
  H   H191      1.0  0.13174  0.20149  0.74246  1.0000
  H   H192      1.0  0.04629  0.10003  0.79257  1.0000
  Fe  Fe17      1.0  0.23024  0.09228  0.72490  1.0000
  H   H193      1.0  0.03679  0.27426  0.66150  1.0000
  H   H194      1.0  0.18389  0.99128  0.81381  1.0000
  H   H195      1.0  0.22427  0.04893  0.81391  1.0000
  H   H196      1.0  0.15980  0.00556  0.67060  1.0000
  H   H197      1.0  0.04855  0.05309  0.78815  1.0000
  H   H198      1.0  0.08799  0.00701  0.71752  1.0000
  H   H199      1.0  0.02011  0.19084  0.76469  1.0000
  C   C109      1.0  0.22941  0.09413  0.63160  1.0000
  H   H200      1.0  0.19820  0.04790  0.90618  1.0000
  H   H201      1.0  0.02192  0.24051  0.84903  1.0000
  S   S31       1.0  0.00080  0.11533  0.77522  1.0000
  H   H202      1.0  0.24432  0.00265  0.76572  1.0000
  H   H203      1.0  0.23088  0.06618  0.87220  1.0000
  C   C110      1.0  0.01325  0.06439  0.81423  1.0000
  S   S32       1.0  0.24647  0.01456  0.84527  1.0000
  H   H204      1.0  0.02189  0.18945  0.68717  1.0000
  H   H205      1.0  0.06035  0.28570  0.65981  1.0000
  H   H206      1.0  0.23618  0.09168  0.78189  1.0000
  H   H207      1.0  0.19687  0.03261  0.79024  1.0000
  S   S33       1.0  0.23132  0.07482  0.70680  1.0000
  C   C111      1.0  0.17961  0.99469  0.78045  1.0000
  H   H208      1.0  0.02022  0.24200  0.71774  1.0000
  N   N7        1.0  0.23540  0.01612  0.91533  1.0000
  H   H209      1.0  0.20536  0.09390  0.77688  1.0000
  H   H210      1.0  0.00262  0.18311  0.71669  1.0000
  C   C112      1.0  0.08010  0.99773  0.71694  1.0000
  H   H211      1.0  0.01429  0.22105  0.91688  1.0000
  C   C113      1.0  0.06265  0.27859  0.67292  1.0000
  C   C114      1.0  0.04186  0.17889  0.81101  1.0000
  C   C115      1.0  0.22584  0.07176  0.65754  1.0000
  C   C116      1.0  0.04658  0.28339  0.68725  1.0000
  H   H212      1.0  0.22738  0.07267  0.78880  1.0000
  H   H213      1.0  0.03819  0.17134  0.69263  1.0000
  C   C117      1.0  0.13604  0.99542  0.81631  1.0000
  H   H214      1.0  0.23319  0.08608  0.60728  1.0000
  C   C118      1.0  0.02346  0.19097  0.77719  1.0000
  S   S34       1.0  0.19643  0.01970  0.87078  1.0000
  H   H215      1.0  0.02580  0.24096  0.87976  1.0000
  C   C119      1.0  0.23066  0.06457  0.62891  1.0000
  N   N8        1.0  0.00600  0.25688  0.89589  1.0000
  Fe  Fe18      1.0  0.22140  0.00453  0.85774  1.0000
  Fe  Fe19      1.0  0.18295  0.00878  0.85579  1.0000
  C   C120      1.0  0.05140  0.03940  0.81408  1.0000
  H   H216      1.0  0.24338  0.01462  0.80213  1.0000
  H   H217      1.0  0.22455  0.04011  0.86571  1.0000
  Fe  Fe20      1.0  0.09328  0.30430  0.78617  1.0000
  S   S35       1.0  0.22163  0.00437  0.61916  1.0000
  H   H218      1.0  0.16730  0.31726  0.79651  1.0000
  S   S36       1.0  0.23494  0.00929  0.65323  1.0000
  H   H219      1.0  0.00473  0.31732  0.79776  1.0000
  H   H220      1.0  0.04346  0.01054  0.73176  1.0000
  N   N9        1.0  0.03090  0.27539  0.68890  1.0000
  H   H221      1.0  0.02377  0.18665  0.71676  1.0000
  N   N10       1.0  0.01529  0.16460  0.68825  1.0000
  C   C121      1.0  0.23122  0.08197  0.62128  1.0000
  H   H222      1.0  0.00330  0.28494  0.88733  1.0000
  H   H223      1.0  0.01060  0.22053  0.82848  1.0000
  H   H224      1.0  0.22638  0.09435  0.84159  1.0000
  C   C122      1.0  0.01615  0.22324  0.90254  1.0000
  H   H225      1.0  0.03262  0.28835  0.88246  1.0000
  N   N11       1.0  0.19661  0.99035  0.78697  1.0000
  S   S37       1.0  0.20813  0.99557  0.84115  1.0000
  H   H226      1.0  0.20679  0.01311  0.77136  1.0000
  H   H227      1.0  0.02321  0.07672  0.78872  1.0000
  C   C123      1.0  0.02365  0.17598  0.69468  1.0000
  H   H228      1.0  0.22797  0.04599  0.65304  1.0000
  C   C124      1.0  0.22810  0.05942  0.64709  1.0000
  H   H229      1.0  0.16457  0.31818  0.81874  1.0000
  H   H230      1.0  0.04826  0.30935  0.75194  1.0000
  C   C125      1.0  0.04519  0.07518  0.82070  1.0000
  H   H231      1.0  0.03847  0.09293  0.76768  1.0000
  C   C126      1.0  0.02470  0.07691  0.80192  1.0000
  C   C127      1.0  0.02597  0.18204  0.65719  1.0000
  H   H232      1.0  0.99945  0.06931  0.81236  1.0000
  H   H233      1.0  0.21721  0.00221  0.78908  1.0000
  H   H234      1.0  0.01209  0.15446  0.81693  1.0000
  C   C128      1.0  0.01306  0.27280  0.88530  1.0000
  H   H235      1.0  0.16001  0.98905  0.84767  1.0000
  H   H236      1.0  0.00473  0.22096  0.89866  1.0000
  C   C129      1.0  0.19283  0.01987  0.79581  1.0000
  H   H237      1.0  0.10401  0.31552  0.72919  1.0000
  H   H238      1.0  0.22031  0.99539  0.75378  1.0000
  C   C130      1.0  0.24104  0.05803  0.86451  1.0000
  H   H239      1.0  0.01296  0.06362  0.82814  1.0000
  H   H240      1.0  0.23635  0.01559  0.88851  1.0000
  H   H241      1.0  0.06824  0.00553  0.71211  1.0000
  C   C131      1.0  0.01691  0.17760  0.71390  1.0000
  H   H242      1.0  0.08832  0.99000  0.70721  1.0000
  H   H243      1.0  0.01959  0.11910  0.70042  1.0000
  C   C132      1.0  0.00256  0.03904  0.78625  1.0000
  H   H244      1.0  0.22649  0.11688  0.83244  1.0000
  C   C133      1.0  0.01477  0.13186  0.69235  1.0000
  H   H245      1.0  0.22915  0.04142  0.89880  1.0000
  H   H246      1.0  0.24296  0.04520  0.77322  1.0000
  C   C134      1.0  0.07597  0.98618  0.73519  1.0000
  C   C135      1.0  0.24180  0.03425  0.76785  1.0000
  C   C136      1.0  0.20419  0.00618  0.78511  1.0000
  H   H247      1.0  0.22437  0.00087  0.90380  1.0000
  H   H248      1.0  0.01531  0.27298  0.87114  1.0000
  H   H249      1.0  0.05898  0.31853  0.71885  1.0000
  H   H250      1.0  0.17352  0.99035  0.95520  1.0000
  C   C137      1.0  0.03031  0.27507  0.88896  1.0000
  C   C138      1.0  0.24616  0.11506  0.75144  1.0000
  S   S38       1.0  0.03092  0.62980  0.25501  1.0000
  H   H251      1.0  0.22601  0.56231  0.00458  1.0000
  H   H252      1.0  0.02575  0.60861  0.29392  1.0000
  H   H253      1.0  0.06267  0.62237  0.26753  1.0000
  C   C139      1.0  0.11896  0.64795  0.17259  1.0000
  H   H254      1.0  0.22070  0.61928  0.04457  1.0000
  C   C140      1.0  0.07440  0.63208  0.21824  1.0000
  H   H255      1.0  0.10457  0.64806  0.24309  1.0000
  N   N12       1.0  0.09659  0.65228  0.20133  1.0000
  C   C141      1.0  0.05913  0.63636  0.26354  1.0000
  C   C142      1.0  0.01510  0.62076  0.34341  1.0000
  H   H256      1.0  0.12117  0.64160  0.22555  1.0000
  H   H257      1.0  0.13336  0.64394  0.16799  1.0000
  H   H258      1.0  0.23961  0.55192  0.01994  1.0000
  H   H259      1.0  0.06500  0.62774  0.21296  1.0000
  H   H260      1.0  0.18280  0.59675  0.03232  1.0000
  H   H261      1.0  0.08791  0.63402  0.19140  1.0000
  H   H262      1.0  0.18052  0.61003  0.00521  1.0000
  Fe  Fe21      1.0  0.00171  0.63999  0.25714  1.0000
  C   C143      1.0  0.11548  0.65041  0.19156  1.0000
  H   H263      1.0  0.23249  0.63714  0.46914  1.0000
  C   C144      1.0  0.21266  0.60855  0.02634  1.0000
  H   H264      1.0  0.07821  0.62129  0.22897  1.0000
  C   C145      1.0  0.09070  0.63533  0.20378  1.0000
  C   C146      1.0  0.02317  0.63610  0.33128  1.0000
  C   C147      1.0  0.20853  0.59685  0.00286  1.0000
  H   H265      1.0  0.19964  0.61732  0.02923  1.0000
  H   H266      1.0  0.00992  0.62357  0.35671  1.0000
  H   H267      1.0  0.11267  0.63772  0.17127  1.0000
  H   H268      1.0  0.19572  0.62476  0.00041  1.0000
  H   H269      1.0  0.00420  0.61782  0.33924  1.0000
  C   C148      1.0  0.02092  0.61433  0.30581  1.0000
  N   N13       1.0  0.21070  0.59227  0.02159  1.0000
  H   H270      1.0  0.22092  0.59985  0.99406  1.0000
  C   C149      1.0  0.19372  0.61245  0.99819  1.0000
  H   H271      1.0  0.10156  0.62414  0.20680  1.0000
  H   H272      1.0  0.02539  0.60872  0.34464  1.0000
  H   H273      1.0  0.08124  0.64110  0.27110  1.0000
  H   H274      1.0  0.23873  0.58346  0.01364  1.0000
  H   H275      1.0  0.23069  0.57527  0.03558  1.0000
  C   C150      1.0  0.04384  0.64376  0.25685  1.0000
  H   H276      1.0  0.20756  0.57136  0.05483  1.0000
  C   C151      1.0  0.19457  0.57854  0.05210  1.0000
  H   H277      1.0  0.20592  0.58568  0.99884  1.0000
  H   H278      1.0  0.18596  0.56878  0.05697  1.0000
  C   C152      1.0  0.19450  0.58596  0.03263  1.0000
  Fe  Fe22      1.0  0.24071  0.63935  0.99748  1.0000
  H   H279      1.0  0.19106  0.57617  0.02714  1.0000
  C   C153      1.0  0.22723  0.57849  0.02258  1.0000
  H   H280      1.0  0.03767  0.63132  0.32821  1.0000
  H   H281      1.0  0.23609  0.60084  0.03828  1.0000
  H   H282      1.0  0.22052  0.61622  0.01510  1.0000
  C   C154      1.0  0.02388  0.63318  0.30106  1.0000
  H   H283      1.0  0.18946  0.58900  0.05979  1.0000
  C   C155      1.0  0.22180  0.60626  0.04170  1.0000
  H   H284      1.0  0.21583  0.59820  0.05377  1.0000
  H   H285      1.0  0.01846  0.63957  0.28909  1.0000
  H   H286      1.0  0.06691  0.64339  0.22397  1.0000
  C   C156      1.0  0.23518  0.64517  0.45632  1.0000
  H   H287      1.0  0.19382  0.61446  0.98407  1.0000
  H   H288      1.0  0.02122  0.64617  0.33920  1.0000
  H   H289      1.0  0.21630  0.55478  0.02718  1.0000
  C   C157      1.0  0.06965  0.64695  0.26554  1.0000
  H   H290      1.0  0.10261  0.63071  0.23411  1.0000
  H   H291      1.0  0.12400  0.63906  0.19833  1.0000
  C   C158      1.0  0.10682  0.64338  0.23076  1.0000
  H   H292      1.0  0.24518  0.64518  0.03526  1.0000
  C   C159      1.0  0.22695  0.56100  0.01830  1.0000
  H   H293      1.0  0.02876  0.60611  0.31545  1.0000
  N   N14       1.0  0.01642  0.64425  0.31471  1.0000
  H   H294      1.0  0.00691  0.61333  0.31021  1.0000
  H   H295      1.0  0.03832  0.63198  0.29701  1.0000
  H   H296      1.0  0.05105  0.65163  0.29896  1.0000
  C   C160      1.0  0.16953  0.44894  0.72265  1.0000
  H   H297      1.0  0.10997  0.56572  0.87081  1.0000
  H   H298      1.0  0.08331  0.50895  0.81027  1.0000
  H   H299      1.0  0.17292  0.53840  0.88362  1.0000
  H   H300      1.0  0.14413  0.49837  0.74588  1.0000
  Fe  Fe23      1.0  0.14437  0.57672  0.81816  1.0000
  S   S39       1.0  0.16918  0.58132  0.79942  1.0000
  S   S40       1.0  0.13416  0.59052  0.84119  1.0000
  Fe  Fe24      1.0  0.13875  0.55059  0.79841  1.0000
  S   S41       1.0  0.16325  0.55387  0.77820  1.0000
  S   S42       1.0  0.12671  0.52731  0.80016  1.0000
  Fe  Fe25      1.0  0.17551  0.55264  0.80058  1.0000
  S   S43       1.0  0.20152  0.53527  0.80360  1.0000
  Fe  Fe26      1.0  0.15436  0.58223  0.77903  1.0000
  S   S44       1.0  0.15752  0.60429  0.75625  1.0000
  S   S45       1.0  0.15181  0.54763  0.82093  1.0000
  S   S46       1.0  0.12871  0.57944  0.79761  1.0000
  H   H301      1.0  0.13941  0.50508  0.90747  1.0000
  H   H302      1.0  0.21230  0.52487  0.68376  1.0000
  C   C161      1.0  0.10855  0.45667  0.83064  1.0000
  C   C162      1.0  0.01365  0.41156  0.74378  1.0000
  H   H303      1.0  0.17607  0.52674  0.73256  1.0000
  H   H304      1.0  0.23523  0.59039  0.91663  1.0000
  S   S47       1.0  0.17595  0.63406  0.50671  1.0000
  Fe  Fe27      1.0  0.19428  0.62933  0.52526  1.0000
  S   S48       1.0  0.20540  0.60201  0.53832  1.0000
  C   C163      1.0  0.11154  0.48706  0.82464  1.0000
  H   H305      1.0  0.20775  0.63512  0.59929  1.0000
  Fe  Fe28      1.0  0.06316  0.45539  0.74806  1.0000
  S   S49       1.0  0.08636  0.44603  0.72842  1.0000
  S   S50       1.0  0.04003  0.44138  0.75801  1.0000
  Fe  Fe29      1.0  0.07978  0.48542  0.75084  1.0000
  S   S51       1.0  0.10405  0.47816  0.73106  1.0000
  S   S52       1.0  0.07488  0.50942  0.76260  1.0000
  Fe  Fe30      1.0  0.08548  0.47427  0.71629  1.0000
  S   S53       1.0  0.08510  0.48222  0.68774  1.0000
  Fe  Fe31      1.0  0.10240  0.45081  0.74520  1.0000
  S   S54       1.0  0.12583  0.43099  0.75219  1.0000
  S   S55       1.0  0.06106  0.48355  0.73494  1.0000
  S   S56       1.0  0.07936  0.45814  0.76608  1.0000
  Fe  Fe32      1.0  0.20481  0.51249  0.63895  1.0000
  S   S57       1.0  0.18191  0.50401  0.65871  1.0000
  C   C164      1.0  0.17124  0.34167  0.80004  1.0000
  Fe  Fe33      1.0  0.18692  0.55063  0.63274  1.0000
  S   S58       1.0  0.16268  0.54524  0.65233  1.0000
  S   S59       1.0  0.18562  0.57902  0.62018  1.0000
  Fe  Fe34      1.0  0.18121  0.52764  0.66883  1.0000
  S   S60       1.0  0.17479  0.52690  0.69764  1.0000
  Fe  Fe35      1.0  0.16570  0.52236  0.64035  1.0000
  S   S61       1.0  0.14297  0.51776  0.63177  1.0000
  S   S62       1.0  0.20537  0.53497  0.65033  1.0000
  S   S63       1.0  0.18873  0.52884  0.61946  1.0000
  H   H306      1.0  0.05006  0.47884  0.70463  1.0000
  H   H307      1.0  0.04936  0.33487  0.70295  1.0000
  H   H308      1.0  0.13953  0.57687  0.62846  1.0000
  Fe  Fe36      1.0  0.16238  0.43400  0.82591  1.0000
  S   S64       1.0  0.14683  0.43071  0.85335  1.0000
  S   S65       1.0  0.15504  0.45677  0.80492  1.0000
  Fe  Fe37      1.0  0.18811  0.40029  0.83289  1.0000
  S   S66       1.0  0.17486  0.39391  0.86081  1.0000
  S   S67       1.0  0.21228  0.38328  0.82050  1.0000
  Fe  Fe38      1.0  0.14956  0.40292  0.85079  1.0000
  S   S68       1.0  0.12738  0.38774  0.85919  1.0000
  Fe  Fe39      1.0  0.17348  0.42215  0.86080  1.0000
  S   S69       1.0  0.18302  0.42824  0.88250  1.0000
  S   S70       1.0  0.16304  0.40712  0.82294  1.0000
  S   S71       1.0  0.18865  0.42764  0.83348  1.0000
  S   S72       1.0  0.22290  0.40763  0.73902  1.0000
  Fe  Fe40      1.0  0.06448  0.33325  0.79964  1.0000
  S   S73       1.0  0.09186  0.33267  0.78430  1.0000
  S   S74       1.0  0.04441  0.35669  0.79177  1.0000
  H   H309      1.0  0.11116  0.63067  0.82521  1.0000
  S   S75       1.0  0.12013  0.34128  0.80928  1.0000
  H   H310      1.0  0.22627  0.57388  0.66041  1.0000
  Fe  Fe41      1.0  0.23110  0.53511  0.88210  1.0000
  S   S76       1.0  0.20382  0.53994  0.89752  1.0000
  H   H311      1.0  0.21560  0.35520  0.78684  1.0000
  Fe  Fe42      1.0  0.20594  0.51101  0.90243  1.0000
  S   S77       1.0  0.18394  0.50223  0.89585  1.0000
  C   C165      1.0  0.21037  0.61458  0.62126  1.0000
  C   C166      1.0  0.11932  0.35544  0.82321  1.0000
  C   C167      1.0  0.12673  0.37034  0.81617  1.0000
  C   C168      1.0  0.12864  0.38065  0.82702  1.0000
  C   C169      1.0  0.12353  0.37600  0.84508  1.0000
  C   C170      1.0  0.11532  0.36159  0.85207  1.0000
  C   C171      1.0  0.11321  0.35134  0.84119  1.0000
  H   H312      1.0  0.13132  0.37376  0.80226  1.0000
  H   H313      1.0  0.13425  0.39212  0.82141  1.0000
  C   C172      1.0  0.21638  0.39101  0.79793  1.0000
  C   C173      1.0  0.22865  0.47231  0.84713  1.0000
  C   C174      1.0  0.07154  0.46807  0.85345  1.0000
  C   C175      1.0  0.22094  0.40155  0.76164  1.0000
  C   C176      1.0  0.20655  0.40991  0.77239  1.0000
  C   C177      1.0  0.20450  0.40488  0.79049  1.0000
  C   C178      1.0  0.09986  0.44315  0.82723  1.0000
  H   H314      1.0  0.19703  0.42037  0.76674  1.0000
  H   H315      1.0  0.19364  0.41166  0.79869  1.0000
  C   C179      1.0  0.18421  0.44901  0.88510  1.0000
  C   C180      1.0  0.17935  0.46427  0.87325  1.0000
  C   C181      1.0  0.18009  0.48052  0.87622  1.0000
  C   C182      1.0  0.18600  0.48161  0.89084  1.0000
  C   C183      1.0  0.19132  0.46631  0.90238  1.0000
  C   C184      1.0  0.19035  0.45011  0.89955  1.0000
  H   H316      1.0  0.17463  0.46357  0.86206  1.0000
  H   H317      1.0  0.17580  0.49230  0.86729  1.0000
  H   H318      1.0  0.19551  0.46699  0.91389  1.0000
  H   H319      1.0  0.19402  0.43839  0.90883  1.0000
  C   C185      1.0  0.18767  0.61483  0.89018  1.0000
  C   C186      1.0  0.02134  0.33496  0.79687  1.0000
  C   C187      1.0  0.02498  0.35165  0.79004  1.0000
  C   C188      1.0  0.01393  0.36402  0.78009  1.0000
  H   H320      1.0  0.16776  0.37027  0.83812  1.0000
  C   C189      1.0  0.23553  0.55341  0.95062  1.0000
  H   H321      1.0  0.01649  0.37704  0.77505  1.0000
  C   C190      1.0  0.23834  0.58388  0.60185  1.0000
  H   H322      1.0  0.12273  0.57738  0.61781  1.0000
  H   H323      1.0  0.13379  0.55672  0.62856  1.0000
  H   H324      1.0  0.11656  0.55195  0.61225  1.0000
  H   H325      1.0  0.11013  0.55721  0.59128  1.0000
  H   H326      1.0  0.05897  0.38411  0.74293  1.0000
  H   H327      1.0  0.20784  0.46955  0.72078  1.0000
  N   N15       1.0  0.16615  0.46857  0.71872  1.0000
  C   C191      1.0  0.17210  0.55420  0.85820  1.0000
  C   C192      1.0  0.00719  0.33038  0.79291  1.0000
  H   H328      1.0  0.16947  0.58386  0.72620  1.0000
  H   H329      1.0  0.18956  0.46885  0.73848  1.0000
  C   C193      1.0  0.13418  0.43815  0.76663  1.0000
  C   C194      1.0  0.14902  0.42813  0.77297  1.0000
  C   C195      1.0  0.15579  0.43401  0.78440  1.0000
  C   C196      1.0  0.14763  0.44980  0.78963  1.0000
  C   C197      1.0  0.13304  0.45993  0.78298  1.0000
  C   C198      1.0  0.12622  0.45408  0.77161  1.0000
  H   H330      1.0  0.15536  0.41592  0.76892  1.0000
  H   H331      1.0  0.16748  0.42646  0.78890  1.0000
  H   H332      1.0  0.12677  0.47211  0.78695  1.0000
  H   H333      1.0  0.11485  0.46197  0.76665  1.0000
  C   C199      1.0  0.03419  0.42850  0.74621  1.0000
  C   C200      1.0  0.02281  0.40988  0.72695  1.0000
  C   C201      1.0  0.03803  0.41700  0.72011  1.0000
  C   C202      1.0  0.04378  0.42612  0.72972  1.0000
  H   H334      1.0  0.04531  0.41564  0.70718  1.0000
  H   H335      1.0  0.05540  0.43168  0.72417  1.0000
  C   C203      1.0  0.10161  0.49218  0.67296  1.0000
  C   C204      1.0  0.10085  0.49602  0.65531  1.0000
  C   C205      1.0  0.11360  0.50389  0.64291  1.0000
  C   C206      1.0  0.12727  0.50802  0.64801  1.0000
  C   C207      1.0  0.12808  0.50436  0.66571  1.0000
  C   C208      1.0  0.11523  0.49637  0.67823  1.0000
  H   H336      1.0  0.09038  0.49282  0.65118  1.0000
  H   H337      1.0  0.11293  0.50670  0.62928  1.0000
  H   H338      1.0  0.13853  0.50774  0.66972  1.0000
  H   H339      1.0  0.11579  0.49357  0.69186  1.0000
  C   C209      1.0  0.19886  0.59527  0.56096  1.0000
  C   C210      1.0  0.20656  0.57872  0.56916  1.0000
  C   C211      1.0  0.20219  0.57333  0.58732  1.0000
  C   C212      1.0  0.19023  0.58458  0.59734  1.0000
  C   C213      1.0  0.18217  0.60092  0.58911  1.0000
  C   C214      1.0  0.18644  0.60623  0.57098  1.0000
  H   H340      1.0  0.21612  0.57014  0.56146  1.0000
  H   H341      1.0  0.20844  0.56068  0.59358  1.0000
  H   H342      1.0  0.17280  0.60963  0.59681  1.0000
  H   H343      1.0  0.18025  0.61888  0.56482  1.0000
  H   H344      1.0  0.03375  0.32390  0.73809  1.0000
  H   H345      1.0  0.14158  0.47179  0.71024  1.0000
  C   C215      1.0  0.14524  0.60509  0.84535  1.0000
  C   C216      1.0  0.16189  0.60741  0.83574  1.0000
  C   C217      1.0  0.16926  0.62075  0.83769  1.0000
  C   C218      1.0  0.16031  0.63159  0.84959  1.0000
  C   C219      1.0  0.14424  0.62847  0.86011  1.0000
  C   C220      1.0  0.13671  0.61530  0.85793  1.0000
  H   H346      1.0  0.16885  0.59937  0.82636  1.0000
  C   C221      1.0  0.22484  0.58609  0.96017  1.0000
  H   H347      1.0  0.04894  0.37782  0.72873  1.0000
  H   H348      1.0  0.12389  0.61352  0.86555  1.0000
  C   C222      1.0  0.21049  0.54047  0.81885  1.0000
  C   C223      1.0  0.20814  0.55774  0.82053  1.0000
  C   C224      1.0  0.21629  0.56178  0.83209  1.0000
  C   C225      1.0  0.22633  0.54850  0.84236  1.0000
  C   C226      1.0  0.22837  0.53120  0.84091  1.0000
  C   C227      1.0  0.22072  0.52723  0.82894  1.0000
  H   H349      1.0  0.20050  0.56805  0.81257  1.0000
  H   H350      1.0  0.21469  0.57517  0.83316  1.0000
  S   S78       1.0  0.23804  0.60770  0.73097  1.0000
  H   H351      1.0  0.22259  0.51389  0.82761  1.0000
  C   C228      1.0  0.11446  0.52499  0.78564  1.0000
  C   C229      1.0  0.11916  0.50977  0.77875  1.0000
  C   C230      1.0  0.10762  0.50537  0.77063  1.0000
  C   C231      1.0  0.09107  0.51599  0.76969  1.0000
  C   C232      1.0  0.08668  0.53160  0.77589  1.0000
  C   C233      1.0  0.09833  0.53613  0.78377  1.0000
  H   H352      1.0  0.13153  0.50102  0.78027  1.0000
  H   H353      1.0  0.11119  0.49347  0.76569  1.0000
  H   H354      1.0  0.07391  0.53990  0.77522  1.0000
  H   H355      1.0  0.09435  0.54770  0.78934  1.0000
  C   C234      1.0  0.21572  0.60657  0.73824  1.0000
  C   C235      1.0  0.21057  0.59044  0.74408  1.0000
  C   C236      1.0  0.19271  0.58970  0.75017  1.0000
  C   C237      1.0  0.17992  0.60506  0.74961  1.0000
  C   C238      1.0  0.18506  0.62115  0.74347  1.0000
  C   C239      1.0  0.20294  0.62191  0.73816  1.0000
  H   H356      1.0  0.22035  0.57852  0.74412  1.0000
  H   H357      1.0  0.18881  0.57721  0.75488  1.0000
  H   H358      1.0  0.17521  0.63303  0.74295  1.0000
  H   H359      1.0  0.20679  0.63440  0.73370  1.0000
  S   S79       1.0  0.00257  0.33358  0.68851  1.0000
  H   H360      1.0  0.16664  0.35150  0.85482  1.0000
  C   C240      1.0  0.18930  0.52620  0.72492  1.0000
  C   C241      1.0  0.19251  0.52593  0.70718  1.0000
  C   C242      1.0  0.20961  0.52546  0.69733  1.0000
  C   C243      1.0  0.16992  0.34611  0.82903  1.0000
  N   N16       1.0  0.09838  0.47524  0.82942  1.0000
  C   C244      1.0  0.20565  0.64475  0.92466  1.0000
  H   H361      1.0  0.02387  0.51382  0.69681  1.0000
  H   H362      1.0  0.18877  0.62764  0.89210  1.0000
  H   H363      1.0  0.02805  0.50228  0.71818  1.0000
  H   H364      1.0  0.15700  0.34761  0.80096  1.0000
  H   H365      1.0  0.20103  0.59725  0.66508  1.0000
  H   H366      1.0  0.20735  0.56480  0.66397  1.0000
  H   H367      1.0  0.20088  0.32883  0.81708  1.0000
  S   S80       1.0  0.07183  0.32752  0.82570  1.0000
  N   N17       1.0  0.17927  0.34989  0.81021  1.0000
  H   H368      1.0  0.10804  0.42997  0.83051  1.0000
  H   H369      1.0  0.13152  0.65152  0.50033  1.0000
  H   H370      1.0  0.14780  0.57881  0.90180  1.0000
  C   C245      1.0  0.24188  0.55960  0.77885  1.0000
  S   S81       1.0  0.01552  0.39982  0.71354  1.0000
  H   H371      1.0  0.06898  0.50030  0.80259  1.0000
  H   H372      1.0  0.23652  0.52565  0.69739  1.0000
  H   H373      1.0  0.17759  0.61671  0.78787  1.0000
  H   H374      1.0  0.07596  0.45466  0.86054  1.0000
  C   C246      1.0  0.05850  0.34633  0.71997  1.0000
  C   C247      1.0  0.23340  0.63083  0.57440  1.0000
  C   C248      1.0  0.22004  0.52622  0.72279  1.0000
  H   H375      1.0  0.13720  0.63675  0.86931  1.0000
  H   H376      1.0  0.07936  0.47094  0.81640  1.0000
  H   H377      1.0  0.08652  0.44289  0.83519  1.0000
  H   H378      1.0  0.18156  0.56272  0.68289  1.0000
  C   C249      1.0  0.18108  0.43952  0.73615  1.0000
  C   C250      1.0  0.07589  0.49832  0.81347  1.0000
  H   H379      1.0  0.07904  0.35981  0.73344  1.0000
  H   H380      1.0  0.22920  0.60135  0.86777  1.0000
  N   N18       1.0  0.06199  0.34126  0.73825  1.0000
  H   H381      1.0  0.15123  0.55607  0.91112  1.0000
  C   C251      1.0  0.23389  0.63773  0.93320  1.0000
  H   H382      1.0  0.13809  0.55609  0.85676  1.0000
  H   H383      1.0  0.24655  0.62812  0.56584  1.0000
  C   C252      1.0  0.06690  0.35643  0.74249  1.0000
  H   H384      1.0  0.14687  0.62222  0.78416  1.0000
  H   H385      1.0  0.00198  0.48041  0.68906  1.0000
  C   C253      1.0  0.13921  0.51487  0.89514  1.0000
  H   H386      1.0  0.21818  0.44030  0.86473  1.0000
  H   H387      1.0  0.16341  0.59894  0.66501  1.0000
  H   H388      1.0  0.01174  0.48273  0.72327  1.0000
  H   H389      1.0  0.24052  0.43560  0.83364  1.0000
  H   H390      1.0  0.16655  0.56461  0.89231  1.0000
  C   C254      1.0  0.21992  0.63219  0.56311  1.0000
  H   H391      1.0  0.23054  0.64741  0.71798  1.0000
  H   H392      1.0  0.04058  0.45079  0.69974  1.0000
  C   C255      1.0  0.17554  0.57663  0.68323  1.0000
  C   C256      1.0  0.17676  0.60271  0.69279  1.0000
  C   C257      1.0  0.04575  0.33732  0.75137  1.0000
  C   C258      1.0  0.19147  0.57345  0.70643  1.0000
  N   N19       1.0  0.23216  0.61755  0.59124  1.0000
  H   H393      1.0  0.00381  0.32262  0.65699  1.0000
  C   C259      1.0  0.17596  0.57137  0.72201  1.0000
  C   C260      1.0  0.23670  0.43693  0.89787  1.0000
  H   H394      1.0  0.21632  0.60075  0.62529  1.0000
  H   H395      1.0  0.16347  0.60193  0.70100  1.0000
  H   H396      1.0  0.05203  0.45091  0.66842  1.0000
  H   H397      1.0  0.20466  0.34080  0.78143  1.0000
  C   C261      1.0  0.17130  0.58559  0.66515  1.0000
  H   H398      1.0  0.22712  0.59405  0.77212  1.0000
  H   H399      1.0  0.22189  0.62015  0.55808  1.0000
  S   S82       1.0  0.23656  0.55356  0.85672  1.0000
  S   S83       1.0  0.21588  0.50718  0.92717  1.0000
  C   C262      1.0  0.00483  0.45973  0.72089  1.0000
  S   S84       1.0  0.00666  0.35359  0.72718  1.0000
  H   H400      1.0  0.01011  0.44772  0.71550  1.0000
  C   C263      1.0  0.23341  0.38825  0.76904  1.0000
  H   H401      1.0  0.18326  0.58584  0.65478  1.0000
  H   H402      1.0  0.18108  0.56249  0.73329  1.0000
  S   S85       1.0  0.23245  0.50662  0.88519  1.0000
  C   C264      1.0  0.15537  0.47519  0.73479  1.0000
  H   H403      1.0  0.16175  0.47004  0.74617  1.0000
  H   H404      1.0  0.14279  0.47038  0.73899  1.0000
  H   H405      1.0  0.16229  0.50120  0.72820  1.0000
  H   H406      1.0  0.07254  0.33011  0.70066  1.0000
  H   H407      1.0  0.23319  0.58073  0.80196  1.0000
  H   H408      1.0  0.24051  0.63354  0.60426  1.0000
  C   C265      1.0  0.01848  0.47147  0.71693  1.0000
  H   H409      1.0  0.19598  0.61598  0.62646  1.0000
  H   H410      1.0  0.04823  0.33493  0.76480  1.0000
  H   H411      1.0  0.00640  0.50985  0.66756  1.0000
  H   H412      1.0  0.22064  0.59871  0.96374  1.0000
  H   H413      1.0  0.22604  0.46317  0.66078  1.0000
  H   H414      1.0  0.19792  0.56013  0.70433  1.0000
  H   H415      1.0  0.16608  0.56544  0.71932  1.0000
  H   H416      1.0  0.00197  0.40607  0.74927  1.0000
  H   H417      1.0  0.23459  0.63882  0.67113  1.0000
  N   N20       1.0  0.18686  0.58497  0.68979  1.0000
  H   H418      1.0  0.22343  0.42423  0.84345  1.0000
  H   H419      1.0  0.23537  0.61881  0.68653  1.0000
  C   C266      1.0  0.13791  0.64910  0.81312  1.0000
  H   H420      1.0  0.10125  0.33626  0.73442  1.0000
  H   H421      1.0  0.17347  0.33208  0.83493  1.0000
  H   H422      1.0  0.22185  0.62690  0.84674  1.0000
  H   H423      1.0  0.04762  0.49078  0.68381  1.0000
  C   C267      1.0  0.21467  0.57050  0.67035  1.0000
  C   C268      1.0  0.14126  0.56344  0.88661  1.0000
  H   H424      1.0  0.17052  0.56714  0.86132  1.0000
  C   C269      1.0  0.05314  0.37359  0.74143  1.0000
  C   C270      1.0  0.15248  0.56562  0.89864  1.0000
  C   C271      1.0  0.20307  0.52625  0.73272  1.0000
  H   H425      1.0  0.20129  0.57813  0.71075  1.0000
  S   S86       1.0  0.22867  0.49226  0.63202  1.0000
  N   N21       1.0  0.19763  0.48579  0.78466  1.0000
  C   C272      1.0  0.18426  0.49007  0.77312  1.0000
  C   C273      1.0  0.20921  0.46853  0.78174  1.0000
  C   C274      1.0  0.20863  0.49965  0.77858  1.0000
  C   C275      1.0  0.18792  0.48568  0.80323  1.0000
  C   C276      1.0  0.17076  0.50732  0.77384  1.0000
  C   C277      1.0  0.20015  0.45276  0.78741  1.0000
  C   C278      1.0  0.22366  0.49763  0.78816  1.0000
  C   C279      1.0  0.19816  0.47608  0.81791  1.0000
  H   H426      1.0  0.19093  0.49038  0.75924  1.0000
  H   H427      1.0  0.17618  0.47987  0.77656  1.0000
  H   H428      1.0  0.22059  0.46499  0.78824  1.0000
  H   H429      1.0  0.21520  0.46932  0.76769  1.0000
  H   H430      1.0  0.21464  0.50056  0.76448  1.0000
  H   H431      1.0  0.20038  0.51267  0.77990  1.0000
  H   H432      1.0  0.18257  0.49928  0.80528  1.0000
  H   H433      1.0  0.17608  0.47984  0.80583  1.0000
  H   H434      1.0  0.16282  0.50779  0.78711  1.0000
  H   H435      1.0  0.17692  0.51886  0.76880  1.0000
  H   H436      1.0  0.16137  0.50846  0.76536  1.0000
  H   H437      1.0  0.19251  0.45182  0.80086  1.0000
  H   H438      1.0  0.19154  0.45294  0.77850  1.0000
  H   H439      1.0  0.21034  0.44064  0.78705  1.0000
  H   H440      1.0  0.23374  0.48561  0.78702  1.0000
  H   H441      1.0  0.21864  0.49866  0.80197  1.0000
  C   C280      1.0  0.24453  0.58321  0.79118  1.0000
  H   H442      1.0  0.19730  0.48515  0.82655  1.0000
  H   H443      1.0  0.21223  0.47076  0.81362  1.0000
  H   H444      1.0  0.19187  0.46524  0.82622  1.0000
  N   N22       1.0  0.07880  0.39743  0.78380  1.0000
  C   C281      1.0  0.09354  0.40096  0.76844  1.0000
  C   C282      1.0  0.07409  0.41262  0.79287  1.0000
  C   C283      1.0  0.06329  0.39631  0.77689  1.0000
  C   C284      1.0  0.08526  0.38044  0.79528  1.0000
  C   C285      1.0  0.09897  0.38811  0.75587  1.0000
  C   C286      1.0  0.08891  0.41564  0.80020  1.0000
  C   C287      1.0  0.04493  0.39967  0.78867  1.0000
  C   C288      1.0  0.07357  0.37536  0.81324  1.0000
  H   H445      1.0  0.09006  0.41426  0.76052  1.0000
  H   H446      1.0  0.10574  0.40079  0.77280  1.0000
  H   H447      1.0  0.06273  0.41160  0.80386  1.0000
  H   H448      1.0  0.06952  0.42482  0.78383  1.0000
  H   H449      1.0  0.06226  0.40594  0.76450  1.0000
  H   H450      1.0  0.06513  0.38334  0.77356  1.0000
  H   H451      1.0  0.08711  0.36942  0.78867  1.0000
  H   H452      1.0  0.09871  0.37967  0.79729  1.0000
  H   H453      1.0  0.08813  0.38828  0.74951  1.0000
  H   H454      1.0  0.10991  0.39216  0.74532  1.0000
  H   H455      1.0  0.10397  0.37466  0.76239  1.0000
  H   H456      1.0  0.09951  0.42038  0.78970  1.0000
  H   H457      1.0  0.08330  0.42595  0.80800  1.0000
  H   H458      1.0  0.09455  0.40384  0.80898  1.0000
  H   H459      1.0  0.04421  0.39142  0.80180  1.0000
  H   H460      1.0  0.03525  0.39664  0.78267  1.0000
  H   H461      1.0  0.04052  0.41357  0.78968  1.0000
  H   H462      1.0  0.06389  0.36806  0.81233  1.0000
  H   H463      1.0  0.06670  0.38637  0.81970  1.0000
  H   H464      1.0  0.08202  0.36678  0.82225  1.0000
  C   C289      1.0  0.13468  0.54642  0.86869  1.0000
  H   H465      1.0  0.02406  0.45602  0.68713  1.0000
  H   H466      1.0  0.15171  0.52924  0.90587  1.0000
  H   H467      1.0  0.06782  0.35460  0.71149  1.0000
  H   H468      1.0  0.04517  0.35467  0.71981  1.0000
  S   S87       1.0  0.20641  0.55758  0.93596  1.0000
  H   H469      1.0  0.17218  0.63789  0.77526  1.0000
  C   C290      1.0  0.21989  0.56420  0.94660  1.0000
  H   H470      1.0  0.12650  0.51608  0.89133  1.0000
  H   H471      1.0  0.12010  0.61484  0.81128  1.0000
  H   H472      1.0  0.16261  0.57632  0.69228  1.0000
  H   H473      1.0  0.22526  0.58050  0.60787  1.0000
  C   C291      1.0  0.14126  0.53237  0.89804  1.0000
  H   H474      1.0  0.18209  0.61780  0.87828  1.0000
  C   C292      1.0  0.17341  0.60808  0.90528  1.0000
  H   H475      1.0  0.23060  0.60947  0.78257  1.0000
  C   C293      1.0  0.11453  0.55142  0.87460  1.0000
  H   H476      1.0  0.15009  0.50964  0.88519  1.0000
  H   H477      1.0  0.11830  0.48591  0.84988  1.0000
  H   H478      1.0  0.10753  0.33988  0.84680  1.0000
  N   N23       1.0  0.14465  0.56701  0.58779  1.0000
  C   C294      1.0  0.16053  0.56776  0.57309  1.0000
  C   C295      1.0  0.13049  0.58231  0.58265  1.0000
  C   C296      1.0  0.13885  0.55011  0.58965  1.0000
  C   C297      1.0  0.15006  0.56773  0.60413  1.0000
  C   C298      1.0  0.17576  0.55178  0.57411  1.0000
  C   C299      1.0  0.13483  0.60044  0.58022  1.0000
  C   C300      1.0  0.11981  0.54890  0.59912  1.0000
  C   C301      1.0  0.13554  0.56967  0.62048  1.0000
  H   H479      1.0  0.15671  0.56960  0.56030  1.0000
  H   H480      1.0  0.16643  0.57913  0.57219  1.0000
  H   H481      1.0  0.11791  0.58224  0.59217  1.0000
  H   H482      1.0  0.12728  0.58152  0.57025  1.0000
  H   H483      1.0  0.14009  0.54716  0.57659  1.0000
  H   H484      1.0  0.14762  0.53903  0.59652  1.0000
  H   H485      1.0  0.15965  0.55575  0.60812  1.0000
  H   H486      1.0  0.15751  0.57824  0.60181  1.0000
  H   H487      1.0  0.17191  0.53976  0.57336  1.0000
  H   H488      1.0  0.18665  0.55420  0.56281  1.0000
  H   H489      1.0  0.18122  0.54958  0.58593  1.0000
  H   H490      1.0  0.12313  0.61059  0.57744  1.0000
  H   H491      1.0  0.13800  0.60239  0.59210  1.0000
  H   H492      1.0  0.14569  0.60293  0.56894  1.0000
  H   H493      1.0  0.11819  0.53526  0.60096  1.0000
  H   H494      1.0  0.11107  0.35803  0.86602  1.0000
  H   H495      1.0  0.18130  0.42534  0.73863  1.0000
  S   S88       1.0  0.23867  0.57361  0.70500  1.0000
  C   C302      1.0  0.23210  0.43326  0.86246  1.0000
  H   H496      1.0  0.09488  0.47347  0.85712  1.0000
  C   C303      1.0  0.15057  0.49514  0.73293  1.0000
  C   C304      1.0  0.01928  0.42091  0.75330  1.0000
  N   N24       1.0  0.14541  0.54582  0.88178  1.0000
  C   C305      1.0  0.16924  0.62982  0.78845  1.0000
  C   C306      1.0  0.09503  0.32843  0.72910  1.0000
  H   H497      1.0  0.23967  0.56747  0.76593  1.0000
  H   H498      1.0  0.14853  0.61810  0.80593  1.0000
  H   H499      1.0  0.15682  0.44431  0.72708  1.0000
  H   H500      1.0  0.19493  0.44103  0.73113  1.0000
  H   H501      1.0  0.00307  0.49833  0.69688  1.0000
  H   H502      1.0  0.17430  0.61143  0.68030  1.0000
  H   H503      1.0  0.16733  0.52844  0.86918  1.0000
  N   N25       1.0  0.20559  0.60303  0.88808  1.0000
  H   H504      1.0  0.06991  0.35298  0.75581  1.0000
  H   H505      1.0  0.11232  0.45150  0.84358  1.0000
  H   H506      1.0  0.20611  0.63551  0.57004  1.0000
  H   H507      1.0  0.14097  0.50121  0.72428  1.0000
  C   C307      1.0  0.15493  0.47491  0.70498  1.0000
  H   H508      1.0  0.16321  0.57811  0.66168  1.0000
  C   C308      1.0  0.00019  0.35929  0.77569  1.0000
  C   C309      1.0  0.22335  0.52583  0.70509  1.0000
  H   H509      1.0  0.17131  0.59531  0.90445  1.0000
  H   H510      1.0  0.20046  0.52702  0.74629  1.0000
  H   H511      1.0  0.17641  0.44363  0.71078  1.0000
  H   H512      1.0  0.14242  0.57393  0.87482  1.0000
  H   H513      1.0  0.20249  0.58901  0.94850  1.0000
  S   S89       1.0  0.21220  0.64672  0.50738  1.0000
  H   H514      1.0  0.16060  0.45407  0.69001  1.0000
  C   C310      1.0  0.18311  0.47519  0.71168  1.0000
  C   C311      1.0  0.19385  0.47564  0.72505  1.0000
  H   H515      1.0  0.15280  0.48935  0.70087  1.0000
  H   H516      1.0  0.19385  0.48930  0.72527  1.0000
  C   C312      1.0  0.23102  0.38285  0.78721  1.0000
  C   C313      1.0  0.01136  0.48846  0.68921  1.0000
  C   C314      1.0  0.16216  0.46773  0.68804  1.0000
  C   C315      1.0  0.16461  0.54091  0.87377  1.0000
  H   H517      1.0  0.19637  0.57152  0.87044  1.0000
  C   C316      1.0  0.18575  0.61256  0.70103  1.0000
  H   H518      1.0  0.23110  0.48188  0.83478  1.0000
  C   C317      1.0  0.03353  0.50445  0.70401  1.0000
  N   N26       1.0  0.02611  0.47740  0.69791  1.0000
  H   H519      1.0  0.19205  0.46739  0.70222  1.0000
  H   H520      1.0  0.20493  0.61514  0.59643  1.0000
  H   H521      1.0  0.17603  0.44351  0.74887  1.0000
  C   C318      1.0  0.04004  0.48730  0.69718  1.0000
  H   H522      1.0  0.04504  0.47395  0.66319  1.0000
  C   C319      1.0  0.23730  0.45066  0.88077  1.0000
  H   H523      1.0  0.12112  0.45606  0.82105  1.0000
  H   H524      1.0  0.18051  0.48871  0.70400  1.0000
  H   H525      1.0  0.15436  0.47540  0.67809  1.0000
  C   C320      1.0  0.23123  0.58979  0.90462  1.0000
  C   C321      1.0  0.23644  0.46921  0.66143  1.0000
  C   C322      1.0  0.14973  0.62821  0.79384  1.0000
  C   C323      1.0  0.06007  0.33139  0.71046  1.0000
  H   H526      1.0  0.18755  0.35434  0.84148  1.0000
  C   C324      1.0  0.23979  0.48432  0.64936  1.0000
  H   H527      1.0  0.17695  0.39074  0.78162  1.0000
  H   H528      1.0  0.18176  0.62298  0.82959  1.0000
  C   C325      1.0  0.04887  0.46303  0.67366  1.0000
  C   C326      1.0  0.21237  0.60057  0.90454  1.0000
  Fe  Fe43      1.0  0.09964  0.32553  0.81038  1.0000
  H   H529      1.0  0.02914  0.46428  0.72417  1.0000
  H   H530      1.0  0.17606  0.46874  0.68248  1.0000
  H   H531      1.0  0.16255  0.37541  0.80944  1.0000
  H   H532      1.0  0.22362  0.45813  0.88101  1.0000
  C   C327      1.0  0.17616  0.36938  0.80390  1.0000
  H   H533      1.0  0.10488  0.50091  0.82424  1.0000
  H   H534      1.0  0.12729  0.56655  0.89334  1.0000
  H   H535      1.0  0.13276  0.46995  0.83772  1.0000
  H   H536      1.0  0.13420  0.49230  0.83112  1.0000
  C   C328      1.0  0.21835  0.61142  0.87309  1.0000
  H   H537      1.0  0.16072  0.61741  0.90461  1.0000
  C   C329      1.0  0.01642  0.49781  0.67017  1.0000
  H   H538      1.0  0.21834  0.46582  0.84620  1.0000
  H   H539      1.0  0.06122  0.46429  0.67675  1.0000
  S   S90       1.0  0.18598  0.63893  0.92496  1.0000
  H   H540      1.0  0.19748  0.57823  0.89787  1.0000
  H   H541      1.0  0.18864  0.60521  0.71379  1.0000
  C   C330      1.0  0.11851  0.64205  0.79713  1.0000
  H   H542      1.0  0.22790  0.42792  0.89889  1.0000
  H   H543      1.0  0.20418  0.34953  0.81635  1.0000
  H   H544      1.0  0.17670  0.62496  0.70339  1.0000
  H   H545      1.0  0.01182  0.42254  0.76611  1.0000
  C   C331      1.0  0.12480  0.48334  0.83673  1.0000
  C   C332      1.0  0.20367  0.58710  0.67674  1.0000
  H   H546      1.0  0.11948  0.48649  0.81131  1.0000
  H   H547      1.0  0.03458  0.34860  0.75038  1.0000
  H   H548      1.0  0.21523  0.62277  0.62749  1.0000
  H   H549      1.0  0.19799  0.61599  0.69233  1.0000
  H   H550      1.0  0.18488  0.37518  0.80862  1.0000
  H   H551      1.0  0.01690  0.48938  0.66104  1.0000
  H   H552      1.0  0.21258  0.59190  0.68224  1.0000
  H   H553      1.0  0.21753  0.61913  0.93652  1.0000
  H   H554      1.0  0.22491  0.61969  0.87761  1.0000
  H   H555      1.0  0.23181  0.57585  0.90504  1.0000
  C   C333      1.0  0.19640  0.58519  0.87058  1.0000
  H   H556      1.0  0.21812  0.57712  0.88350  1.0000
  H   H557      1.0  0.20431  0.59023  0.85790  1.0000
  H   H558      1.0  0.10998  0.54744  0.88879  1.0000
  H   H559      1.0  0.13803  0.53407  0.86376  1.0000
  H   H560      1.0  0.10800  0.54470  0.86833  1.0000
  C   C334      1.0  0.20473  0.58537  0.88573  1.0000
  H   H561      1.0  0.18256  0.59233  0.87185  1.0000
  H   H562      1.0  0.19121  0.37125  0.77664  1.0000
  H   H563      1.0  0.04150  0.37277  0.75209  1.0000
  H   H564      1.0  0.17627  0.60742  0.91818  1.0000
  H   H565      1.0  0.18643  0.54923  0.85441  1.0000
  H   H566      1.0  0.09703  0.47948  0.80224  1.0000
  Fe  Fe44      1.0  0.21660  0.53590  0.92039  1.0000
  H   H567      1.0  0.20386  0.59393  0.91598  1.0000
  C   C335      1.0  0.17340  0.35621  0.84133  1.0000
  H   H568      1.0  0.15541  0.34884  0.83005  1.0000
  H   H569      1.0  0.21980  0.56054  0.68098  1.0000
  H   H570      1.0  0.17332  0.63505  0.79794  1.0000
  H   H571      1.0  0.14445  0.64348  0.76179  1.0000
  H   H572      1.0  0.02960  0.32552  0.80492  1.0000
  H   H573      1.0  0.21208  0.61342  0.90741  1.0000
  C   C336      1.0  0.03429  0.46134  0.69016  1.0000
  C   C337      1.0  0.08800  0.48016  0.81507  1.0000
  H   H574      1.0  0.09953  0.44542  0.81319  1.0000
  C   C338      1.0  0.08693  0.47784  0.84676  1.0000
  H   H575      1.0  0.08172  0.49190  0.84706  1.0000
  C   C339      1.0  0.21346  0.62093  0.60133  1.0000
  H   H576      1.0  0.20318  0.63610  0.86119  1.0000
  H   H577      1.0  0.04498  0.51070  0.70200  1.0000
  C   C340      1.0  0.21458  0.58055  0.95149  1.0000
  C   C341      1.0  0.23722  0.59774  0.77696  1.0000
  H   H578      1.0  0.13708  0.63768  0.82395  1.0000
  H   H579      1.0  0.20240  0.61802  0.85243  1.0000
  H   H580      1.0  0.06107  0.47521  0.86246  1.0000
  C   C342      1.0  0.21084  0.62364  0.85756  1.0000
  C   C343      1.0  0.23694  0.59974  0.58673  1.0000
  H   H581      1.0  0.23869  0.53790  0.76927  1.0000
  H   H582      1.0  0.22698  0.59807  0.58015  1.0000
  H   H583      1.0  0.06558  0.49960  0.82533  1.0000
  H   H584      1.0  0.06504  0.46752  0.84309  1.0000
  C   C344      1.0  0.21895  0.63251  0.93179  1.0000
  H   H585      1.0  0.18448  0.64741  0.96849  1.0000
  H   H586      1.0  0.12904  0.53740  0.90692  1.0000
  H   H587      1.0  0.16760  0.37401  0.77896  1.0000
  H   H588      1.0  0.02897  0.50235  0.66715  1.0000
  C   C345      1.0  0.17824  0.37639  0.78411  1.0000
  S   S91       1.0  0.17815  0.65003  0.53981  1.0000
  H   H589      1.0  0.16642  0.55570  0.84666  1.0000
  S   S92       1.0  0.23695  0.52662  0.73276  1.0000
  H   H590      1.0  0.23191  0.42150  0.87303  1.0000
  C   C346      1.0  0.21072  0.34282  0.79144  1.0000
  C   C347      1.0  0.24456  0.62020  0.60124  1.0000
  H   H591      1.0  0.24399  0.61130  0.61407  1.0000
  S   S93       1.0  0.23313  0.63204  0.97565  1.0000
  H   H592      1.0  0.23200  0.64402  0.57701  1.0000
  H   H593      1.0  0.17684  0.34432  0.78592  1.0000
  H   H594      1.0  0.02710  0.32011  0.76104  1.0000
  H   H595      1.0  0.24452  0.58545  0.61201  1.0000
  C   C348      1.0  0.03862  0.32171  0.75026  1.0000
  C   C349      1.0  0.19860  0.34242  0.80954  1.0000
  H   H596      1.0  0.24038  0.37225  0.79294  1.0000
  S   S94       1.0  0.16882  0.64989  0.84936  1.0000
  C   C350      1.0  0.24545  0.55872  0.95985  1.0000
  H   H597      1.0  0.23122  0.44376  0.90898  1.0000
  H   H598      1.0  0.22862  0.56094  0.78745  1.0000
  H   H599      1.0  0.23888  0.46515  0.74296  1.0000
  H   H600      1.0  0.23051  0.50868  0.78217  1.0000
  C   C351      1.0  0.23590  0.42638  0.84548  1.0000
  H   H601      1.0  0.23618  0.52087  0.84867  1.0000
  C   C352      1.0  0.23706  0.63247  0.68437  1.0000
  C   C353      1.0  0.11187  0.62790  0.81227  1.0000
  H   H602      1.0  0.24460  0.38180  0.76078  1.0000
  S   S95       1.0  0.24392  0.53273  0.90438  1.0000
  H   H603      1.0  0.22178  0.64286  0.55158  1.0000
  C   C354      1.0  0.24022  0.57509  0.96463  1.0000
  H   H604      1.0  0.24543  0.41378  0.84625  1.0000
  H   H605      1.0  0.24367  0.61826  0.64054  1.0000
  H   H606      1.0  0.22699  0.63862  0.69427  1.0000
  H   H607      1.0  0.15098  0.65220  0.81207  1.0000
  H   H608      1.0  0.22225  0.33193  0.79233  1.0000
  Fe  Fe45      1.0  0.24253  0.50445  0.90930  1.0000
  C   C355      1.0  0.07698  0.32593  0.74060  1.0000
  H   H609      1.0  0.24504  0.46000  0.88168  1.0000
  H   H610      1.0  0.22365  0.47985  0.85771  1.0000
  H   H611      1.0  0.24448  0.44984  0.68312  1.0000
  H   H612      1.0  0.11800  0.63822  0.78497  1.0000
  H   H613      1.0  0.24404  0.62826  0.93899  1.0000
  H   H614      1.0  0.09421  0.33444  0.71539  1.0000
  C   C356      1.0  0.17268  0.32181  0.80564  1.0000
  C   C357      1.0  0.24602  0.45935  0.84945  1.0000
  N   N27       1.0  0.24454  0.44378  0.86414  1.0000
  H   H615      1.0  0.24548  0.53137  0.78969  1.0000
  N   N28       1.0  0.13663  0.64479  0.79642  1.0000
  H   H616      1.0  0.09835  0.62727  0.81161  1.0000
  H   H617      1.0  0.24109  0.59482  0.89350  1.0000
  H   H618      1.0  0.07865  0.32242  0.75441  1.0000
  H   H619      1.0  0.00112  0.45549  0.73522  1.0000
  H   H620      1.0  0.24664  0.47099  0.75929  1.0000
  H   H621      1.0  0.23974  0.54076  0.94707  1.0000
  C   C358      1.0  0.24692  0.46163  0.67400  1.0000
  H   H622      1.0  0.10928  0.74576  0.06466  1.0000
  Fe  Fe46      1.0  0.01693  0.74660  0.12304  1.0000
  H   H623      1.0  0.08685  0.66452  0.17752  1.0000
  S   S96       1.0  0.04249  0.73313  0.13115  1.0000
  H   H624      1.0  0.21431  0.67607  0.42722  1.0000
  S   S97       1.0  0.00907  0.78182  0.06483  1.0000
  S   S98       1.0  0.01121  0.77536  0.11323  1.0000
  H   H625      1.0  0.15126  0.78082  0.17587  1.0000
  H   H626      1.0  0.09851  0.73130  0.09201  1.0000
  Fe  Fe47      1.0  0.10538  0.76682  0.00823  1.0000
  S   S99       1.0  0.13092  0.77526  0.00410  1.0000
  S   S100      1.0  0.09106  0.76035  0.03611  1.0000
  C   C359      1.0  0.16457  0.91448  0.02486  1.0000
  H   H627      1.0  0.06846  0.71591  0.41209  1.0000
  S   S101      1.0  0.09724  0.78622  0.98515  1.0000
  H   H628      1.0  0.00083  0.84998  0.12540  1.0000
  H   H629      1.0  0.20800  0.79366  0.00558  1.0000
  H   H630      1.0  0.04112  0.78950  0.26515  1.0000
  H   H631      1.0  0.00832  0.78596  0.28946  1.0000
  H   H632      1.0  0.20130  0.81460  0.99289  1.0000
  H   H633      1.0  0.21029  0.69555  0.45115  1.0000
  H   H634      1.0  0.14610  0.71662  0.22177  1.0000
  H   H635      1.0  0.21278  0.79238  0.35140  1.0000
  C   C360      1.0  0.14006  0.77178  0.20347  1.0000
  H   H636      1.0  0.02798  0.71789  0.42497  1.0000
  H   H637      1.0  0.05483  0.85382  0.24310  1.0000
  H   H638      1.0  0.16374  0.71870  0.20285  1.0000
  H   H639      1.0  0.13900  0.79754  0.39569  1.0000
  H   H640      1.0  0.13841  0.82470  0.43138  1.0000
  H   H641      1.0  0.01220  0.70331  0.28603  1.0000
  C   C361      1.0  0.14932  0.72163  0.20754  1.0000
  Fe  Fe48      1.0  0.17264  0.81968  0.43504  1.0000
  S   S102      1.0  0.16114  0.84822  0.43218  1.0000
  S   S103      1.0  0.16320  0.80046  0.45871  1.0000
  Fe  Fe49      1.0  0.19854  0.82467  0.40077  1.0000
  S   S104      1.0  0.18878  0.85346  0.39481  1.0000
  S   S105      1.0  0.22101  0.81121  0.38305  1.0000
  Fe  Fe50      1.0  0.18916  0.85211  0.42303  1.0000
  S   S106      1.0  0.20698  0.86567  0.43098  1.0000
  Fe  Fe51      1.0  0.16182  0.84666  0.40440  1.0000
  S   S107      1.0  0.13675  0.85451  0.39343  1.0000
  S   S108      1.0  0.20027  0.82343  0.42814  1.0000
  S   S109      1.0  0.17195  0.81794  0.40806  1.0000
  H   H642      1.0  0.17410  0.76332  0.20023  1.0000
  C   C362      1.0  0.13837  0.77914  0.18437  1.0000
  Fe  Fe52      1.0  0.09094  0.73716  0.22875  1.0000
  S   S110      1.0  0.09659  0.76163  0.23269  1.0000
  S   S111      1.0  0.08656  0.73927  0.20188  1.0000
  H   H643      1.0  0.16644  0.76413  0.22954  1.0000
  Fe  Fe53      1.0  0.08401  0.82709  0.29605  1.0000
  S   S112      1.0  0.11303  0.81537  0.29310  1.0000
  S   S113      1.0  0.07164  0.84206  0.27271  1.0000
  Fe  Fe54      1.0  0.07725  0.81191  0.33455  1.0000
  S   S114      1.0  0.10511  0.79820  0.33483  1.0000
  S   S115      1.0  0.05647  0.80838  0.35858  1.0000
  Fe  Fe55      1.0  0.11162  0.82338  0.31844  1.0000
  S   S116      1.0  0.13453  0.83224  0.32357  1.0000
  Fe  Fe56      1.0  0.10427  0.79130  0.30986  1.0000
  S   S117      1.0  0.11337  0.76414  0.30435  1.0000
  S   S118      1.0  0.08345  0.83767  0.31964  1.0000
  S   S119      1.0  0.07567  0.80240  0.31134  1.0000
  H   H644      1.0  0.14349  0.71421  0.20131  1.0000
  N   N29       1.0  0.14999  0.75332  0.20777  1.0000
  H   H645      1.0  0.02829  0.78974  0.37418  1.0000
  S   S120      1.0  0.20108  0.75884  0.08852  1.0000
  H   H646      1.0  0.02874  0.81032  0.06862  1.0000
  H   H647      1.0  0.13459  0.74709  0.23383  1.0000
  H   H648      1.0  0.00679  0.85464  0.06694  1.0000
  H   H649      1.0  0.02789  0.66771  0.24603  1.0000
  H   H650      1.0  0.06182  0.78844  0.27094  1.0000
  S   S121      1.0  0.18236  0.76776  0.04833  1.0000
  H   H651      1.0  0.17395  0.69943  0.01305  1.0000
  H   H652      1.0  0.12994  0.79237  0.18354  1.0000
  H   H653      1.0  0.22500  0.84207  0.03125  1.0000
  H   H654      1.0  0.21860  0.80729  0.05787  1.0000
  H   H655      1.0  0.13685  0.87817  0.00721  1.0000
  H   H656      1.0  0.16407  0.75369  0.17264  1.0000
  H   H657      1.0  0.18479  0.75747  0.17310  1.0000
  C   C363      1.0  0.10158  0.76183  0.25259  1.0000
  C   C364      1.0  0.10662  0.74641  0.26416  1.0000
  C   C365      1.0  0.11071  0.74713  0.27988  1.0000
  C   C366      1.0  0.10926  0.76325  0.28425  1.0000
  C   C367      1.0  0.10401  0.77860  0.27273  1.0000
  C   C368      1.0  0.10046  0.77788  0.25683  1.0000
  H   H658      1.0  0.10751  0.73396  0.26096  1.0000
  H   H659      1.0  0.11470  0.73522  0.28880  1.0000
  H   H660      1.0  0.10275  0.79109  0.27600  1.0000
  H   H661      1.0  0.09652  0.78986  0.24796  1.0000
  C   C369      1.0  0.13616  0.84851  0.37389  1.0000
  C   C370      1.0  0.12035  0.84569  0.37144  1.0000
  C   C371      1.0  0.11961  0.84065  0.35617  1.0000
  C   C372      1.0  0.13454  0.83897  0.34290  1.0000
  C   C373      1.0  0.15021  0.84228  0.34516  1.0000
  C   C374      1.0  0.15110  0.84673  0.36066  1.0000
  H   H662      1.0  0.10861  0.84740  0.38133  1.0000
  H   H663      1.0  0.10742  0.83831  0.35455  1.0000
  H   H664      1.0  0.16179  0.84121  0.33491  1.0000
  H   H665      1.0  0.16327  0.84915  0.36222  1.0000
  C   C375      1.0  0.20328  0.87482  0.44975  1.0000
  C   C376      1.0  0.14506  0.86512  0.03809  1.0000
  H   H666      1.0  0.03257  0.79194  0.16789  1.0000
  N   N30       1.0  0.14716  0.89511  0.01757  1.0000
  C   C377      1.0  0.24472  0.82706  0.41299  1.0000
  C   C378      1.0  0.18639  0.88192  0.45789  1.0000
  H   H667      1.0  0.02368  0.70469  0.17288  1.0000
  H   H668      1.0  0.04697  0.68648  0.24888  1.0000
  S   S122      1.0  0.11722  0.74491  0.99377  1.0000
  H   H669      1.0  0.17511  0.88161  0.45296  1.0000
  C   C379      1.0  0.12808  0.77370  0.45565  1.0000
  C   C380      1.0  0.09905  0.75361  0.35071  1.0000
  C   C381      1.0  0.02076  0.69957  0.16263  1.0000
  C   C382      1.0  0.22528  0.78877  0.39110  1.0000
  C   C383      1.0  0.21511  0.78150  0.40664  1.0000
  C   C384      1.0  0.21832  0.76343  0.41268  1.0000
  C   C385      1.0  0.04482  0.74127  0.29929  1.0000
  C   C386      1.0  0.08485  0.76772  0.38279  1.0000
  H   H670      1.0  0.20466  0.78975  0.41393  1.0000
  H   H671      1.0  0.21030  0.75781  0.42461  1.0000
  S   S123      1.0  0.12184  0.76145  0.42949  1.0000
  C   C387      1.0  0.02675  0.79634  0.36115  1.0000
  C   C388      1.0  0.03799  0.80749  0.35125  1.0000
  C   C389      1.0  0.03552  0.81651  0.33463  1.0000
  C   C390      1.0  0.02238  0.81371  0.32759  1.0000
  C   C391      1.0  0.17466  0.74962  0.18016  1.0000
  H   H672      1.0  0.04397  0.82542  0.32706  1.0000
  H   H673      1.0  0.04465  0.67438  0.29850  1.0000
  C   C392      1.0  0.00760  0.67467  0.18229  1.0000
  H   H674      1.0  0.16149  0.76983  0.34389  1.0000
  H   H675      1.0  0.02769  0.76908  0.31328  1.0000
  H   H676      1.0  0.24425  0.85398  0.39982  1.0000
  H   H677      1.0  0.16952  0.78237  0.39071  1.0000
  C   C393      1.0  0.16926  0.75183  0.19940  1.0000
  H   H678      1.0  0.14089  0.68921  0.43156  1.0000
  H   H679      1.0  0.12647  0.77318  0.21141  1.0000
  H   H680      1.0  0.22281  0.80187  0.98630  1.0000
  S   S124      1.0  0.00885  0.73955  0.10156  1.0000
  C   C394      1.0  0.15333  0.78668  0.45225  1.0000
  C   C395      1.0  0.16038  0.78133  0.43636  1.0000
  C   C396      1.0  0.15102  0.77270  0.42986  1.0000
  C   C397      1.0  0.13458  0.76953  0.43915  1.0000
  H   H681      1.0  0.17721  0.74038  0.20675  1.0000
  H   H682      1.0  0.14631  0.78100  0.20689  1.0000
  H   H683      1.0  0.17299  0.78398  0.42900  1.0000
  H   H684      1.0  0.15632  0.76879  0.41748  1.0000
  H   H685      1.0  0.14159  0.74405  0.18871  1.0000
  H   H686      1.0  0.12709  0.74307  0.20887  1.0000
  H   H687      1.0  0.23419  0.82873  0.05598  1.0000
  C   C398      1.0  0.17591  0.74568  0.00443  1.0000
  C   C399      1.0  0.17241  0.76363  0.00351  1.0000
  C   C400      1.0  0.17499  0.77032  0.01683  1.0000
  C   C401      1.0  0.18161  0.75910  0.03085  1.0000
  C   C402      1.0  0.18644  0.74118  0.03120  1.0000
  C   C403      1.0  0.18359  0.73444  0.01792  1.0000
  H   H688      1.0  0.16714  0.77238  0.99274  1.0000
  H   H689      1.0  0.17132  0.78416  0.01655  1.0000
  H   H690      1.0  0.19168  0.73246  0.04202  1.0000
  H   H691      1.0  0.18655  0.72054  0.01862  1.0000
  C   C404      1.0  0.05473  0.78201  0.26501  1.0000
  H   H692      1.0  0.13182  0.77144  0.17930  1.0000
  H   H693      1.0  0.06144  0.78271  0.25117  1.0000
  H   H694      1.0  0.15247  0.81259  0.38316  1.0000
  C   C405      1.0  0.06933  0.74403  0.00564  1.0000
  H   H695      1.0  0.00827  0.84432  0.29495  1.0000
  H   H696      1.0  0.00785  0.76360  0.30025  1.0000
  H   H697      1.0  0.13246  0.72386  0.05909  1.0000
  N   N31       1.0  0.13001  0.75618  0.06927  1.0000
  H   H698      1.0  0.15582  0.71760  0.05684  1.0000
  C   C406      1.0  0.04775  0.84455  0.25240  1.0000
  C   C407      1.0  0.05353  0.83635  0.26805  1.0000
  C   C408      1.0  0.04413  0.82458  0.28006  1.0000
  Fe  Fe57      1.0  0.06253  0.72867  0.21609  1.0000
  N   N32       1.0  0.05234  0.74503  0.00019  1.0000
  H   H699      1.0  0.04818  0.81843  0.29225  1.0000
  H   H700      1.0  0.12084  0.79374  0.05756  1.0000
  C   C409      1.0  0.04144  0.73581  0.15220  1.0000
  C   C410      1.0  0.02656  0.74602  0.16059  1.0000
  C   C411      1.0  0.02493  0.74688  0.17798  1.0000
  C   C412      1.0  0.03856  0.73818  0.18677  1.0000
  C   C413      1.0  0.05375  0.72845  0.17821  1.0000
  C   C414      1.0  0.05511  0.72710  0.16097  1.0000
  H   H701      1.0  0.01633  0.75340  0.15371  1.0000
  C   C415      1.0  0.16269  0.78552  0.37957  1.0000
  H   H702      1.0  0.06445  0.72191  0.18483  1.0000
  H   H703      1.0  0.06674  0.71934  0.15444  1.0000
  C   C416      1.0  0.03194  0.77654  0.05683  1.0000
  C   C417      1.0  0.03931  0.78389  0.03976  1.0000
  C   C418      1.0  0.05751  0.77936  0.03321  1.0000
  C   C419      1.0  0.06836  0.76737  0.04373  1.0000
  C   C420      1.0  0.06100  0.76033  0.06086  1.0000
  C   C421      1.0  0.04290  0.76489  0.06738  1.0000
  H   H704      1.0  0.03091  0.79303  0.03158  1.0000
  H   H705      1.0  0.06312  0.78502  0.02005  1.0000
  H   H706      1.0  0.06929  0.75111  0.06910  1.0000
  H   H707      1.0  0.03744  0.75925  0.08059  1.0000
  H   H708      1.0  0.05942  0.66038  0.19685  1.0000
  C   C422      1.0  0.01521  0.75906  0.40332  1.0000
  H   H709      1.0  0.01805  0.81799  0.14816  1.0000
  H   H710      1.0  0.15661  0.73543  0.23121  1.0000
  H   H711      1.0  0.04452  0.72168  0.01750  1.0000
  H   H712      1.0  0.07175  0.75796  0.32554  1.0000
  N   N33       1.0  0.03659  0.79471  0.20935  1.0000
  C   C423      1.0  0.02227  0.78513  0.22005  1.0000
  C   C424      1.0  0.03303  0.80067  0.19112  1.0000
  C   C425      1.0  0.03550  0.81021  0.21718  1.0000
  C   C426      1.0  0.05404  0.78238  0.21003  1.0000
  C   C427      1.0  0.02209  0.77941  0.23973  1.0000
  C   C428      1.0  0.03331  0.78617  0.18169  1.0000
  C   C429      1.0  0.04252  0.82598  0.20488  1.0000
  C   C430      1.0  0.07054  0.78904  0.19886  1.0000
  H   H713      1.0  0.00907  0.79314  0.21856  1.0000
  H   H714      1.0  0.02308  0.77310  0.21542  1.0000
  H   H715      1.0  0.04237  0.80864  0.18240  1.0000
  H   H716      1.0  0.01989  0.80946  0.19133  1.0000
  H   H717      1.0  0.02161  0.81558  0.22276  1.0000
  H   H718      1.0  0.04241  0.80630  0.22835  1.0000
  H   H719      1.0  0.05647  0.77870  0.22352  1.0000
  H   H720      1.0  0.05410  0.76962  0.20710  1.0000
  C   C431      1.0  0.12301  0.71398  0.43063  1.0000
  H   H721      1.0  0.19744  0.77227  0.34796  1.0000
  H   H722      1.0  0.18700  0.70839  0.43440  1.0000
  C   C432      1.0  0.01601  0.87364  0.28153  1.0000
  H   H723      1.0  0.04554  0.77610  0.18163  1.0000
  S   S125      1.0  0.00415  0.84169  0.17210  1.0000
  H   H724      1.0  0.04299  0.83531  0.21267  1.0000
  H   H725      1.0  0.03351  0.83305  0.19581  1.0000
  H   H726      1.0  0.05595  0.82244  0.19738  1.0000
  H   H727      1.0  0.07525  0.79667  0.20586  1.0000
  H   H728      1.0  0.06868  0.79672  0.18590  1.0000
  H   H729      1.0  0.08118  0.77775  0.19612  1.0000
  C   C433      1.0  0.11225  0.75107  0.07482  1.0000
  C   C434      1.0  0.00153  0.83562  0.10569  1.0000
  H   H730      1.0  0.03106  0.73225  0.04290  1.0000
  C   C435      1.0  0.13752  0.78223  0.46223  1.0000
  C   C436      1.0  0.02603  0.73193  0.42154  1.0000
  H   H731      1.0  0.07017  0.72526  0.30500  1.0000
  H   H732      1.0  0.09852  0.81989  0.46514  1.0000
  C   C437      1.0  0.22464  0.78586  0.04443  1.0000
  H   H733      1.0  0.10368  0.74545  0.10327  1.0000
  H   H734      1.0  0.07823  0.83832  0.40747  1.0000
  H   H735      1.0  0.08805  0.80293  0.43164  1.0000
  H   H736      1.0  0.12014  0.72801  0.09500  1.0000
  C   C438      1.0  0.10867  0.73836  0.09233  1.0000
  H   H737      1.0  0.15865  0.88067  0.99695  1.0000
  H   H738      1.0  0.04688  0.73950  0.38006  1.0000
  C   C439      1.0  0.07205  0.81749  0.46852  1.0000
  H   H739      1.0  0.09807  0.82197  0.40260  1.0000
  H   H740      1.0  0.06768  0.72741  0.28283  1.0000
  C   C440      1.0  0.02323  0.82943  0.26106  1.0000
  C   C441      1.0  0.15336  0.76100  0.23596  1.0000
  H   H741      1.0  0.03509  0.73974  0.29231  1.0000
  H   H742      1.0  0.04908  0.76771  0.32692  1.0000
  C   C442      1.0  0.14831  0.74841  0.22732  1.0000
  H   H743      1.0  0.23706  0.83258  0.42446  1.0000
  S   S126      1.0  0.03656  0.77099  0.43866  1.0000
  N   N34       1.0  0.24521  0.80701  0.04258  1.0000
  C   C443      1.0  0.22083  0.66267  0.03121  1.0000
  H   H744      1.0  0.01319  0.75448  0.18452  1.0000
  C   C444      1.0  0.09106  0.81537  0.45779  1.0000
  C   C445      1.0  0.03945  0.66188  0.25156  1.0000
  C   C446      1.0  0.23181  0.75266  0.40328  1.0000
  H   H745      1.0  0.17791  0.82714  0.46614  1.0000
  H   H746      1.0  0.12057  0.73541  0.17542  1.0000
  H   H747      1.0  0.12415  0.90649  0.99165  1.0000
  H   H748      1.0  0.20297  0.68661  0.99687  1.0000
  C   C447      1.0  0.24213  0.66573  0.42301  1.0000
  H   H749      1.0  0.02363  0.86488  0.27248  1.0000
  H   H750      1.0  0.03977  0.87247  0.29061  1.0000
  H   H751      1.0  0.10701  0.74459  0.34203  1.0000
  H   H752      1.0  0.02073  0.79052  0.24601  1.0000
  H   H753      1.0  0.10747  0.92459  0.02120  1.0000
  H   H754      1.0  0.03388  0.76943  0.24236  1.0000
  H   H755      1.0  0.03842  0.73389  0.44175  1.0000
  H   H756      1.0  0.10804  0.76137  0.35220  1.0000
  H   H757      1.0  0.01614  0.66377  0.17618  1.0000
  H   H758      1.0  0.24662  0.78361  0.36967  1.0000
  H   H759      1.0  0.13148  0.71108  0.46713  1.0000
  C   C448      1.0  0.02941  0.75914  0.42688  1.0000
  S   S127      1.0  0.22258  0.73308  0.06174  1.0000
  H   H760      1.0  0.19948  0.69429  0.05477  1.0000
  H   H761      1.0  0.20839  0.70049  0.47193  1.0000
  H   H762      1.0  0.06203  0.67314  0.21126  1.0000
  H   H763      1.0  0.06058  0.78515  0.39350  1.0000
  H   H764      1.0  0.24121  0.80887  0.01639  1.0000
  C   C449      1.0  0.15978  0.90749  0.01089  1.0000
  H   H765      1.0  0.10153  0.66925  0.21573  1.0000
  H   H766      1.0  0.00038  0.69845  0.14242  1.0000
  S   S128      1.0  0.00395  0.82480  0.25774  1.0000
  N   N35       1.0  0.17571  0.78834  0.36267  1.0000
  H   H767      1.0  0.16184  0.81685  0.01543  1.0000
  C   C450      1.0  0.18828  0.77134  0.36085  1.0000
  C   C451      1.0  0.07354  0.74141  0.39813  1.0000
  H   H768      1.0  0.01819  0.71129  0.15226  1.0000
  C   C452      1.0  0.22138  0.65685  0.44935  1.0000
  H   H769      1.0  0.18875  0.80066  0.37571  1.0000
  Fe  Fe58      1.0  0.09750  0.75572  0.44862  1.0000
  H   H770      1.0  0.18106  0.76121  0.36091  1.0000
  C   C453      1.0  0.14814  0.81772  0.99527  1.0000
  H   H771      1.0  0.06382  0.77113  0.36137  1.0000
  H   H772      1.0  0.14598  0.91126  0.98159  1.0000
  C   C454      1.0  0.08633  0.84397  0.43845  1.0000
  H   H773      1.0  0.16950  0.71386  0.46411  1.0000
  H   H774      1.0  0.18111  0.73593  0.17930  1.0000
  H   H775      1.0  0.17106  0.89626  0.47772  1.0000
  H   H776      1.0  0.24495  0.72541  0.45083  1.0000
  C   C455      1.0  0.17928  0.83441  0.47561  1.0000
  H   H777      1.0  0.20153  0.77323  0.38124  1.0000
  H   H778      1.0  0.12111  0.84136  0.43892  1.0000
  H   H779      1.0  0.07951  0.74795  0.99412  1.0000
  H   H780      1.0  0.20647  0.82035  0.47792  1.0000
  H   H781      1.0  0.06575  0.77466  0.29714  1.0000
  H   H782      1.0  0.03481  0.78542  0.29660  1.0000
  H   H783      1.0  0.15682  0.77402  0.38089  1.0000
  C   C456      1.0  0.12493  0.82719  0.43921  1.0000
  H   H784      1.0  0.07575  0.75273  0.29693  1.0000
  H   H785      1.0  0.05655  0.74448  0.32734  1.0000
  H   H786      1.0  0.12095  0.66195  0.19115  1.0000
  H   H787      1.0  0.11816  0.72489  0.43764  1.0000
  H   H788      1.0  0.06213  0.72207  0.98875  1.0000
  C   C457      1.0  0.14136  0.74119  0.20277  1.0000
  H   H789      1.0  0.11747  0.80631  0.43234  1.0000
  C   C458      1.0  0.06308  0.76125  0.30146  1.0000
  C   C459      1.0  0.05493  0.76278  0.27392  1.0000
  H   H790      1.0  0.06863  0.75561  0.27033  1.0000
  C   C460      1.0  0.14752  0.80109  0.38279  1.0000
  C   C461      1.0  0.11281  0.82064  0.43122  1.0000
  H   H791      1.0  0.11580  0.82584  0.41706  1.0000
  H   H792      1.0  0.12581  0.82003  0.45263  1.0000
  N   N36       1.0  0.04873  0.75934  0.29342  1.0000
  C   C462      1.0  0.03226  0.77206  0.29895  1.0000
  C   C463      1.0  0.05962  0.75755  0.32149  1.0000
  H   H793      1.0  0.04724  0.75753  0.26743  1.0000
  H   H794      1.0  0.06914  0.72184  0.02801  1.0000
  H   H795      1.0  0.09647  0.80116  0.45873  1.0000
  H   H796      1.0  0.11478  0.66040  0.16376  1.0000
  H   H797      1.0  0.03830  0.73887  0.31325  1.0000
  N   N37       1.0  0.09344  0.82477  0.43898  1.0000
  C   C464      1.0  0.08347  0.81732  0.42994  1.0000
  H   H798      1.0  0.09975  0.85077  0.41039  1.0000
  H   H799      1.0  0.10127  0.86438  0.42413  1.0000
  C   C465      1.0  0.16669  0.79431  0.34731  1.0000
  C   C466      1.0  0.09268  0.85674  0.42165  1.0000
  C   C467      1.0  0.08450  0.82437  0.41028  1.0000
  H   H800      1.0  0.19674  0.68178  0.03070  1.0000
  H   H801      1.0  0.07686  0.81740  0.40551  1.0000
  H   H802      1.0  0.08972  0.84795  0.44926  1.0000
  H   H803      1.0  0.15387  0.75480  0.24976  1.0000
  H   H804      1.0  0.14320  0.77314  0.23630  1.0000
  C   C468      1.0  0.01200  0.80163  0.33699  1.0000
  C   C469      1.0  0.17500  0.69157  0.00325  1.0000
  H   H805      1.0  0.15675  0.88457  0.04171  1.0000
  H   H806      1.0  0.99916  0.86126  0.26403  1.0000
  C   C470      1.0  0.16517  0.83907  0.99472  1.0000
  H   H807      1.0  0.06919  0.81961  0.43573  1.0000
  C   C471      1.0  0.06076  0.72626  0.29661  1.0000
  H   H808      1.0  0.04068  0.75638  0.36278  1.0000
  H   H809      1.0  0.07168  0.84669  0.44088  1.0000
  H   H810      1.0  0.08120  0.86638  0.41751  1.0000
  C   C472      1.0  0.01760  0.74091  0.40766  1.0000
  H   H811      1.0  0.10160  0.76277  0.07595  1.0000
  H   H812      1.0  0.15313  0.75070  0.09502  1.0000
  H   H813      1.0  0.19308  0.70698  0.98590  1.0000
  C   C473      1.0  0.19216  0.69301  0.98963  1.0000
  H   H814      1.0  0.14811  0.78927  0.33458  1.0000
  H   H815      1.0  0.08684  0.73235  0.36561  1.0000
  S   S129      1.0  0.20726  0.88001  0.00046  1.0000
  C   C474      1.0  0.15431  0.78295  0.34605  1.0000
  H   H816      1.0  0.99811  0.82279  0.06974  1.0000
  H   H817      1.0  0.05601  0.71378  0.30038  1.0000
  C   C475      1.0  0.13900  0.75677  0.09802  1.0000
  H   H818      1.0  0.14569  0.73199  0.08099  1.0000
  H   H819      1.0  0.14699  0.73577  0.04191  1.0000
  H   H820      1.0  0.13146  0.74677  0.10583  1.0000
  H   H821      1.0  0.13798  0.76609  0.10644  1.0000
  C   C476      1.0  0.03197  0.74097  0.43107  1.0000
  C   C477      1.0  0.13095  0.76742  0.05125  1.0000
  C   C478      1.0  0.21781  0.87564  0.45619  1.0000
  C   C479      1.0  0.14494  0.74065  0.06814  1.0000
  C   C480      1.0  0.13232  0.76678  0.08126  1.0000
  C   C481      1.0  0.14476  0.72898  0.05573  1.0000
  H   H822      1.0  0.11976  0.77577  0.08529  1.0000
  C   C482      1.0  0.02254  0.81880  0.07831  1.0000
  H   H823      1.0  0.05966  0.68299  0.18958  1.0000
  H   H824      1.0  0.14339  0.78188  0.35750  1.0000
  C   C483      1.0  0.07444  0.72196  0.39873  1.0000
  S   S130      1.0  0.00839  0.71891  0.31539  1.0000
  C   C484      1.0  0.07349  0.77815  0.39674  1.0000
  S   S131      1.0  0.06572  0.72856  0.24278  1.0000
  H   H825      1.0  0.12793  0.76075  0.04217  1.0000
  H   H826      1.0  0.15773  0.74504  0.06390  1.0000
  H   H827      1.0  0.08670  0.77749  0.37043  1.0000
  H   H828      1.0  0.09810  0.76272  0.38622  1.0000
  H   H829      1.0  0.03742  0.68477  0.14287  1.0000
  C   C485      1.0  0.15866  0.82390  0.00301  1.0000
  H   H830      1.0  0.06734  0.71965  0.38970  1.0000
  S   S132      1.0  0.08940  0.69598  0.47030  1.0000
  C   C486      1.0  0.03257  0.84121  0.24896  1.0000
  H   H831      1.0  0.08869  0.76228  0.34397  1.0000
  H   H832      1.0  0.05097  0.76779  0.38265  1.0000
  H   H833      1.0  0.02796  0.84798  0.23714  1.0000
  H   H834      1.0  0.04552  0.74690  0.03494  1.0000
  C   C487      1.0  0.02096  0.76813  0.41299  1.0000
  C   C488      1.0  0.02907  0.82120  0.27656  1.0000
  C   C489      1.0  0.24208  0.75996  0.38784  1.0000
  C   C490      1.0  0.06117  0.76098  0.37320  1.0000
  H   H835      1.0  0.14207  0.77522  0.07430  1.0000
  H   H836      1.0  0.08042  0.78825  0.39730  1.0000
  H   H837      1.0  0.07139  0.76999  0.40997  1.0000
  C   C491      1.0  0.20954  0.68372  0.05045  1.0000
  H   H838      1.0  0.24624  0.70365  0.05114  1.0000
  Fe  Fe59      1.0  0.19530  0.74796  0.06829  1.0000
  C   C492      1.0  0.11843  0.78540  0.04975  1.0000
  H   H839      1.0  0.14453  0.76984  0.04570  1.0000
  N   N38       1.0  0.07761  0.75302  0.38050  1.0000
  H   H840      1.0  0.12080  0.79238  0.03598  1.0000
  H   H841      1.0  0.10441  0.78425  0.05317  1.0000
  C   C493      1.0  0.09159  0.74295  0.36841  1.0000
  C   C494      1.0  0.19909  0.76337  0.37532  1.0000
  H   H842      1.0  0.06783  0.75353  0.01399  1.0000
  C   C495      1.0  0.23689  0.80094  0.44798  1.0000
  H   H843      1.0  0.08301  0.74122  0.40621  1.0000
  H   H844      1.0  0.17641  0.81531  0.36119  1.0000
  H   H845      1.0  0.02145  0.81267  0.28623  1.0000
  H   H846      1.0  0.06038  0.74666  0.40539  1.0000
  C   C496      1.0  0.24568  0.79711  0.42975  1.0000
  H   H847      1.0  0.17488  0.66943  0.98559  1.0000
  S   S133      1.0  0.22000  0.71919  0.10389  1.0000
  H   H848      1.0  0.06597  0.83128  0.46902  1.0000
  Fe  Fe60      1.0  0.19242  0.73527  0.10687  1.0000
  H   H849      1.0  0.06089  0.74133  0.35854  1.0000
  H   H850      1.0  0.08831  0.71493  0.39602  1.0000
  C   C497      1.0  0.05218  0.74857  0.36843  1.0000
  S   S134      1.0  0.03662  0.73987  0.20830  1.0000
  H   H851      1.0  0.10301  0.73633  0.37477  1.0000
  H   H852      1.0  0.14502  0.66895  0.46330  1.0000
  H   H853      1.0  0.24682  0.79903  0.45608  1.0000
  S   S135      1.0  0.17339  0.74277  0.13095  1.0000
  H   H854      1.0  0.00436  0.89160  0.25139  1.0000
  H   H855      1.0  0.16307  0.69664  0.99761  1.0000
  H   H856      1.0  0.00403  0.67794  0.20921  1.0000
  S   S136      1.0  0.16818  0.73762  0.99016  1.0000
  Fe  Fe61      1.0  0.10068  0.71148  0.20436  1.0000
  C   C498      1.0  0.15776  0.73047  0.14397  1.0000
  S   S137      1.0  0.01352  0.74708  0.34557  1.0000
  H   H857      1.0  0.21230  0.75638  0.36978  1.0000
  C   C499      1.0  0.13149  0.72902  0.16685  1.0000
  C   C500      1.0  0.18414  0.89027  0.47190  1.0000
  H   H858      1.0  0.15499  0.91899  0.00136  1.0000
  C   C501      1.0  0.22449  0.83115  0.02548  1.0000
  H   H859      1.0  0.17432  0.90456  0.03157  1.0000
  Fe  Fe62      1.0  0.08141  0.70159  0.24165  1.0000
  Fe  Fe63      1.0  0.14207  0.75512  0.98753  1.0000
  H   H860      1.0  0.08062  0.71596  0.00727  1.0000
  S   S138      1.0  0.08119  0.74069  0.44176  1.0000
  H   H861      1.0  0.14569  0.68288  0.47756  1.0000
  S   S139      1.0  0.10730  0.71010  0.23015  1.0000
  C   C502      1.0  0.14345  0.73860  0.15512  1.0000
  H   H862      1.0  0.14171  0.75236  0.15476  1.0000
  C   C503      1.0  0.23049  0.79790  0.05306  1.0000
  S   S140      1.0  0.18492  0.72534  0.08661  1.0000
  S   S141      1.0  0.17832  0.84640  0.00480  1.0000
  Fe  Fe64      1.0  0.21317  0.71114  0.08192  1.0000
  H   H863      1.0  0.11135  0.70899  0.43034  1.0000
  S   S142      1.0  0.23533  0.73009  0.41077  1.0000
  H   H864      1.0  0.12727  0.69292  0.45179  1.0000
  Fe  Fe65      1.0  0.05807  0.75832  0.45429  1.0000
  H   H865      1.0  0.14320  0.80605  0.00182  1.0000
  H   H866      1.0  0.17516  0.67795  0.01045  1.0000
  H   H867      1.0  0.21273  0.82550  0.03226  1.0000
  Fe  Fe66      1.0  0.00110  0.76844  0.09281  1.0000
  H   H868      1.0  0.14541  0.85747  0.02832  1.0000
  C   C504      1.0  0.00446  0.81708  0.15360  1.0000
  H   H869      1.0  0.04890  0.69487  0.15248  1.0000
  H   H870      1.0  0.13905  0.80474  0.37298  1.0000
  S   S143      1.0  0.11984  0.69864  0.18333  1.0000
  Fe  Fe67      1.0  0.19528  0.86510  0.98800  1.0000
  C   C505      1.0  0.00097  0.68688  0.15331  1.0000
  H   H871      1.0  0.11934  0.89561  0.02747  1.0000
  H   H872      1.0  0.00880  0.76614  0.39263  1.0000
  H   H873      1.0  0.09012  0.72691  0.01820  1.0000
  C   C506      1.0  0.12935  0.90335  0.02675  1.0000
  S   S144      1.0  0.07452  0.77499  0.45922  1.0000
  C   C507      1.0  0.13384  0.71117  0.16765  1.0000
  H   H874      1.0  0.02709  0.73748  0.01056  1.0000
  H   H875      1.0  0.24464  0.67368  0.41018  1.0000
  H   H876      1.0  0.02829  0.81257  0.09005  1.0000
  H   H877      1.0  0.23718  0.68095  0.45899  1.0000
  H   H878      1.0  0.01983  0.76885  0.27841  1.0000
  C   C508      1.0  0.03462  0.74285  0.03184  1.0000
  S   S145      1.0  0.07595  0.70108  0.21611  1.0000
  H   H879      1.0  0.15190  0.72626  0.42289  1.0000
  S   S146      1.0  0.07914  0.67780  0.26269  1.0000
  H   H880      1.0  0.01233  0.84219  0.09762  1.0000
  C   C509      1.0  0.15974  0.71274  0.14423  1.0000
  C   C510      1.0  0.14558  0.88783  0.00268  1.0000
  H   H881      1.0  0.01054  0.77324  0.24607  1.0000
  H   H882      1.0  0.23450  0.82546  0.40666  1.0000
  H   H883      1.0  0.11548  0.77101  0.46302  1.0000
  H   H884      1.0  0.12911  0.71875  0.41693  1.0000
  H   H885      1.0  0.06346  0.81154  0.46388  1.0000
  C   C511      1.0  0.05668  0.73618  0.98485  1.0000
  C   C512      1.0  0.19908  0.83366  0.47387  1.0000
  H   H886      1.0  0.22849  0.81404  0.44767  1.0000
  C   C513      1.0  0.18519  0.80227  0.36287  1.0000
  H   H887      1.0  0.15290  0.91889  0.03455  1.0000
  C   C514      1.0  0.13828  0.90089  0.98757  1.0000
  S   S147      1.0  0.19945  0.65894  0.46067  1.0000
  C   C515      1.0  0.15527  0.71721  0.46934  1.0000
  H   H888      1.0  0.12977  0.90308  0.04049  1.0000
  C   C516      1.0  0.14781  0.70311  0.15610  1.0000
  C   C517      1.0  0.04367  0.76388  0.99556  1.0000
  H   H889      1.0  0.17075  0.70636  0.13569  1.0000
  H   H890      1.0  0.14966  0.68931  0.15657  1.0000
  H   H891      1.0  0.17384  0.69014  0.45522  1.0000
  H   H892      1.0  0.15884  0.80769  0.34707  1.0000
  H   H893      1.0  0.02019  0.87865  0.30585  1.0000
  H   H894      1.0  0.20488  0.83791  0.46000  1.0000
  C   C518      1.0  0.21552  0.88360  0.47050  1.0000
  C   C519      1.0  0.24164  0.81730  0.02511  1.0000
  C   C520      1.0  0.15344  0.67572  0.46723  1.0000
  H   H895      1.0  0.17649  0.79523  0.33486  1.0000
  H   H896      1.0  0.12457  0.93142  0.02636  1.0000
  C   C521      1.0  0.05036  0.67250  0.25302  1.0000
  H   H897      1.0  0.02295  0.66210  0.20240  1.0000
  H   H898      1.0  0.24431  0.80391  0.07948  1.0000
  C   C522      1.0  0.06563  0.67086  0.19778  1.0000
  H   H899      1.0  0.01166  0.67666  0.14814  1.0000
  C   C523      1.0  0.23646  0.66266  0.05344  1.0000
  H   H900      1.0  0.23243  0.77240  0.04693  1.0000
  H   H901      1.0  0.01898  0.78219  0.40962  1.0000
  H   H902      1.0  0.19237  0.75412  0.38587  1.0000
  H   H903      1.0  0.20680  0.81540  0.34939  1.0000
  H   H904      1.0  0.02381  0.68431  0.19546  1.0000
  S   S148      1.0  0.22473  0.68348  0.07783  1.0000
  H   H905      1.0  0.17352  0.84813  0.47060  1.0000
  H   H906      1.0  0.13126  0.86978  0.04428  1.0000
  C   C524      1.0  0.20802  0.67660  0.03678  1.0000
  H   H907      1.0  0.16846  0.67996  0.44102  1.0000
  H   H908      1.0  0.02640  0.83152  0.07263  1.0000
  C   C525      1.0  0.01624  0.77250  0.29129  1.0000
  C   C526      1.0  0.16246  0.68772  0.45142  1.0000
  C   C527      1.0  0.14295  0.71583  0.45789  1.0000
  H   H909      1.0  0.02075  0.82036  0.31463  1.0000
  C   C528      1.0  0.07756  0.72604  0.01527  1.0000
  N   N39       1.0  0.00480  0.69128  0.16893  1.0000
  H   H910      1.0  0.22682  0.88431  0.47517  1.0000
  C   C529      1.0  0.12202  0.92258  0.01912  1.0000
  Fe  Fe68      1.0  0.23274  0.87025  0.98352  1.0000
  S   S149      1.0  0.01028  0.72886  0.39620  1.0000
  C   C530      1.0  0.01401  0.79311  0.35387  1.0000
  H   H911      1.0  0.23419  0.78952  0.06527  1.0000
  H   H912      1.0  0.13765  0.72929  0.45146  1.0000
  H   H913      1.0  0.02165  0.78009  0.18733  1.0000
  H   H914      1.0  0.04489  0.65977  0.31896  1.0000
  H   H915      1.0  0.16887  0.87426  0.02421  1.0000
  C   C531      1.0  0.22492  0.66705  0.43268  1.0000
  H   H916      1.0  0.00588  0.78392  0.36129  1.0000
  H   H917      1.0  0.12672  0.92691  0.00504  1.0000
  Fe  Fe69      1.0  0.08159  0.72483  0.46852  1.0000
  N   N40       1.0  0.15062  0.70434  0.44461  1.0000
  C   C532      1.0  0.17711  0.71949  0.42939  1.0000
  H   H918      1.0  0.24189  0.69935  0.44273  1.0000
  H   H919      1.0  0.19636  0.65898  0.98805  1.0000
  H   H920      1.0  0.13216  0.78617  0.47461  1.0000
  C   C533      1.0  0.13572  0.69915  0.43994  1.0000
  C   C534      1.0  0.03794  0.68778  0.15535  1.0000
  C   C535      1.0  0.06539  0.66502  0.26020  1.0000
  C   C536      1.0  0.15529  0.88007  0.03031  1.0000
  H   H921      1.0  0.22825  0.79145  0.45469  1.0000
  H   H922      1.0  0.18357  0.72524  0.41611  1.0000
  H   H923      1.0  0.16444  0.70594  0.41785  1.0000
  H   H924      1.0  0.21287  0.71652  0.45199  1.0000
  C   C537      1.0  0.01491  0.67508  0.19812  1.0000
  C   C538      1.0  0.23881  0.77801  0.38175  1.0000
  H   H925      1.0  0.21059  0.78542  0.05009  1.0000
  H   H926      1.0  0.17380  0.72988  0.43708  1.0000
  H   H927      1.0  0.20480  0.77836  0.98575  1.0000
  C   C539      1.0  0.16047  0.71395  0.42812  1.0000
  H   H928      1.0  0.01492  0.67150  0.31487  1.0000
  H   H929      1.0  0.22281  0.83691  0.01188  1.0000
  C   C540      1.0  0.22356  0.67649  0.05911  1.0000
  H   H930      1.0  0.99912  0.72542  0.18031  1.0000
  C   C541      1.0  0.02229  0.66146  0.30715  1.0000
  C   C542      1.0  0.20884  0.80124  0.99203  1.0000
  Fe  Fe70      1.0  0.22779  0.74207  0.08372  1.0000
  H   H931      1.0  0.99862  0.70715  0.19840  1.0000
  H   H932      1.0  0.02796  0.85619  0.30323  1.0000
  H   H933      1.0  0.04171  0.77049  0.00665  1.0000
  C   C543      1.0  0.20204  0.80377  0.34887  1.0000
  H   H934      1.0  0.01707  0.88705  0.27420  1.0000
  H   H935      1.0  0.09053  0.67930  0.18859  1.0000
  H   H936      1.0  0.17097  0.92580  0.01844  1.0000
  H   H937      1.0  0.23522  0.79600  0.42343  1.0000
  H   H938      1.0  0.00801  0.82323  0.11318  1.0000
  S   S150      1.0  0.09989  0.73846  0.47440  1.0000
  C   C544      1.0  0.03975  0.73603  0.01464  1.0000
  H   H939      1.0  0.02329  0.75402  0.03158  1.0000
  H   H940      1.0  0.04132  0.67562  0.16483  1.0000
  H   H941      1.0  0.24245  0.75902  0.10995  1.0000
  H   H942      1.0  0.22511  0.79045  0.03034  1.0000
  H   H943      1.0  0.16340  0.66531  0.47306  1.0000
  H   H944      1.0  0.17231  0.90111  0.00341  1.0000
  H   H945      1.0  0.19971  0.80552  0.33556  1.0000
  H   H946      1.0  0.23095  0.87028  0.44994  1.0000
  H   H947      1.0  0.01943  0.66673  0.29381  1.0000
  H   H948      1.0  0.15155  0.85583  0.04833  1.0000
  C   C545      1.0  0.23559  0.69535  0.45662  1.0000
  H   H949      1.0  0.00451  0.79799  0.13900  1.0000
  C   C546      1.0  0.21562  0.70254  0.45824  1.0000
  C   C547      1.0  0.02626  0.87001  0.29636  1.0000
  C   C548      1.0  0.04186  0.66149  0.30591  1.0000
  C   C549      1.0  0.20074  0.79265  0.98166  1.0000
  C   C550      1.0  0.23528  0.65597  0.03935  1.0000
  H   H950      1.0  0.15258  0.73086  0.47118  1.0000
  H   H951      1.0  0.14585  0.84612  0.46898  1.0000
  H   H952      1.0  0.18624  0.79552  0.98650  1.0000
  H   H953      1.0  0.23928  0.87662  0.01902  1.0000
  H   H954      1.0  0.03104  0.73051  0.98478  1.0000
  C   C551      1.0  0.19865  0.89123  0.47826  1.0000
  C   C552      1.0  0.08564  0.66702  0.19070  1.0000
  H   H955      1.0  0.03019  0.76518  0.99334  1.0000
  S   S151      1.0  0.05700  0.74122  0.48104  1.0000
  C   C553      1.0  0.00244  0.81982  0.08240  1.0000
  H   H956      1.0  0.00113  0.80607  0.08785  1.0000
  H   H957      1.0  0.11384  0.66365  0.47715  1.0000
  H   H958      1.0  0.22647  0.72564  0.46837  1.0000
  C   C554      1.0  0.99942  0.70223  0.29417  1.0000
  H   H959      1.0  0.08274  0.66049  0.22577  1.0000
  C   C555      1.0  0.09623  0.65715  0.21828  1.0000
  N   N41       1.0  0.24433  0.70057  0.46857  1.0000
  C   C556      1.0  0.24079  0.72021  0.46503  1.0000
  Fe  Fe71      1.0  0.99768  0.74053  0.37251  1.0000
  S   S152      1.0  0.99735  0.79635  0.32723  1.0000
  S   S153      1.0  0.21758  0.65302  0.01512  1.0000
  H   H960      1.0  0.24669  0.87853  0.04651  1.0000
  N   N42       1.0  0.99706  0.87151  0.28690  1.0000
  H   H961      1.0  0.24694  0.74296  0.46999  1.0000
  C   C557      1.0  0.24694  0.81975  0.05266  1.0000
  H   H962      1.0  0.20129  0.84270  0.48110  1.0000
  Fe  Fe72      1.0  0.21461  0.90341  0.51129  1.0000
  C   C558      1.0  0.20768  0.66198  0.91818  1.0000
  C   C559      1.0  0.22321  0.94626  0.83759  1.0000
  H   H963      1.0  0.19564  0.79602  0.93994  1.0000
  C   C560      1.0  0.19631  0.94055  0.73495  1.0000
  H   H964      1.0  0.12678  0.84502  0.48572  1.0000
  H   H965      1.0  0.19089  0.92921  0.76273  1.0000
  H   H966      1.0  0.14540  0.97298  0.83480  1.0000
  H   H967      1.0  0.17996  0.67533  0.55741  1.0000
  H   H968      1.0  0.09825  0.73903  0.53942  1.0000
  H   H969      1.0  0.23372  0.66834  0.71907  1.0000
  H   H970      1.0  0.19240  0.88556  0.71678  1.0000
  H   H971      1.0  0.15995  0.71337  0.97039  1.0000
  S   S154      1.0  0.13019  0.81976  0.96947  1.0000
  H   H972      1.0  0.24075  0.68502  0.51384  1.0000
  C   C561      1.0  0.24376  0.96210  0.58195  1.0000
  Fe  Fe73      1.0  0.22222  0.92354  0.53597  1.0000
  H   H973      1.0  0.22233  0.93792  0.65071  1.0000
  H   H974      1.0  0.22124  0.67116  0.97503  1.0000
  S   S155      1.0  0.20291  0.90655  0.53894  1.0000
  H   H975      1.0  0.13289  0.70693  0.93217  1.0000
  H   H976      1.0  0.19557  0.75754  0.57334  1.0000
  C   C562      1.0  0.10751  0.68814  0.51448  1.0000
  H   H977      1.0  0.21278  0.82109  0.93042  1.0000
  Fe  Fe74      1.0  0.14787  0.78390  0.58827  1.0000
  S   S156      1.0  0.12136  0.80113  0.58595  1.0000
  S   S157      1.0  0.15245  0.75846  0.60722  1.0000
  Fe  Fe75      1.0  0.16702  0.80690  0.55865  1.0000
  S   S158      1.0  0.14261  0.82646  0.55445  1.0000
  S   S159      1.0  0.19294  0.81023  0.54158  1.0000
  Fe  Fe76      1.0  0.13559  0.82284  0.58359  1.0000
  S   S160      1.0  0.12458  0.84517  0.59826  1.0000
  Fe  Fe77      1.0  0.13088  0.80311  0.55683  1.0000
  S   S161      1.0  0.12091  0.80443  0.53227  1.0000
  S   S162      1.0  0.16131  0.80541  0.58733  1.0000
  S   S163      1.0  0.15603  0.78381  0.55978  1.0000
  H   H978      1.0  0.23129  0.68649  0.87891  1.0000
  H   H979      1.0  0.15223  0.70910  0.48254  1.0000
  H   H980      1.0  0.20687  0.73590  0.57922  1.0000
  C   C563      1.0  0.19025  0.65928  0.96345  1.0000
  H   H981      1.0  0.20547  0.98281  0.75116  1.0000
  S   S164      1.0  0.22828  0.73381  0.62568  1.0000
  Fe  Fe78      1.0  0.23320  0.67980  0.60488  1.0000
  S   S165      1.0  0.21139  0.66740  0.60441  1.0000
  C   C564      1.0  0.18938  0.97638  0.93542  1.0000
  Fe  Fe79      1.0  0.14896  0.90164  0.69312  1.0000
  S   S166      1.0  0.16605  0.87476  0.69426  1.0000
  S   S167      1.0  0.13016  0.91024  0.71686  1.0000
  Fe  Fe80      1.0  0.16525  0.91387  0.65572  1.0000
  S   S168      1.0  0.18352  0.88834  0.65369  1.0000
  S   S169      1.0  0.16824  0.93586  0.63275  1.0000
  Fe  Fe81      1.0  0.16019  0.87648  0.66783  1.0000
  S   S170      1.0  0.15900  0.85249  0.65845  1.0000
  Fe  Fe82      1.0  0.18803  0.88872  0.67990  1.0000
  S   S171      1.0  0.21613  0.88418  0.68354  1.0000
  S   S172      1.0  0.14126  0.90227  0.66790  1.0000
  S   S173      1.0  0.17152  0.91522  0.68078  1.0000
  Fe  Fe83      1.0  0.14066  0.68657  0.89824  1.0000
  S   S174      1.0  0.15331  0.69374  0.87000  1.0000
  S   S175      1.0  0.11335  0.70042  0.90853  1.0000
  Fe  Fe84      1.0  0.17680  0.69346  0.88066  1.0000
  H   H982      1.0  0.20231  0.89751  0.89639  1.0000
  C   C565      1.0  0.20610  0.76237  0.53897  1.0000
  S   S176      1.0  0.16344  0.68811  0.90871  1.0000
  H   H983      1.0  0.22041  0.93464  0.59837  1.0000
  H   H984      1.0  0.15045  0.66399  0.75360  1.0000
  S   S177      1.0  0.07356  0.76283  0.51144  1.0000
  C   C566      1.0  0.23572  0.65910  0.71030  1.0000
  H   H985      1.0  0.04642  0.73094  0.96463  1.0000
  C   C567      1.0  0.17783  0.91577  0.89047  1.0000
  H   H986      1.0  0.20290  0.96046  0.70241  1.0000
  H   H987      1.0  0.17457  0.96454  0.97901  1.0000
  C   C568      1.0  0.16359  0.92387  0.93796  1.0000
  N   N43       1.0  0.06338  0.97415  0.73769  1.0000
  H   H988      1.0  0.10143  0.71539  0.56666  1.0000
  H   H989      1.0  0.06733  0.74127  0.97457  1.0000
  C   C569      1.0  0.18539  0.96547  0.81100  1.0000
  C   C570      1.0  0.23657  0.69325  0.48722  1.0000
  H   H990      1.0  0.13037  0.67169  0.78358  1.0000
  Fe  Fe85      1.0  0.16318  0.66486  0.87131  1.0000
  Fe  Fe86      1.0  0.22453  0.88461  0.54610  1.0000
  C   C571      1.0  0.17774  0.97811  0.72407  1.0000
  S   S178      1.0  0.21907  0.86346  0.56922  1.0000
  C   C572      1.0  0.22011  0.92436  0.65498  1.0000
  H   H991      1.0  0.08721  0.71292  0.55405  1.0000
  H   H992      1.0  0.19739  0.75788  0.53292  1.0000
  S   S179      1.0  0.14830  0.65768  0.89860  1.0000
  S   S180      1.0  0.19498  0.90267  0.49542  1.0000
  H   H993      1.0  0.20683  0.97452  0.63093  1.0000
  S   S181      1.0  0.23243  0.70768  0.59219  1.0000
  H   H994      1.0  0.23575  0.71711  0.52515  1.0000
  H   H995      1.0  0.15940  0.69095  0.97128  1.0000
  C   C573      1.0  0.19959  0.81801  0.95816  1.0000
  C   C574      1.0  0.16478  0.92403  0.73924  1.0000
  H   H996      1.0  0.15147  0.85964  0.51097  1.0000
  C   C575      1.0  0.21904  0.88682  0.70356  1.0000
  H   H997      1.0  0.22956  0.98304  0.95251  1.0000
  C   C576      1.0  0.17397  0.95201  0.64004  1.0000
  C   C577      1.0  0.16589  0.95550  0.65655  1.0000
  C   C578      1.0  0.12749  0.73506  0.55230  1.0000
  S   S182      1.0  0.13231  0.66460  0.53033  1.0000
  H   H998      1.0  0.23940  0.85715  0.87045  1.0000
  C   C579      1.0  0.18810  0.95978  0.63040  1.0000
  H   H999      1.0  0.15464  0.94993  0.66376  1.0000
  H   H1000     1.0  0.19431  0.95727  0.61753  1.0000
  H   H1001     1.0  0.15296  0.66350  0.78157  1.0000
  H   H1002     1.0  0.23203  0.76405  0.52017  1.0000
  H   H1003     1.0  0.17865  0.74572  0.55651  1.0000
  C   C580      1.0  0.19517  0.96963  0.63799  1.0000
  H   H1004     1.0  0.20943  0.76632  0.94812  1.0000
  C   C581      1.0  0.21718  0.91763  0.63993  1.0000
  C   C582      1.0  0.19159  0.67679  0.56091  1.0000
  C   C583      1.0  0.17253  0.96587  0.66389  1.0000
  H   H1005     1.0  0.14145  0.91672  0.61549  1.0000
  C   C584      1.0  0.15049  0.82889  0.49375  1.0000
  C   C585      1.0  0.15017  0.84215  0.97113  1.0000
  N   N44       1.0  0.14939  0.75779  0.90313  1.0000
  H   H1006     1.0  0.19243  0.86317  0.60332  1.0000
  C   C586      1.0  0.13487  0.84841  0.61397  1.0000
  C   C587      1.0  0.12512  0.85869  0.62616  1.0000
  C   C588      1.0  0.13262  0.86079  0.63938  1.0000
  C   C589      1.0  0.15003  0.85270  0.64045  1.0000
  C   C590      1.0  0.15993  0.84287  0.62794  1.0000
  C   C591      1.0  0.15246  0.84087  0.61468  1.0000
  H   H1007     1.0  0.11154  0.86471  0.62565  1.0000
  H   H1008     1.0  0.12477  0.86821  0.64906  1.0000
  H   H1009     1.0  0.17339  0.83654  0.62867  1.0000
  H   H1010     1.0  0.16028  0.83330  0.60514  1.0000
  C   C592      1.0  0.17381  0.75157  0.61175  1.0000
  C   C593      1.0  0.18483  0.76341  0.60890  1.0000
  C   C594      1.0  0.20137  0.75796  0.61354  1.0000
  C   C595      1.0  0.20733  0.74047  0.62040  1.0000
  C   C596      1.0  0.19666  0.72841  0.62267  1.0000
  C   C597      1.0  0.17980  0.73401  0.61864  1.0000
  H   H1011     1.0  0.18062  0.77684  0.60342  1.0000
  H   H1012     1.0  0.20970  0.76726  0.61151  1.0000
  H   H1013     1.0  0.20128  0.71481  0.62783  1.0000
  H   H1014     1.0  0.17147  0.72470  0.62075  1.0000
  C   C598      1.0  0.19969  0.82507  0.54965  1.0000
  C   C599      1.0  0.20062  0.84166  0.53962  1.0000
  C   C600      1.0  0.20551  0.85379  0.54619  1.0000
  C   C601      1.0  0.21008  0.84920  0.56254  1.0000
  C   C602      1.0  0.20871  0.83274  0.57282  1.0000
  C   C603      1.0  0.20339  0.82068  0.56639  1.0000
  H   H1015     1.0  0.19738  0.84527  0.52685  1.0000
  H   H1016     1.0  0.20573  0.86672  0.53852  1.0000
  H   H1017     1.0  0.21206  0.82922  0.58556  1.0000
  H   H1018     1.0  0.20238  0.80792  0.57429  1.0000
  C   C604      1.0  0.10782  0.79248  0.52693  1.0000
  C   C605      1.0  0.09634  0.78320  0.53959  1.0000
  C   C606      1.0  0.08568  0.77453  0.53458  1.0000
  C   C607      1.0  0.08677  0.77457  0.51694  1.0000
  C   C608      1.0  0.09842  0.78368  0.50429  1.0000
  C   C609      1.0  0.10869  0.79278  0.50927  1.0000
  H   H1019     1.0  0.09532  0.78310  0.55320  1.0000
  H   H1020     1.0  0.07654  0.76771  0.54446  1.0000
  C   C610      1.0  0.10117  0.71273  0.55395  1.0000
  H   H1021     1.0  0.11742  0.80008  0.49940  1.0000
  H   H1022     1.0  0.15474  0.77664  0.87927  1.0000
  H   H1023     1.0  0.16079  0.70545  0.95118  1.0000
  H   H1024     1.0  0.24457  0.73413  0.52776  1.0000
  N   N45       1.0  0.18487  0.94574  0.72149  1.0000
  C   C611      1.0  0.19344  0.67182  0.57834  1.0000
  C   C612      1.0  0.12642  0.96658  0.72095  1.0000
  C   C613      1.0  0.13235  0.96149  0.70481  1.0000
  C   C614      1.0  0.13328  0.94430  0.70347  1.0000
  C   C615      1.0  0.12817  0.93208  0.71824  1.0000
  C   C616      1.0  0.12167  0.93729  0.73434  1.0000
  C   C617      1.0  0.12099  0.95446  0.73575  1.0000
  H   H1025     1.0  0.20629  0.92410  0.69546  1.0000
  H   H1026     1.0  0.13786  0.94047  0.69099  1.0000
  H   H1027     1.0  0.11769  0.92786  0.74583  1.0000
  H   H1028     1.0  0.11654  0.95821  0.74830  1.0000
  C   C618      1.0  0.14947  0.90361  0.61930  1.0000
  H   H1029     1.0  0.19485  0.95422  0.80644  1.0000
  C   C619      1.0  0.11217  0.67055  0.48751  1.0000
  H   H1030     1.0  0.23972  0.76922  0.56549  1.0000
  H   H1031     1.0  0.23832  0.66516  0.67389  1.0000
  C   C620      1.0  0.16545  0.85632  0.50441  1.0000
  H   H1032     1.0  0.20169  0.92487  0.60924  1.0000
  C   C621      1.0  0.18139  0.96318  0.96593  1.0000
  S   S183      1.0  0.17593  0.67561  0.50159  1.0000
  H   H1033     1.0  0.18897  0.82552  0.93416  1.0000
  C   C622      1.0  0.18082  0.97783  0.95244  1.0000
  H   H1034     1.0  0.18590  0.82224  0.96506  1.0000
  S   S184      1.0  0.23961  0.68251  0.62927  1.0000
  H   H1035     1.0  0.22224  0.75431  0.88254  1.0000
  C   C623      1.0  0.23021  0.75091  0.55618  1.0000
  H   H1036     1.0  0.17434  0.74025  0.57974  1.0000
  C   C624      1.0  0.10152  0.74261  0.94108  1.0000
  C   C625      1.0  0.11701  0.72990  0.94168  1.0000
  C   C626      1.0  0.12103  0.71678  0.93170  1.0000
  C   C627      1.0  0.10946  0.71633  0.92133  1.0000
  C   C628      1.0  0.09391  0.72884  0.92119  1.0000
  C   C629      1.0  0.09004  0.74193  0.93087  1.0000
  C   C630      1.0  0.20079  0.74508  0.56862  1.0000
  H   H1037     1.0  0.12586  0.73023  0.94969  1.0000
  H   H1038     1.0  0.08485  0.72853  0.91336  1.0000
  H   H1039     1.0  0.07806  0.75165  0.93033  1.0000
  C   C631      1.0  0.17105  0.96200  0.72342  1.0000
  H   H1040     1.0  0.21976  0.76379  0.57863  1.0000
  H   H1041     1.0  0.18026  0.80188  0.48705  1.0000
  H   H1042     1.0  0.16077  0.91406  0.95002  1.0000
  H   H1043     1.0  0.17964  0.87324  0.62142  1.0000
  C   C632      1.0  0.21025  0.97732  0.77772  1.0000
  H   H1044     1.0  0.13220  0.75061  0.49284  1.0000
  H   H1045     1.0  0.17108  0.73581  0.90533  1.0000
  Fe  Fe87      1.0  0.24161  0.70972  0.61528  1.0000
  H   H1046     1.0  0.17140  0.75550  0.92722  1.0000
  H   H1047     1.0  0.20226  0.87432  0.61348  1.0000
  C   C633      1.0  0.15918  0.74192  0.91374  1.0000
  C   C634      1.0  0.16201  0.76645  0.88839  1.0000
  S   S185      1.0  0.24311  0.90153  0.54504  1.0000
  H   H1048     1.0  0.24063  0.83090  0.82227  1.0000
  H   H1049     1.0  0.21109  0.74231  0.86292  1.0000
  H   H1050     1.0  0.18334  0.66634  0.58822  1.0000
  C   C635      1.0  0.13827  0.77009  0.91476  1.0000
  H   H1051     1.0  0.20753  0.72694  0.54320  1.0000
  H   H1052     1.0  0.19742  0.77266  0.54589  1.0000
  H   H1053     1.0  0.20385  0.97313  0.57001  1.0000
  C   C636      1.0  0.16536  0.70214  0.96371  1.0000
  H   H1054     1.0  0.17267  0.94519  0.75648  1.0000
  H   H1055     1.0  0.22601  0.85102  0.90201  1.0000
  H   H1056     1.0  0.13375  0.79405  0.89477  1.0000
  H   H1057     1.0  0.16634  0.96830  0.67676  1.0000
  C   C637      1.0  0.08177  0.95573  0.71507  1.0000
  H   H1058     1.0  0.22375  0.88065  0.64800  1.0000
  H   H1059     1.0  0.21313  0.93312  0.90909  1.0000
  Fe  Fe88      1.0  0.11073  0.76470  0.97034  1.0000
  H   H1060     1.0  0.17352  0.86198  0.51011  1.0000
  N   N46       1.0  0.14457  0.79074  0.65223  1.0000
  C   C638      1.0  0.12868  0.80427  0.64778  1.0000
  C   C639      1.0  0.14606  0.79161  0.67021  1.0000
  C   C640      1.0  0.14111  0.77316  0.65249  1.0000
  C   C641      1.0  0.16054  0.79449  0.63853  1.0000
  C   C642      1.0  0.12341  0.80445  0.63063  1.0000
  C   C643      1.0  0.14769  0.80954  0.67243  1.0000
  C   C644      1.0  0.15537  0.75722  0.65740  1.0000
  C   C645      1.0  0.17867  0.78805  0.64395  1.0000
  H   H1061     1.0  0.11690  0.80279  0.65837  1.0000
  H   H1062     1.0  0.13081  0.81766  0.64659  1.0000
  H   H1063     1.0  0.15742  0.78209  0.67459  1.0000
  H   H1064     1.0  0.13437  0.78792  0.67995  1.0000
  H   H1065     1.0  0.12848  0.77112  0.66153  1.0000
  H   H1066     1.0  0.13959  0.77231  0.63945  1.0000
  H   H1067     1.0  0.16116  0.78928  0.62685  1.0000
  H   H1068     1.0  0.15938  0.80872  0.63398  1.0000
  H   H1069     1.0  0.11754  0.79311  0.63154  1.0000
  H   H1070     1.0  0.11316  0.81624  0.62777  1.0000
  H   H1071     1.0  0.13462  0.80513  0.61947  1.0000
  H   H1072     1.0  0.13487  0.81883  0.67308  1.0000
  H   H1073     1.0  0.15190  0.80811  0.68489  1.0000
  H   H1074     1.0  0.15752  0.81536  0.66187  1.0000
  H   H1075     1.0  0.16764  0.75709  0.64737  1.0000
  H   H1076     1.0  0.15073  0.74527  0.65768  1.0000
  H   H1077     1.0  0.15806  0.75605  0.67046  1.0000
  H   H1078     1.0  0.18884  0.78544  0.63229  1.0000
  H   H1079     1.0  0.17994  0.77597  0.65391  1.0000
  H   H1080     1.0  0.18248  0.79850  0.64806  1.0000
  H   H1081     1.0  0.22486  0.71985  0.55505  1.0000
  N   N47       1.0  0.17311  0.92629  0.90465  1.0000
  H   H1082     1.0  0.15113  0.73167  0.91900  1.0000
  C   C646      1.0  0.20470  0.68382  0.54815  1.0000
  H   H1083     1.0  0.18111  0.90442  0.92492  1.0000
  H   H1084     1.0  0.21999  0.93959  0.68608  1.0000
  C   C647      1.0  0.10044  0.68657  0.48756  1.0000
  H   H1085     1.0  0.18548  0.90229  0.60347  1.0000
  H   H1086     1.0  0.14873  0.81805  0.48850  1.0000
  H   H1087     1.0  0.21894  0.89706  0.61781  1.0000
  H   H1088     1.0  0.16461  0.92900  0.59754  1.0000
  H   H1089     1.0  0.15907  0.90747  0.92280  1.0000
  C   C648      1.0  0.20506  0.88730  0.71782  1.0000
  H   H1090     1.0  0.06701  0.77488  0.98135  1.0000
  H   H1091     1.0  0.08253  0.94232  0.72299  1.0000
  C   C649      1.0  0.22689  0.76663  0.56497  1.0000
  H   H1092     1.0  0.09340  0.96060  0.71546  1.0000
  H   H1093     1.0  0.16156  0.90493  0.62267  1.0000
  H   H1094     1.0  0.16253  0.80395  0.52512  1.0000
  Fe  Fe89      1.0  0.24170  0.76080  0.90686  1.0000
  H   H1095     1.0  0.21679  0.67726  0.95366  1.0000
  C   C650      1.0  0.21887  0.77187  0.52411  1.0000
  C   C651      1.0  0.23446  0.77589  0.96336  1.0000
  H   H1096     1.0  0.13631  0.97085  0.69327  1.0000
  C   C652      1.0  0.05376  0.77481  0.97960  1.0000
  H   H1097     1.0  0.17049  0.75692  0.88042  1.0000
  C   C653      1.0  0.18454  0.73846  0.56788  1.0000
  C   C654      1.0  0.19369  0.79122  0.95426  1.0000
  C   C655      1.0  0.18719  0.93618  0.90345  1.0000
  S   S186      1.0  0.20316  0.68929  0.52626  1.0000
  C   C656      1.0  0.23188  0.93771  0.80961  1.0000
  H   H1098     1.0  0.14225  0.89680  0.63163  1.0000
  H   H1099     1.0  0.22746  0.97285  0.75332  1.0000
  C   C657      1.0  0.13715  0.75187  0.89525  1.0000
  C   C658      1.0  0.14570  0.73743  0.88456  1.0000
  H   H1100     1.0  0.12639  0.74709  0.90557  1.0000
  H   H1101     1.0  0.13054  0.76287  0.88628  1.0000
  H   H1102     1.0  0.13519  0.73342  0.88060  1.0000
  H   H1103     1.0  0.15479  0.74204  0.87245  1.0000
  H   H1104     1.0  0.15274  0.72556  0.89209  1.0000
  H   H1105     1.0  0.08867  0.70748  0.50145  1.0000
  C   C659      1.0  0.23739  0.87873  0.64050  1.0000
  H   H1106     1.0  0.05090  0.96272  0.77653  1.0000
  H   H1107     1.0  0.18295  0.66764  0.95339  1.0000
  C   C660      1.0  0.24186  0.86481  0.85694  1.0000
  C   C661      1.0  0.21956  0.68594  0.55280  1.0000
  H   H1108     1.0  0.24084  0.70076  0.89693  1.0000
  H   H1109     1.0  0.14278  0.82744  0.50735  1.0000
  H   H1110     1.0  0.14044  0.89592  0.60030  1.0000
  H   H1111     1.0  0.22435  0.96254  0.50869  1.0000
  H   H1112     1.0  0.15604  0.79458  0.51019  1.0000
  C   C662      1.0  0.16480  0.74438  0.92979  1.0000
  C   C663      1.0  0.18716  0.94190  0.75398  1.0000
  H   H1113     1.0  0.23907  0.70540  0.86651  1.0000
  H   H1114     1.0  0.12651  0.66594  0.83182  1.0000
  C   C664      1.0  0.21599  0.98276  0.75789  1.0000
  H   H1115     1.0  0.07245  0.95027  0.77809  1.0000
  H   H1116     1.0  0.20559  0.96501  0.77967  1.0000
  C   C665      1.0  0.19639  0.94945  0.70367  1.0000
  C   C666      1.0  0.04468  0.98296  0.74394  1.0000
  H   H1117     1.0  0.17946  0.79585  0.95951  1.0000
  C   C667      1.0  0.12216  0.66370  0.50057  1.0000
  S   S187      1.0  0.19037  0.92899  0.98041  1.0000
  H   H1118     1.0  0.21414  0.87871  0.85808  1.0000
  H   H1119     1.0  0.23543  0.83853  0.51875  1.0000
  Fe  Fe90      1.0  0.20320  0.90158  0.97716  1.0000
  H   H1120     1.0  0.15657  0.73096  0.54664  1.0000
  H   H1121     1.0  0.21299  0.92200  0.89250  1.0000
  H   H1122     1.0  0.14643  0.77508  0.92092  1.0000
  H   H1123     1.0  0.22322  0.70204  0.97391  1.0000
  H   H1124     1.0  0.17303  0.96755  0.80625  1.0000
  C   C668      1.0  0.21921  0.73070  0.54523  1.0000
  C   C669      1.0  0.04128  0.73741  0.97602  1.0000
  H   H1125     1.0  0.21978  0.92865  0.70814  1.0000
  C   C670      1.0  0.19327  0.98207  0.80608  1.0000
  H   H1126     1.0  0.22236  0.97370  0.78331  1.0000
  H   H1127     1.0  0.24343  0.94726  0.70281  1.0000
  H   H1128     1.0  0.08264  0.95475  0.70142  1.0000
  H   H1129     1.0  0.05496  0.77031  0.96740  1.0000
  H   H1130     1.0  0.16736  0.93547  0.71188  1.0000
  H   H1131     1.0  0.21292  0.77642  0.51235  1.0000
  H   H1132     1.0  0.03561  0.97372  0.74661  1.0000
  N   N48       1.0  0.23315  0.91173  0.62684  1.0000
  H   H1133     1.0  0.23080  0.91581  0.66128  1.0000
  S   S188      1.0  0.23499  0.88005  0.51889  1.0000
  H   H1134     1.0  0.16708  0.86300  0.49066  1.0000
  H   H1135     1.0  0.16050  0.95992  0.73504  1.0000
  H   H1136     1.0  0.15422  0.93408  0.74465  1.0000
  C   C671      1.0  0.18874  0.66828  0.97861  1.0000
  C   C672      1.0  0.16945  0.91467  0.92229  1.0000
  H   H1137     1.0  0.10529  0.69465  0.52517  1.0000
  H   H1138     1.0  0.17423  0.73256  0.93439  1.0000
  H   H1139     1.0  0.21895  0.85747  0.85314  1.0000
  C   C673      1.0  0.21486  0.73513  0.90522  1.0000
  H   H1140     1.0  0.20413  0.65488  0.95742  1.0000
  C   C674      1.0  0.22364  0.69730  0.96204  1.0000
  C   C675      1.0  0.24531  0.82972  0.91222  1.0000
  Fe  Fe91      1.0  0.20511  0.97285  0.86317  1.0000
  N   N49       1.0  0.21423  0.74751  0.55183  1.0000
  S   S189      1.0  0.18786  0.66550  0.87942  1.0000
  C   C676      1.0  0.18991  0.87463  0.60941  1.0000
  H   H1141     1.0  0.24553  0.86885  0.64905  1.0000
  C   C677      1.0  0.17192  0.83646  0.50697  1.0000
  H   H1142     1.0  0.20700  0.93277  0.94309  1.0000
  C   C678      1.0  0.15289  0.89269  0.60524  1.0000
  H   H1143     1.0  0.16591  0.85989  0.97222  1.0000
  H   H1144     1.0  0.15367  0.87884  0.61173  1.0000
  H   H1145     1.0  0.18776  0.72427  0.56796  1.0000
  H   H1146     1.0  0.19038  0.69449  0.94708  1.0000
  C   C679      1.0  0.14377  0.82686  0.97935  1.0000
  H   H1147     1.0  0.18632  0.76780  0.95225  1.0000
  H   H1148     1.0  0.14479  0.96110  0.88354  1.0000
  H   H1149     1.0  0.21953  0.77861  0.55787  1.0000
  H   H1150     1.0  0.23710  0.96447  0.84104  1.0000
  C   C680      1.0  0.17474  0.77490  0.89349  1.0000
  H   H1151     1.0  0.18900  0.94535  0.89082  1.0000
  C   C681      1.0  0.20053  0.82663  0.93878  1.0000
  H   H1152     1.0  0.18212  0.96173  0.82543  1.0000
  C   C682      1.0  0.18531  0.89199  0.59670  1.0000
  N   N50       1.0  0.20493  0.79841  0.96216  1.0000
  C   C683      1.0  0.22152  0.93641  0.82639  1.0000
  H   H1153     1.0  0.18582  0.83352  0.50855  1.0000
  H   H1154     1.0  0.21171  0.92833  0.83039  1.0000
  C   C684      1.0  0.21016  0.73605  0.87649  1.0000
  H   H1155     1.0  0.09937  0.78384  0.49070  1.0000
  C   C685      1.0  0.19692  0.77129  0.95658  1.0000
  H   H1156     1.0  0.23155  0.80337  0.95443  1.0000
  H   H1157     1.0  0.14543  0.75356  0.54280  1.0000
  C   C686      1.0  0.23559  0.95702  0.83227  1.0000
  H   H1158     1.0  0.24175  0.83298  0.54444  1.0000
  H   H1159     1.0  0.24269  0.80732  0.53323  1.0000
  S   S190      1.0  0.09577  0.76002  0.95228  1.0000
  H   H1160     1.0  0.16473  0.94034  0.57561  1.0000
  H   H1161     1.0  0.15420  0.94972  0.91007  1.0000
  H   H1162     1.0  0.22765  0.66600  0.70048  1.0000
  S   S191      1.0  0.19302  0.71429  0.86906  1.0000
  C   C687      1.0  0.22407  0.97664  0.50685  1.0000
  C   C688      1.0  0.20564  0.92541  0.90513  1.0000
  H   H1163     1.0  0.21017  0.98274  0.51147  1.0000
  C   C689      1.0  0.21705  0.96603  0.57098  1.0000
  C   C690      1.0  0.24684  0.85121  0.93381  1.0000
  H   H1164     1.0  0.22607  0.73887  0.51684  1.0000
  S   S192      1.0  0.09925  0.98594  0.77162  1.0000
  Fe  Fe92      1.0  0.12410  0.79276  0.97964  1.0000
  N   N51       1.0  0.16832  0.89496  0.59046  1.0000
  H   H1165     1.0  0.17265  0.86805  0.58759  1.0000
  H   H1166     1.0  0.12958  0.76305  0.92577  1.0000
  H   H1167     1.0  0.18571  0.97545  0.73416  1.0000
  C   C691      1.0  0.22455  0.95213  0.56220  1.0000
  C   C692      1.0  0.20741  0.89005  0.73350  1.0000
  H   H1168     1.0  0.19652  0.89035  0.74451  1.0000
  S   S193      1.0  0.20891  0.94624  0.85768  1.0000
  C   C693      1.0  0.22416  0.86956  0.85083  1.0000
  C   C694      1.0  0.16998  0.92786  0.58381  1.0000
  H   H1169     1.0  0.15877  0.87270  0.56270  1.0000
  C   C695      1.0  0.24338  0.69206  0.87371  1.0000
  C   C696      1.0  0.16736  0.79748  0.51383  1.0000
  H   H1170     1.0  0.22996  0.69088  0.54300  1.0000
  C   C697      1.0  0.17053  0.88145  0.57966  1.0000
  H   H1171     1.0  0.19652  0.89279  0.58538  1.0000
  H   H1172     1.0  0.20905  0.90763  0.64547  1.0000
  C   C698      1.0  0.06429  0.96779  0.72139  1.0000
  C   C699      1.0  0.14491  0.74054  0.55131  1.0000
  C   C700      1.0  0.16486  0.91276  0.57891  1.0000
  S   S194      1.0  0.22098  0.98019  0.87842  1.0000
  H   H1173     1.0  0.20801  0.82414  0.96296  1.0000
  H   H1174     1.0  0.23207  0.68098  0.48820  1.0000
  H   H1175     1.0  0.22641  0.89621  0.86655  1.0000
  H   H1176     1.0  0.08208  0.95201  0.74816  1.0000
  C   C701      1.0  0.24690  0.90439  0.87301  1.0000
  H   H1177     1.0  0.19755  0.67140  0.91251  1.0000
  C   C702      1.0  0.15501  0.88268  0.57097  1.0000
  H   H1178     1.0  0.15071  0.91687  0.57803  1.0000
  H   H1179     1.0  0.18449  0.92661  0.58100  1.0000
  H   H1180     1.0  0.15241  0.94122  0.87573  1.0000
  H   H1181     1.0  0.19198  0.95158  0.75828  1.0000
  S   S195      1.0  0.22088  0.85387  0.97263  1.0000
  H   H1182     1.0  0.16395  0.96585  0.71240  1.0000
  H   H1183     1.0  0.14567  0.74170  0.56450  1.0000
  H   H1184     1.0  0.17589  0.78480  0.51800  1.0000
  H   H1185     1.0  0.14469  0.93331  0.90696  1.0000
  H   H1186     1.0  0.06034  0.94823  0.75218  1.0000
  H   H1187     1.0  0.23797  0.87309  0.62912  1.0000
  C   C703      1.0  0.22425  0.79328  0.95445  1.0000
  C   C704      1.0  0.23218  0.73051  0.52772  1.0000
  H   H1188     1.0  0.18442  0.92312  0.87804  1.0000
  H   H1189     1.0  0.18245  0.88201  0.56909  1.0000
  H   H1190     1.0  0.15174  0.89548  0.56235  1.0000
  C   C705      1.0  0.23547  0.88888  0.70513  1.0000
  H   H1191     1.0  0.15331  0.74585  0.94066  1.0000
  H   H1192     1.0  0.23614  0.97913  0.93100  1.0000
  H   H1193     1.0  0.10860  0.65438  0.79762  1.0000
  H   H1194     1.0  0.14315  0.87965  0.58072  1.0000
  H   H1195     1.0  0.19505  0.70224  0.90556  1.0000
  S   S196      1.0  0.13677  0.77303  0.96268  1.0000
  H   H1196     1.0  0.17206  0.91247  0.56530  1.0000
  H   H1197     1.0  0.11672  0.74649  0.55467  1.0000
  S   S197      1.0  0.23204  0.92282  0.50736  1.0000
  C   C706      1.0  0.22235  0.66730  0.92000  1.0000
  C   C707      1.0  0.18944  0.89743  0.89384  1.0000
  C   C708      1.0  0.20107  0.71348  0.90050  1.0000
  H   H1198     1.0  0.21511  0.91874  0.58972  1.0000
  S   S198      1.0  0.21269  0.94720  0.54878  1.0000
  C   C709      1.0  0.19065  0.94685  0.96268  1.0000
  C   C710      1.0  0.19897  0.96014  0.93203  1.0000
  H   H1199     1.0  0.22310  0.68090  0.91628  1.0000
  H   H1200     1.0  0.22445  0.70232  0.49216  1.0000
  H   H1201     1.0  0.14362  0.74492  0.51816  1.0000
  H   H1202     1.0  0.15230  0.71580  0.52576  1.0000
  H   H1203     1.0  0.24471  0.82144  0.90387  1.0000
  C   C711      1.0  0.17591  0.93129  0.72174  1.0000
  C   C712      1.0  0.15553  0.94939  0.88332  1.0000
  C   C713      1.0  0.22140  0.68101  0.57011  1.0000
  H   H1204     1.0  0.17414  0.92971  0.93948  1.0000
  H   H1205     1.0  0.19218  0.89179  0.88202  1.0000
  H   H1206     1.0  0.20624  0.71425  0.92518  1.0000
  H   H1207     1.0  0.18937  0.71119  0.95776  1.0000
  H   H1208     1.0  0.11543  0.78265  0.90232  1.0000
  H   H1209     1.0  0.24086  0.75278  0.54462  1.0000
  S   S199      1.0  0.18881  0.88746  0.96640  1.0000
  H   H1210     1.0  0.11047  0.66203  0.82221  1.0000
  H   H1211     1.0  0.13173  0.72795  0.50123  1.0000
  C   C714      1.0  0.22368  0.89247  0.73502  1.0000
  H   H1212     1.0  0.23626  0.88095  0.88251  1.0000
  S   S200      1.0  0.22532  0.89743  0.75453  1.0000
  C   C715      1.0  0.18565  0.69831  0.96003  1.0000
  H   H1213     1.0  0.20020  0.84076  0.93713  1.0000
  H   H1214     1.0  0.22037  0.78388  0.52743  1.0000
  H   H1215     1.0  0.20816  0.92855  0.63346  1.0000
  H   H1216     1.0  0.11188  0.74440  0.50392  1.0000
  H   H1217     1.0  0.12167  0.75608  0.52369  1.0000
  C   C716      1.0  0.12970  0.74335  0.52099  1.0000
  C   C717      1.0  0.23952  0.88982  0.86975  1.0000
  C   C718      1.0  0.20731  0.72034  0.91161  1.0000
  C   C719      1.0  0.20214  0.72155  0.88298  1.0000
  H   H1218     1.0  0.16778  0.78538  0.90077  1.0000
  H   H1219     1.0  0.04650  0.78853  0.97786  1.0000
  C   C720      1.0  0.06499  0.96152  0.77010  1.0000
  H   H1220     1.0  0.16568  0.91346  0.88778  1.0000
  H   H1221     1.0  0.22836  0.76466  0.96476  1.0000
  C   C721      1.0  0.13950  0.71250  0.53337  1.0000
  S   S201      1.0  0.21960  0.87608  0.92393  1.0000
  Fe  Fe93      1.0  0.17237  0.66004  0.90648  1.0000
  H   H1222     1.0  0.15601  0.70086  0.55300  1.0000
  H   H1223     1.0  0.13508  0.70573  0.52525  1.0000
  H   H1224     1.0  0.18267  0.88842  0.90459  1.0000
  C   C722      1.0  0.21547  0.92238  0.60199  1.0000
  Fe  Fe94      1.0  0.21572  0.87766  0.95196  1.0000
  C   C723      1.0  0.12404  0.66442  0.81938  1.0000
  C   C724      1.0  0.23529  0.65523  0.92782  1.0000
  H   H1225     1.0  0.17311  0.91700  0.74889  1.0000
  H   H1226     1.0  0.22577  0.87490  0.83663  1.0000
  N   N52       1.0  0.12628  0.72893  0.53654  1.0000
  H   H1227     1.0  0.12540  0.72517  0.56439  1.0000
  C   C725      1.0  0.15642  0.93954  0.90221  1.0000
  C   C726      1.0  0.21418  0.68184  0.96608  1.0000
  H   H1228     1.0  0.20546  0.91361  0.91546  1.0000
  H   H1229     1.0  0.15135  0.93384  0.93731  1.0000
  C   C727      1.0  0.10774  0.72651  0.53845  1.0000
  H   H1230     1.0  0.20602  0.95914  0.91898  1.0000
  H   H1231     1.0  0.18316  0.94511  0.91282  1.0000
  C   C728      1.0  0.23778  0.89180  0.72081  1.0000
  H   H1232     1.0  0.22982  0.93087  0.80065  1.0000
  Fe  Fe95      1.0  0.19403  0.66787  0.52024  1.0000
  S   S202      1.0  0.12679  0.98341  0.80673  1.0000
  C   C729      1.0  0.11989  0.67260  0.51400  1.0000
  H   H1233     1.0  0.18394  0.76511  0.90087  1.0000
  C   C730      1.0  0.22653  0.97088  0.58098  1.0000
  H   H1234     1.0  0.18831  0.95353  0.69343  1.0000
  C   C731      1.0  0.17793  0.80842  0.49827  1.0000
  C   C732      1.0  0.12619  0.74122  0.50382  1.0000
  H   H1235     1.0  0.20354  0.92688  0.73520  1.0000
  C   C733      1.0  0.09806  0.69533  0.50110  1.0000
  C   C734      1.0  0.14061  0.65721  0.76330  1.0000
  H   H1236     1.0  0.05363  0.96046  0.72333  1.0000
  H   H1237     1.0  0.17723  0.98305  0.77703  1.0000
  H   H1238     1.0  0.11995  0.79473  0.91574  1.0000
  H   H1239     1.0  0.16783  0.95384  0.87618  1.0000
  H   H1240     1.0  0.16487  0.83111  0.52007  1.0000
  C   C735      1.0  0.20837  0.67399  0.58293  1.0000
  H   H1241     1.0  0.10848  0.69942  0.55257  1.0000
  N   N53       1.0  0.16972  0.82751  0.49358  1.0000
  H   H1242     1.0  0.23625  0.73933  0.56503  1.0000
  H   H1243     1.0  0.23322  0.68223  0.57336  1.0000
  C   C736      1.0  0.22701  0.90730  0.61252  1.0000
  H   H1244     1.0  0.22613  0.79270  0.94048  1.0000
  C   C737      1.0  0.23498  0.84656  0.91094  1.0000
  H   H1245     1.0  0.24364  0.72657  0.48894  1.0000
  H   H1246     1.0  0.14682  0.84928  0.95881  1.0000
  H   H1247     1.0  0.23774  0.69284  0.95647  1.0000
  C   C738      1.0  0.19959  0.94531  0.94567  1.0000
  H   H1248     1.0  0.22061  0.98163  0.58764  1.0000
  C   C739      1.0  0.21138  0.93442  0.69834  1.0000
  H   H1249     1.0  0.20814  0.92416  0.66540  1.0000
  H   H1250     1.0  0.24569  0.94825  0.52483  1.0000
  H   H1251     1.0  0.19105  0.80676  0.50152  1.0000
  S   S203      1.0  0.22137  0.74419  0.91967  1.0000
  H   H1252     1.0  0.10608  0.72271  0.52675  1.0000
  H   H1253     1.0  0.13336  0.69823  0.56115  1.0000
  C   C740      1.0  0.14411  0.69893  0.54960  1.0000
  C   C741      1.0  0.24429  0.94843  0.80427  1.0000
  C   C742      1.0  0.21655  0.74281  0.88757  1.0000
  H   H1254     1.0  0.20673  0.94846  0.73120  1.0000
  C   C743      1.0  0.18753  0.97248  0.65485  1.0000
  H   H1255     1.0  0.18559  0.91982  0.71801  1.0000
  C   C744      1.0  0.23530  0.85702  0.92222  1.0000
  H   H1256     1.0  0.19658  0.76438  0.97024  1.0000
  H   H1257     1.0  0.15826  0.91427  0.73717  1.0000
  H   H1258     1.0  0.18300  0.78098  0.88143  1.0000
  C   C745      1.0  0.12629  0.78622  0.90609  1.0000
  H   H1259     1.0  0.14786  0.68579  0.54627  1.0000
  C   C746      1.0  0.06796  0.95830  0.75147  1.0000
  H   H1260     1.0  0.06950  0.97332  0.77031  1.0000
  H   H1261     1.0  0.03527  0.75103  0.97094  1.0000
  H   H1262     1.0  0.06189  0.97874  0.71035  1.0000
  S   S204      1.0  0.22987  0.89321  0.96124  1.0000
  N   N54       1.0  0.19469  0.68547  0.97365  1.0000
  C   C747      1.0  0.16094  0.84819  0.97872  1.0000
  Fe  Fe96      1.0  0.19273  0.65302  0.48999  1.0000
  Fe  Fe97      1.0  0.07558  0.75643  0.48494  1.0000
  H   H1263     1.0  0.24589  0.83097  0.57229  1.0000
  H   H1264     1.0  0.12745  0.66258  0.75986  1.0000
  H   H1265     1.0  0.20561  0.97877  0.81128  1.0000
  H   H1266     1.0  0.23854  0.90186  0.60308  1.0000
  H   H1267     1.0  0.12499  0.67693  0.81013  1.0000
  H   H1268     1.0  0.23435  0.93917  0.61771  1.0000
  H   H1269     1.0  0.08895  0.97879  0.73806  1.0000
  H   H1270     1.0  0.21842  0.70823  0.95217  1.0000
  S   S205      1.0  0.17888  0.98538  0.87685  1.0000
  S   S206      1.0  0.23714  0.78993  0.90107  1.0000
  H   H1271     1.0  0.14175  0.85759  0.48662  1.0000
  H   H1272     1.0  0.23625  0.77660  0.97630  1.0000
  H   H1273     1.0  0.13912  0.89379  0.97715  1.0000
  H   H1274     1.0  0.23763  0.89931  0.83682  1.0000
  H   H1275     1.0  0.18534  0.98345  0.71126  1.0000
  H   H1276     1.0  0.24155  0.91722  0.86541  1.0000
  H   H1277     1.0  0.07239  0.81053  0.48216  1.0000
  C   C748      1.0  0.14096  0.84550  0.48313  1.0000
  H   H1278     1.0  0.22993  0.97640  0.53151  1.0000
  H   H1279     1.0  0.24472  0.84437  0.49634  1.0000
  C   C749      1.0  0.24156  0.94300  0.56366  1.0000
  S   S207      1.0  0.19709  0.98353  0.66506  1.0000
  S   S208      1.0  0.24578  0.97122  0.64157  1.0000
  C   C750      1.0  0.14044  0.65973  0.78170  1.0000
  H   H1280     1.0  0.24291  0.90497  0.88706  1.0000
  Fe  Fe98      1.0  0.16115  0.65618  0.52006  1.0000
  C   C751      1.0  0.24338  0.92618  0.61882  1.0000
  C   C752      1.0  0.24616  0.95809  0.81559  1.0000
  C   C753      1.0  0.24485  0.89559  0.63483  1.0000
  H   H1281     1.0  0.24636  0.88830  0.69416  1.0000
  H   H1282     1.0  0.22752  0.98226  0.49280  1.0000
  C   C754      1.0  0.23570  0.98055  0.51752  1.0000
  Fe  Fe99      1.0  0.39156  0.27136  0.74156  1.0000
  S   S209      1.0  0.39489  0.28376  0.71344  1.0000
  Fe  Fe100     1.0  0.35482  0.26662  0.74321  1.0000
  S   S210      1.0  0.35509  0.27867  0.71497  1.0000
  S   S211      1.0  0.33080  0.26020  0.76246  1.0000
  Fe  Fe101     1.0  0.38267  0.26262  0.71112  1.0000
  S   S212      1.0  0.39721  0.24807  0.68978  1.0000
  Fe  Fe102     1.0  0.36745  0.29850  0.72016  1.0000
  S   S213      1.0  0.38130  0.24895  0.73899  1.0000
  S   S214      1.0  0.36502  0.28760  0.74868  1.0000
  Fe  Fe103     1.0  0.37425  0.22097  0.83871  1.0000
  S   S215      1.0  0.37717  0.20607  0.86537  1.0000
  S   S216      1.0  0.35062  0.24249  0.83648  1.0000
  Fe  Fe104     1.0  0.40852  0.20033  0.82190  1.0000
  S   S217      1.0  0.41419  0.18391  0.84734  1.0000
  S   S218      1.0  0.42814  0.19616  0.79748  1.0000
  Fe  Fe105     1.0  0.38535  0.18248  0.85286  1.0000
  S   S219      1.0  0.37356  0.15816  0.86435  1.0000
  Fe  Fe106     1.0  0.40544  0.20919  0.85700  1.0000
  S   S220      1.0  0.41696  0.22451  0.87003  1.0000
  S   S221      1.0  0.38043  0.19745  0.82680  1.0000
  S   S222      1.0  0.40172  0.22550  0.83090  1.0000
  Fe  Fe107     1.0  0.28153  0.09456  0.84133  1.0000
  Fe  Fe108     1.0  0.31478  0.09016  0.81426  1.0000
  S   S223      1.0  0.31098  0.11846  0.80183  1.0000
  S   S224      1.0  0.33868  0.07223  0.80281  1.0000
  Fe  Fe109     1.0  0.30419  0.12279  0.82930  1.0000
  S   S225      1.0  0.31373  0.14591  0.83270  1.0000
  Fe  Fe110     1.0  0.28272  0.11701  0.80516  1.0000
  S   S226      1.0  0.30972  0.09429  0.84165  1.0000
  S   S227      1.0  0.28717  0.08825  0.81484  1.0000
  H   H1283     1.0  0.46999  0.17126  0.84024  1.0000
  S   S228      1.0  0.44672  0.30487  0.81944  1.0000
  S   S229      1.0  0.47480  0.29733  0.88775  1.0000
  H   H1284     1.0  0.26748  0.03651  0.73808  1.0000
  H   H1285     1.0  0.26339  0.00109  0.80706  1.0000
  C   C755      1.0  0.46024  0.31647  0.85984  1.0000
  H   H1286     1.0  0.29823  0.31359  0.70981  1.0000
  H   H1287     1.0  0.42443  0.01277  0.74254  1.0000
  C   C756      1.0  0.25303  0.01909  0.91618  1.0000
  H   H1288     1.0  0.47503  0.21025  0.71877  1.0000
  H   H1289     1.0  0.48170  0.30862  0.66232  1.0000
  H   H1290     1.0  0.42927  0.21083  0.75327  1.0000
  C   C757      1.0  0.29485  0.29851  0.77628  1.0000
  Fe  Fe111     1.0  0.32644  0.01254  0.75432  1.0000
  S   S230      1.0  0.32344  0.03686  0.73400  1.0000
  S   S231      1.0  0.31400  0.01301  0.78222  1.0000
  Fe  Fe112     1.0  0.31674  0.02034  0.71890  1.0000
  S   S232      1.0  0.29272  0.02892  0.70676  1.0000
  Fe  Fe113     1.0  0.35170  0.02694  0.72268  1.0000
  S   S233      1.0  0.36998  0.04639  0.71167  1.0000
  H   H1291     1.0  0.43536  0.03422  0.70578  1.0000
  H   H1292     1.0  0.28471  0.02158  0.74696  1.0000
  H   H1293     1.0  0.43909  0.21003  0.73119  1.0000
  H   H1294     1.0  0.43070  0.28186  0.92438  1.0000
  H   H1295     1.0  0.40743  0.10648  0.80390  1.0000
  H   H1296     1.0  0.40624  0.15446  0.69848  1.0000
  N   N55       1.0  0.40588  0.18900  0.70502  1.0000
  H   H1297     1.0  0.26700  0.04401  0.66095  1.0000
  H   H1298     1.0  0.38709  0.15189  0.71474  1.0000
  H   H1299     1.0  0.36823  0.19805  0.70760  1.0000
  H   H1300     1.0  0.25697  0.04348  0.89747  1.0000
  Fe  Fe114     1.0  0.42353  0.09449  0.74820  1.0000
  S   S234      1.0  0.40979  0.11963  0.73417  1.0000
  S   S235      1.0  0.41110  0.07059  0.75666  1.0000
  Fe  Fe115     1.0  0.41577  0.13125  0.75389  1.0000
  S   S236      1.0  0.39478  0.15140  0.76552  1.0000
  S   S237      1.0  0.42784  0.10599  0.76918  1.0000
  H   H1301     1.0  0.25935  0.99538  0.49396  1.0000
  H   H1302     1.0  0.46049  0.16120  0.66602  1.0000
  C   C758      1.0  0.38066  0.05347  0.72461  1.0000
  C   C759      1.0  0.38979  0.06717  0.71705  1.0000
  C   C760      1.0  0.39847  0.07316  0.72692  1.0000
  C   C761      1.0  0.39862  0.06504  0.74431  1.0000
  C   C762      1.0  0.38950  0.05137  0.75184  1.0000
  C   C763      1.0  0.38042  0.04571  0.74211  1.0000
  H   H1303     1.0  0.39009  0.07319  0.70349  1.0000
  H   H1304     1.0  0.40546  0.08368  0.72094  1.0000
  H   H1305     1.0  0.38953  0.04502  0.76528  1.0000
  H   H1306     1.0  0.37346  0.03516  0.74807  1.0000
  C   C764      1.0  0.28962  0.01494  0.69467  1.0000
  S   S238      1.0  0.26495  0.13064  0.78605  1.0000
  H   H1307     1.0  0.43902  0.22490  0.90896  1.0000
  H   H1308     1.0  0.40062  0.24272  0.92083  1.0000
  C   C765      1.0  0.27135  0.00813  0.67818  1.0000
  C   C766      1.0  0.27359  0.01801  0.68925  1.0000
  C   C767      1.0  0.27809  0.04610  0.75482  1.0000
  H   H1309     1.0  0.27096  0.05584  0.80293  1.0000
  H   H1310     1.0  0.25905  0.01079  0.67389  1.0000
  H   H1311     1.0  0.26299  0.02831  0.69334  1.0000
  H   H1312     1.0  0.38219  0.20419  0.73340  1.0000
  H   H1313     1.0  0.49128  0.29843  0.84008  1.0000
  C   C768      1.0  0.42708  0.24846  0.94117  1.0000
  C   C769      1.0  0.25257  0.99156  0.89817  1.0000
  H   H1314     1.0  0.45260  0.27522  0.91207  1.0000
  H   H1315     1.0  0.40820  0.22394  0.91120  1.0000
  C   C770      1.0  0.46158  0.28544  0.86572  1.0000
  H   H1316     1.0  0.25467  0.05944  0.79037  1.0000
  C   C771      1.0  0.33267  0.05453  0.79834  1.0000
  C   C772      1.0  0.34312  0.04633  0.78487  1.0000
  C   C773      1.0  0.33739  0.03358  0.77987  1.0000
  C   C774      1.0  0.32156  0.02848  0.78881  1.0000
  C   C775      1.0  0.31156  0.03604  0.80285  1.0000
  C   C776      1.0  0.31705  0.04914  0.80752  1.0000
  H   H1317     1.0  0.35538  0.05019  0.77795  1.0000
  H   H1318     1.0  0.34525  0.02771  0.76910  1.0000
  H   H1319     1.0  0.29943  0.03197  0.80991  1.0000
  H   H1320     1.0  0.30931  0.05490  0.81838  1.0000
  H   H1321     1.0  0.28349  0.09723  0.77787  1.0000
  H   H1322     1.0  0.26715  0.99442  0.76404  1.0000
  H   H1323     1.0  0.43575  0.28876  0.90131  1.0000
  C   C777      1.0  0.35884  0.15251  0.85441  1.0000
  C   C778      1.0  0.34709  0.14186  0.86463  1.0000
  C   C779      1.0  0.33403  0.13853  0.85767  1.0000
  C   C780      1.0  0.33282  0.14549  0.84026  1.0000
  C   C781      1.0  0.34505  0.15554  0.82984  1.0000
  C   C782      1.0  0.35807  0.15891  0.83682  1.0000
  H   H1324     1.0  0.34758  0.13680  0.87823  1.0000
  H   H1325     1.0  0.32437  0.13126  0.86600  1.0000
  H   H1326     1.0  0.34405  0.16131  0.81646  1.0000
  H   H1327     1.0  0.36725  0.16679  0.82866  1.0000
  C   C783      1.0  0.41919  0.18412  0.78785  1.0000
  C   C784      1.0  0.42934  0.16888  0.78260  1.0000
  C   C785      1.0  0.42185  0.15868  0.77586  1.0000
  C   C786      1.0  0.40416  0.16372  0.77442  1.0000
  C   C787      1.0  0.39402  0.17899  0.77964  1.0000
  C   C788      1.0  0.40158  0.18926  0.78618  1.0000
  H   H1328     1.0  0.44281  0.16471  0.78428  1.0000
  H   H1329     1.0  0.42966  0.14672  0.77220  1.0000
  H   H1330     1.0  0.38036  0.18298  0.77845  1.0000
  H   H1331     1.0  0.39378  0.20125  0.78985  1.0000
  C   C789      1.0  0.43841  0.22019  0.87425  1.0000
  C   C790      1.0  0.44633  0.20366  0.88213  1.0000
  C   C791      1.0  0.46249  0.20128  0.88730  1.0000
  C   C792      1.0  0.47094  0.21534  0.88443  1.0000
  C   C793      1.0  0.46316  0.23175  0.87622  1.0000
  C   C794      1.0  0.44688  0.23421  0.87138  1.0000
  H   H1332     1.0  0.43973  0.19284  0.88478  1.0000
  H   H1333     1.0  0.46838  0.18853  0.89370  1.0000
  H   H1334     1.0  0.46953  0.24263  0.87388  1.0000
  H   H1335     1.0  0.44075  0.24710  0.86552  1.0000
  C   C795      1.0  0.43835  0.27763  0.91219  1.0000
  C   C796      1.0  0.33623  0.25448  0.78312  1.0000
  C   C797      1.0  0.35313  0.24545  0.78532  1.0000
  C   C798      1.0  0.35759  0.24149  0.80176  1.0000
  C   C799      1.0  0.34537  0.24719  0.81584  1.0000
  C   C800      1.0  0.32855  0.25638  0.81361  1.0000
  C   C801      1.0  0.32384  0.25961  0.79739  1.0000
  H   H1336     1.0  0.36269  0.24124  0.77443  1.0000
  H   H1337     1.0  0.37060  0.23433  0.80342  1.0000
  H   H1338     1.0  0.31906  0.26075  0.82451  1.0000
  H   H1339     1.0  0.31072  0.26635  0.79584  1.0000
  C   C802      1.0  0.41975  0.24418  0.69005  1.0000
  C   C803      1.0  0.42507  0.24397  0.70533  1.0000
  C   C804      1.0  0.44289  0.24214  0.70540  1.0000
  C   C805      1.0  0.45549  0.24088  0.69013  1.0000
  C   C806      1.0  0.45038  0.24017  0.67502  1.0000
  C   C807      1.0  0.43247  0.24180  0.67499  1.0000
  H   H1340     1.0  0.41545  0.24549  0.71709  1.0000
  H   H1341     1.0  0.44680  0.24236  0.71721  1.0000
  H   H1342     1.0  0.46011  0.23906  0.66318  1.0000
  H   H1343     1.0  0.42844  0.24184  0.66316  1.0000
  H   H1344     1.0  0.32029  0.30419  0.71344  1.0000
  H   H1345     1.0  0.31135  0.13653  0.75517  1.0000
  H   H1346     1.0  0.25293  0.01805  0.73232  1.0000
  C   C808      1.0  0.27062  0.05209  0.84780  1.0000
  H   H1347     1.0  0.27727  0.02920  0.83654  1.0000
  H   H1348     1.0  0.28350  0.05532  0.84285  1.0000
  C   C809      1.0  0.31997  0.07893  0.75381  1.0000
  S   S239      1.0  0.26161  0.08142  0.86213  1.0000
  S   S240      1.0  0.27533  0.12352  0.83171  1.0000
  S   S241      1.0  0.41357  0.26998  0.75463  1.0000
  H   H1349     1.0  0.44214  0.26923  0.79155  1.0000
  C   C810      1.0  0.45518  0.23973  0.92225  1.0000
  H   H1350     1.0  0.25153  0.02632  0.92671  1.0000
  H   H1351     1.0  0.41346  0.24405  0.89888  1.0000
  C   C811      1.0  0.38054  0.08881  0.81319  1.0000
  C   C812      1.0  0.35564  0.12228  0.79932  1.0000
  C   C813      1.0  0.44518  0.31588  0.70160  1.0000
  H   H1352     1.0  0.41746  0.01362  0.72308  1.0000
  H   H1353     1.0  0.39446  0.19351  0.68229  1.0000
  S   S242      1.0  0.47725  0.24146  0.69009  1.0000
  H   H1354     1.0  0.47402  0.28973  0.76999  1.0000
  C   C814      1.0  0.26273  0.02934  0.89929  1.0000
  C   C815      1.0  0.39199  0.08477  0.79579  1.0000
  H   H1355     1.0  0.41888  0.26620  0.90797  1.0000
  H   H1356     1.0  0.38509  0.17798  0.72423  1.0000
  H   H1357     1.0  0.42212  0.17433  0.68545  1.0000
  H   H1358     1.0  0.39795  0.18707  0.74330  1.0000
  H   H1359     1.0  0.37274  0.13389  0.80703  1.0000
  C   C816      1.0  0.40899  0.19937  0.71684  1.0000
  C   C817      1.0  0.39616  0.19996  0.73450  1.0000
  C   C818      1.0  0.28509  0.99502  0.67257  1.0000
  H   H1360     1.0  0.39427  0.30333  0.73969  1.0000
  C   C819      1.0  0.43085  0.29417  0.75702  1.0000
  C   C820      1.0  0.41180  0.23602  0.91223  1.0000
  H   H1361     1.0  0.39819  0.13535  0.81219  1.0000
  C   C821      1.0  0.47458  0.13293  0.70081  1.0000
  H   H1362     1.0  0.47766  0.14477  0.73629  1.0000
  C   C822      1.0  0.27063  0.09260  0.75949  1.0000
  H   H1363     1.0  0.29531  0.12846  0.74867  1.0000
  H   H1364     1.0  0.46012  0.13121  0.77981  1.0000
  H   H1365     1.0  0.29438  0.28652  0.77221  1.0000
  N   N56       1.0  0.44841  0.03689  0.72537  1.0000
  H   H1366     1.0  0.39917  0.20923  0.74092  1.0000
  C   C823      1.0  0.29005  0.31498  0.76263  1.0000
  H   H1367     1.0  0.42094  0.04246  0.72362  1.0000
  S   S243      1.0  0.26334  0.00346  0.61663  1.0000
  C   C824      1.0  0.46353  0.29503  0.68284  1.0000
  N   N57       1.0  0.25937  0.02217  0.76429  1.0000
  H   H1368     1.0  0.44944  0.05594  0.75220  1.0000
  C   C825      1.0  0.48590  0.20256  0.79281  1.0000
  C   C826      1.0  0.43118  0.30609  0.68283  1.0000
  C   C827      1.0  0.40720  0.25620  0.94462  1.0000
  C   C828      1.0  0.40148  0.12338  0.82195  1.0000
  H   H1369     1.0  0.46414  0.27283  0.87403  1.0000
  H   H1370     1.0  0.47103  0.12224  0.71100  1.0000
  C   C829      1.0  0.26660  0.01663  0.78081  1.0000
  H   H1371     1.0  0.43123  0.03645  0.75077  1.0000
  H   H1372     1.0  0.25168  0.07394  0.82303  1.0000
  H   H1373     1.0  0.42877  0.23603  0.95080  1.0000
  C   C830      1.0  0.45563  0.28715  0.85037  1.0000
  N   N58       1.0  0.30161  0.31555  0.74481  1.0000
  C   C831      1.0  0.32073  0.31290  0.74563  1.0000
  C   C832      1.0  0.45495  0.04176  0.75370  1.0000
  H   H1374     1.0  0.45262  0.03642  0.76793  1.0000
  H   H1375     1.0  0.48786  0.17128  0.66444  1.0000
  C   C833      1.0  0.48704  0.21920  0.81965  1.0000
  C   C834      1.0  0.25564  0.00621  0.79657  1.0000
  H   H1376     1.0  0.45633  0.17021  0.73862  1.0000
  H   H1377     1.0  0.46401  0.20380  0.69834  1.0000
  H   H1378     1.0  0.45566  0.22000  0.94675  1.0000
  C   C835      1.0  0.48298  0.15633  0.73591  1.0000
  H   H1379     1.0  0.49244  0.18891  0.84095  1.0000
  H   H1380     1.0  0.43582  0.06387  0.72478  1.0000
  H   H1381     1.0  0.27915  0.08013  0.75842  1.0000
  C   C836      1.0  0.46149  0.22142  0.93269  1.0000
  N   N59       1.0  0.33768  0.10348  0.74580  1.0000
  C   C837      1.0  0.34994  0.09632  0.73067  1.0000
  C   C838      1.0  0.33162  0.08845  0.75921  1.0000
  C   C839      1.0  0.34672  0.11267  0.75405  1.0000
  C   C840      1.0  0.32247  0.11638  0.73925  1.0000
  C   C841      1.0  0.36001  0.10920  0.71681  1.0000
  C   C842      1.0  0.36375  0.10188  0.76000  1.0000
  C   C843      1.0  0.30807  0.12474  0.75307  1.0000
  H   H1382     1.0  0.35981  0.08490  0.73532  1.0000
  H   H1383     1.0  0.34265  0.09116  0.72364  1.0000
  H   H1384     1.0  0.32462  0.09239  0.77175  1.0000
  H   H1385     1.0  0.34315  0.07838  0.76260  1.0000
  H   H1386     1.0  0.34987  0.12487  0.74513  1.0000
  H   H1387     1.0  0.33775  0.11697  0.76579  1.0000
  H   H1388     1.0  0.32720  0.12752  0.72969  1.0000
  H   H1389     1.0  0.31620  0.11089  0.73154  1.0000
  H   H1390     1.0  0.36906  0.11394  0.72213  1.0000
  H   H1391     1.0  0.36829  0.10233  0.70638  1.0000
  H   H1392     1.0  0.35106  0.12037  0.71048  1.0000
  H   H1393     1.0  0.30787  0.08776  0.75034  1.0000
  H   H1394     1.0  0.36110  0.09094  0.77100  1.0000
  H   H1395     1.0  0.36979  0.11040  0.76464  1.0000
  H   H1396     1.0  0.37375  0.09682  0.74935  1.0000
  H   H1397     1.0  0.30564  0.11585  0.76577  1.0000
  S   S244      1.0  0.34469  0.01246  0.70551  1.0000
  N   N60       1.0  0.47469  0.20653  0.82509  1.0000
  H   H1398     1.0  0.46494  0.01165  0.72338  1.0000
  S   S245      1.0  0.31710  0.99696  0.74045  1.0000
  C   C844      1.0  0.47825  0.19504  0.81188  1.0000
  C   C845      1.0  0.45571  0.21576  0.82791  1.0000
  H   H1399     1.0  0.28763  0.04115  0.76365  1.0000
  H   H1400     1.0  0.47361  0.18152  0.70221  1.0000
  C   C846      1.0  0.45025  0.22978  0.81254  1.0000
  C   C847      1.0  0.30641  0.30265  0.71736  1.0000
  C   C848      1.0  0.46447  0.29998  0.87019  1.0000
  H   H1401     1.0  0.49561  0.31944  0.81499  1.0000
  H   H1402     1.0  0.29872  0.03002  0.65876  1.0000
  H   H1403     1.0  0.40482  0.09543  0.82597  1.0000
  H   H1404     1.0  0.26167  0.99559  0.88578  1.0000
  H   H1405     1.0  0.44671  0.20641  0.83105  1.0000
  H   H1406     1.0  0.45267  0.22218  0.83924  1.0000
  H   H1407     1.0  0.45131  0.07637  0.69560  1.0000
  H   H1408     1.0  0.43267  0.29031  0.79643  1.0000
  C   C849      1.0  0.43279  0.26176  0.90935  1.0000
  S   S246      1.0  0.48045  0.10629  0.75810  1.0000
  C   C850      1.0  0.43909  0.20266  0.74468  1.0000
  H   H1409     1.0  0.43887  0.06156  0.69407  1.0000
  H   H1410     1.0  0.43592  0.23467  0.81609  1.0000
  H   H1411     1.0  0.45216  0.22456  0.80067  1.0000
  H   H1412     1.0  0.45626  0.24129  0.81039  1.0000
  C   C851      1.0  0.25714  0.09889  0.74998  1.0000
  H   H1413     1.0  0.48577  0.17972  0.76172  1.0000
  H   H1414     1.0  0.40408  0.26372  0.95516  1.0000
  H   H1415     1.0  0.28517  0.29925  0.78868  1.0000
  H   H1416     1.0  0.42816  0.29035  0.71647  1.0000
  H   H1417     1.0  0.31558  0.99898  0.69366  1.0000
  H   H1418     1.0  0.47599  0.21921  0.93141  1.0000
  H   H1419     1.0  0.43978  0.00410  0.72458  1.0000
  H   H1420     1.0  0.26679  0.05528  0.76055  1.0000
  C   C852      1.0  0.26171  0.99480  0.52807  1.0000
  C   C853      1.0  0.45044  0.06238  0.69884  1.0000
  H   H1421     1.0  0.46565  0.02622  0.70346  1.0000
  C   C854      1.0  0.44548  0.03276  0.74502  1.0000
  C   C855      1.0  0.27243  0.03112  0.75036  1.0000
  H   H1422     1.0  0.39943  0.24572  0.94883  1.0000
  H   H1423     1.0  0.46964  0.29760  0.65442  1.0000
  C   C856      1.0  0.46592  0.19224  0.70894  1.0000
  C   C857      1.0  0.45248  0.30346  0.83941  1.0000
  H   H1424     1.0  0.46618  0.19043  0.81197  1.0000
  C   C858      1.0  0.49014  0.13841  0.69975  1.0000
  N   N61       1.0  0.39951  0.28044  0.81566  1.0000
  C   C859      1.0  0.40398  0.27226  0.83338  1.0000
  C   C860      1.0  0.41413  0.27257  0.80240  1.0000
  C   C861      1.0  0.38231  0.27606  0.81526  1.0000
  C   C862      1.0  0.39795  0.29982  0.81313  1.0000
  C   C863      1.0  0.38913  0.27546  0.84926  1.0000
  H   H1425     1.0  0.47512  0.20267  0.85247  1.0000
  C   C864      1.0  0.37860  0.27652  0.79727  1.0000
  H   H1426     1.0  0.28485  0.02795  0.63722  1.0000
  H   H1427     1.0  0.40833  0.25789  0.83480  1.0000
  H   H1428     1.0  0.41523  0.27700  0.83518  1.0000
  H   H1429     1.0  0.41138  0.27699  0.78912  1.0000
  H   H1430     1.0  0.41517  0.25823  0.80498  1.0000
  H   H1431     1.0  0.38145  0.26260  0.82264  1.0000
  H   H1432     1.0  0.37096  0.28475  0.82193  1.0000
  H   H1433     1.0  0.38685  0.30525  0.82286  1.0000
  H   H1434     1.0  0.40958  0.30307  0.81596  1.0000
  H   H1435     1.0  0.38443  0.28948  0.84958  1.0000
  H   H1436     1.0  0.37789  0.26939  0.84996  1.0000
  H   H1437     1.0  0.39436  0.26919  0.86130  1.0000
  C   C865      1.0  0.42354  0.18183  0.69467  1.0000
  H   H1438     1.0  0.45457  0.31212  0.71055  1.0000
  H   H1439     1.0  0.45282  0.18948  0.71540  1.0000
  H   H1440     1.0  0.38677  0.26511  0.79178  1.0000
  H   H1441     1.0  0.38057  0.28853  0.78767  1.0000
  H   H1442     1.0  0.30656  0.28827  0.74339  1.0000
  Fe  Fe116     1.0  0.34543  0.98991  0.72822  1.0000
  H   H1443     1.0  0.47837  0.21535  0.78756  1.0000
  H   H1444     1.0  0.25148  0.04788  0.81306  1.0000
  N   N62       1.0  0.28884  0.05748  0.65006  1.0000
  C   C866      1.0  0.27287  0.05168  0.64839  1.0000
  C   C867      1.0  0.28410  0.06436  0.66670  1.0000
  C   C868      1.0  0.30377  0.04183  0.65103  1.0000
  C   C869      1.0  0.29321  0.07121  0.63417  1.0000
  C   C870      1.0  0.27577  0.04064  0.63444  1.0000
  C   C871      1.0  0.26867  0.08005  0.66775  1.0000
  C   C872      1.0  0.31888  0.04252  0.65940  1.0000
  C   C873      1.0  0.30797  0.08059  0.63365  1.0000
  H   H1445     1.0  0.44919  0.01849  0.74991  1.0000
  H   H1446     1.0  0.26235  0.06311  0.64523  1.0000
  H   H1447     1.0  0.29532  0.06819  0.66949  1.0000
  H   H1448     1.0  0.28062  0.05390  0.67800  1.0000
  H   H1449     1.0  0.49307  0.02485  0.70830  1.0000
  H   H1450     1.0  0.30981  0.03892  0.63784  1.0000
  H   H1451     1.0  0.29728  0.06546  0.62230  1.0000
  H   H1452     1.0  0.28136  0.08132  0.63161  1.0000
  H   H1453     1.0  0.45985  0.21307  0.74723  1.0000
  C   C874      1.0  0.47919  0.14202  0.78647  1.0000
  H   H1454     1.0  0.48798  0.18291  0.81527  1.0000
  H   H1455     1.0  0.26721  0.08459  0.68002  1.0000
  H   H1456     1.0  0.27078  0.09122  0.65689  1.0000
  H   H1457     1.0  0.25608  0.07638  0.66832  1.0000
  H   H1458     1.0  0.31446  0.04207  0.67359  1.0000
  H   H1459     1.0  0.32502  0.05393  0.65330  1.0000
  H   H1460     1.0  0.32934  0.03074  0.65796  1.0000
  H   H1461     1.0  0.32098  0.07346  0.62783  1.0000
  H   H1462     1.0  0.30849  0.08278  0.64643  1.0000
  H   H1463     1.0  0.30547  0.09385  0.62552  1.0000
  C   C875      1.0  0.27310  0.10229  0.77054  1.0000
  H   H1464     1.0  0.46269  0.05531  0.69170  1.0000
  H   H1465     1.0  0.45541  0.19471  0.76382  1.0000
  C   C876      1.0  0.43437  0.19553  0.68346  1.0000
  C   C877      1.0  0.36949  0.10784  0.83484  1.0000
  C   C878      1.0  0.41663  0.29126  0.75180  1.0000
  H   H1466     1.0  0.46715  0.27119  0.71231  1.0000
  C   C879      1.0  0.39895  0.10700  0.81696  1.0000
  Fe  Fe117     1.0  0.45340  0.11091  0.75153  1.0000
  H   H1467     1.0  0.48904  0.16107  0.72227  1.0000
  H   H1468     1.0  0.44004  0.28328  0.76252  1.0000
  H   H1469     1.0  0.41810  0.30953  0.69137  1.0000
  H   H1470     1.0  0.42390  0.28154  0.68229  1.0000
  H   H1471     1.0  0.34522  0.10387  0.85320  1.0000
  H   H1472     1.0  0.44931  0.26702  0.72982  1.0000
  H   H1473     1.0  0.46240  0.23998  0.90855  1.0000
  H   H1474     1.0  0.37537  0.21750  0.70840  1.0000
  H   H1475     1.0  0.40650  0.16535  0.72466  1.0000
  C   C880      1.0  0.39781  0.17371  0.71567  1.0000
  H   H1476     1.0  0.26800  0.02803  0.78537  1.0000
  H   H1477     1.0  0.46503  0.28130  0.68146  1.0000
  C   C881      1.0  0.30318  0.00149  0.68951  1.0000
  C   C882      1.0  0.46500  0.02560  0.71750  1.0000
  H   H1478     1.0  0.42211  0.19408  0.72037  1.0000
  C   C883      1.0  0.25049  0.03285  0.85071  1.0000
  C   C884      1.0  0.39485  0.20055  0.69234  1.0000
  H   H1479     1.0  0.39394  0.12521  0.83508  1.0000
  C   C885      1.0  0.46773  0.18016  0.84939  1.0000
  H   H1480     1.0  0.41559  0.12193  0.82220  1.0000
  C   C886      1.0  0.48561  0.23108  0.83245  1.0000
  N   N63       1.0  0.31536  0.20277  0.85279  1.0000
  C   C887      1.0  0.31823  0.21303  0.83435  1.0000
  C   C888      1.0  0.30188  0.21440  0.86376  1.0000
  C   C889      1.0  0.30844  0.18703  0.85272  1.0000
  C   C890      1.0  0.33282  0.19748  0.85851  1.0000
  C   C891      1.0  0.32985  0.20295  0.82027  1.0000
  C   C892      1.0  0.30737  0.23096  0.86507  1.0000
  C   C893      1.0  0.29809  0.17825  0.87002  1.0000
  C   C894      1.0  0.33285  0.18844  0.87764  1.0000
  H   H1481     1.0  0.30543  0.21898  0.83017  1.0000
  H   H1482     1.0  0.32458  0.22400  0.83343  1.0000
  H   H1483     1.0  0.29804  0.20747  0.87732  1.0000
  H   H1484     1.0  0.28943  0.21856  0.85869  1.0000
  H   H1485     1.0  0.29943  0.19030  0.84333  1.0000
  H   H1486     1.0  0.31939  0.17684  0.84808  1.0000
  H   H1487     1.0  0.34213  0.18829  0.85074  1.0000
  H   H1488     1.0  0.33965  0.20862  0.85548  1.0000
  H   H1489     1.0  0.33103  0.21208  0.80748  1.0000
  H   H1490     1.0  0.34340  0.19769  0.82256  1.0000
  H   H1491     1.0  0.32403  0.19233  0.81898  1.0000
  H   H1492     1.0  0.31961  0.22793  0.87026  1.0000
  H   H1493     1.0  0.30894  0.24021  0.85242  1.0000
  H   H1494     1.0  0.29685  0.23789  0.87422  1.0000
  H   H1495     1.0  0.29573  0.16589  0.86819  1.0000
  H   H1496     1.0  0.28497  0.18645  0.87375  1.0000
  H   H1497     1.0  0.30525  0.17481  0.88081  1.0000
  H   H1498     1.0  0.33424  0.17416  0.87930  1.0000
  H   H1499     1.0  0.32127  0.19355  0.88695  1.0000
  H   H1500     1.0  0.34425  0.19081  0.88159  1.0000
  H   H1501     1.0  0.48290  0.04235  0.71879  1.0000
  H   H1502     1.0  0.36901  0.21583  0.68945  1.0000
  C   C895      1.0  0.42874  0.01474  0.72818  1.0000
  H   H1503     1.0  0.43714  0.27158  0.81359  1.0000
  C   C896      1.0  0.43245  0.27625  0.80116  1.0000
  S   S247      1.0  0.44143  0.13727  0.73803  1.0000
  Fe  Fe118     1.0  0.43684  0.12302  0.71967  1.0000
  S   S248      1.0  0.44329  0.13556  0.69162  1.0000
  H   H1504     1.0  0.40266  0.26566  0.93345  1.0000
  H   H1505     1.0  0.32727  0.07225  0.74295  1.0000
  H   H1506     1.0  0.43550  0.20494  0.69079  1.0000
  N   N64       1.0  0.43557  0.24543  0.92305  1.0000
  C   C897      1.0  0.48415  0.16065  0.67463  1.0000
  H   H1507     1.0  0.43431  0.19041  0.74692  1.0000
  C   C898      1.0  0.47648  0.19588  0.72081  1.0000
  C   C899      1.0  0.46371  0.14129  0.68885  1.0000
  C   C900      1.0  0.46872  0.15488  0.67547  1.0000
  C   C901      1.0  0.25998  0.00609  0.73969  1.0000
  H   H1508     1.0  0.45943  0.31807  0.66086  1.0000
  H   H1509     1.0  0.49483  0.30228  0.74569  1.0000
  H   H1510     1.0  0.32566  0.29938  0.75221  1.0000
  H   H1511     1.0  0.38526  0.16896  0.69620  1.0000
  H   H1512     1.0  0.40192  0.30462  0.78426  1.0000
  C   C902      1.0  0.47392  0.13129  0.77821  1.0000
  C   C903      1.0  0.42910  0.23106  0.91908  1.0000
  H   H1513     1.0  0.38348  0.12213  0.79076  1.0000
  H   H1514     1.0  0.42753  0.22041  0.93073  1.0000
  S   S249      1.0  0.45039  0.09675  0.73193  1.0000
  H   H1515     1.0  0.43185  0.17242  0.70347  1.0000
  C   C904      1.0  0.43319  0.31119  0.75506  1.0000
  H   H1516     1.0  0.45906  0.21097  0.92743  1.0000
  C   C905      1.0  0.26709  0.03726  0.84430  1.0000
  H   H1517     1.0  0.38898  0.07296  0.79339  1.0000
  H   H1518     1.0  0.44794  0.18883  0.67858  1.0000
  H   H1519     1.0  0.48585  0.19339  0.78469  1.0000
  H   H1520     1.0  0.31573  0.06872  0.76500  1.0000
  H   H1521     1.0  0.26303  0.03747  0.63450  1.0000
  H   H1522     1.0  0.42880  0.20274  0.67184  1.0000
  C   C906      1.0  0.45439  0.31819  0.84437  1.0000
  S   S250      1.0  0.25407  0.08570  0.73713  1.0000
  C   C907      1.0  0.39402  0.16178  0.70539  1.0000
  H   H1523     1.0  0.35529  0.12960  0.78582  1.0000
  H   H1524     1.0  0.40924  0.21307  0.71007  1.0000
  C   C908      1.0  0.37580  0.20822  0.70019  1.0000
  H   H1525     1.0  0.40084  0.21193  0.68500  1.0000
  H   H1526     1.0  0.34499  0.12936  0.80820  1.0000
  H   H1527     1.0  0.45394  0.27574  0.84674  1.0000
  H   H1528     1.0  0.35272  0.10954  0.79966  1.0000
  C   C909      1.0  0.39478  0.31090  0.79533  1.0000
  H   H1529     1.0  0.46461  0.16522  0.75775  1.0000
  C   C910      1.0  0.44830  0.05606  0.71870  1.0000
  H   H1530     1.0  0.36720  0.08703  0.81336  1.0000
  C   C911      1.0  0.37376  0.12128  0.80327  1.0000
  H   H1531     1.0  0.34330  0.10678  0.83118  1.0000
  C   C912      1.0  0.35229  0.10080  0.84034  1.0000
  H   H1532     1.0  0.46028  0.24887  0.92709  1.0000
  H   H1533     1.0  0.42085  0.29839  0.66395  1.0000
  H   H1534     1.0  0.28012  0.00867  0.77832  1.0000
  H   H1535     1.0  0.35484  0.08641  0.84205  1.0000
  H   H1536     1.0  0.43904  0.27546  0.70278  1.0000
  H   H1537     1.0  0.44004  0.25918  0.89628  1.0000
  H   H1538     1.0  0.38934  0.09537  0.78460  1.0000
  H   H1539     1.0  0.40619  0.08176  0.79615  1.0000
  H   H1540     1.0  0.36466  0.27560  0.79884  1.0000
  H   H1541     1.0  0.28034  0.04776  0.62114  1.0000
  S   S251      1.0  0.35514  0.00343  0.74418  1.0000
  H   H1542     1.0  0.46935  0.15010  0.79449  1.0000
  H   H1543     1.0  0.36602  0.12162  0.83635  1.0000
  C   C913      1.0  0.45715  0.19978  0.74949  1.0000
  N   N65       1.0  0.38028  0.10627  0.81692  1.0000
  H   H1544     1.0  0.27665  0.02797  0.90019  1.0000
  H   H1545     1.0  0.38524  0.07817  0.82370  1.0000
  C   C914      1.0  0.26217  0.11843  0.77206  1.0000
  C   C915      1.0  0.48266  0.02862  0.71942  1.0000
  H   H1546     1.0  0.37729  0.10077  0.84504  1.0000
  C   C916      1.0  0.44094  0.28615  0.70792  1.0000
  C   C917      1.0  0.42981  0.29225  0.67325  1.0000
  N   N66       1.0  0.47223  0.18809  0.73998  1.0000
  H   H1547     1.0  0.44259  0.28665  0.66570  1.0000
  H   H1548     1.0  0.26741  0.00252  0.51553  1.0000
  H   H1549     1.0  0.47343  0.28278  0.75095  1.0000
  C   C918      1.0  0.40511  0.30537  0.74408  1.0000
  C   C919      1.0  0.46808  0.17019  0.74349  1.0000
  C   C920      1.0  0.25651  0.05884  0.80361  1.0000
  Fe  Fe119     1.0  0.25973  0.99078  0.64488  1.0000
  H   H1550     1.0  0.43390  0.25669  0.94541  1.0000
  H   H1551     1.0  0.48535  0.22803  0.80703  1.0000
  H   H1552     1.0  0.48467  0.21192  0.75466  1.0000
  C   C921      1.0  0.47819  0.19499  0.84212  1.0000
  H   H1553     1.0  0.38053  0.31461  0.79504  1.0000
  N   N67       1.0  0.44554  0.30098  0.69329  1.0000
  H   H1554     1.0  0.30581  0.29054  0.71358  1.0000
  C   C922      1.0  0.48810  0.18628  0.74773  1.0000
  C   C923      1.0  0.45456  0.27752  0.71966  1.0000
  H   H1555     1.0  0.45866  0.06029  0.72257  1.0000
  H   H1556     1.0  0.28483  0.05363  0.74265  1.0000
  C   C924      1.0  0.29954  0.30110  0.73715  1.0000
  H   H1557     1.0  0.48430  0.26801  0.76774  1.0000
  C   C925      1.0  0.43316  0.03293  0.72013  1.0000
  H   H1558     1.0  0.46931  0.03964  0.74894  1.0000
  H   H1559     1.0  0.25710  0.08555  0.80146  1.0000
  H   H1560     1.0  0.26223  0.00682  0.91993  1.0000
  H   H1561     1.0  0.28559  0.29968  0.73995  1.0000
  H   H1562     1.0  0.45343  0.18523  0.85312  1.0000
  H   H1563     1.0  0.43235  0.31808  0.67288  1.0000
  H   H1564     1.0  0.26283  0.02461  0.88752  1.0000
  C   C926      1.0  0.25759  0.06257  0.85785  1.0000
  H   H1565     1.0  0.26914  0.99522  0.53784  1.0000
  S   S252      1.0  0.49261  0.20629  0.65915  1.0000
  H   H1566     1.0  0.25997  0.98648  0.90878  1.0000
  Fe  Fe120     1.0  0.49666  0.27367  0.88778  1.0000
  C   C927      1.0  0.48654  0.12034  0.76832  1.0000
  H   H1567     1.0  0.25523  0.99489  0.73807  1.0000
  C   C928      1.0  0.25738  0.00598  0.75930  1.0000
  H   H1568     1.0  0.47213  0.23864  0.83587  1.0000
  S   S253      1.0  0.49072  0.21218  0.89188  1.0000
  H   H1569     1.0  0.44416  0.31331  0.75913  1.0000
  H   H1570     1.0  0.49114  0.27477  0.72720  1.0000
  H   H1571     1.0  0.27612  0.31591  0.76193  1.0000
  H   H1572     1.0  0.32903  0.31423  0.73235  1.0000
  H   H1573     1.0  0.45690  0.28660  0.72665  1.0000
  H   H1574     1.0  0.47210  0.17218  0.86142  1.0000
  C   C929      1.0  0.30092  0.99157  0.67848  1.0000
  C   C930      1.0  0.46847  0.30559  0.66418  1.0000
  H   H1575     1.0  0.25245  0.99490  0.79348  1.0000
  H   H1576     1.0  0.47387  0.29469  0.69000  1.0000
  H   H1577     1.0  0.30800  0.29731  0.77915  1.0000
  H   H1578     1.0  0.27417  0.00428  0.73357  1.0000
  C   C931      1.0  0.49468  0.15260  0.68700  1.0000
  C   C932      1.0  0.24888  0.07619  0.80979  1.0000
  C   C933      1.0  0.48181  0.28160  0.76037  1.0000
  C   C934      1.0  0.49421  0.20334  0.74638  1.0000
  H   H1579     1.0  0.49051  0.19082  0.71537  1.0000
  H   H1580     1.0  0.48650  0.02054  0.73166  1.0000
  H   H1581     1.0  0.49335  0.15179  0.74379  1.0000
  H   H1582     1.0  0.49420  0.24072  0.82617  1.0000
  H   H1583     1.0  0.49048  0.22368  0.84440  1.0000
  C   C935      1.0  0.24876  0.12487  0.76242  1.0000
  H   H1584     1.0  0.25039  0.98723  0.94031  1.0000
  H   H1585     1.0  0.49691  0.21057  0.73276  1.0000
  H   H1586     1.0  0.24789  0.00106  0.53269  1.0000
  H   H1587     1.0  0.44592  0.61365  0.23328  1.0000
  H   H1588     1.0  0.43554  0.63661  0.19916  1.0000
  H   H1589     1.0  0.44615  0.64011  0.27375  1.0000
  Fe  Fe121     1.0  0.27962  0.62812  0.98351  1.0000
  H   H1590     1.0  0.49389  0.62413  0.26613  1.0000
  H   H1591     1.0  0.45810  0.62868  0.17715  1.0000
  H   H1592     1.0  0.35056  0.61056  0.35335  1.0000
  C   C936      1.0  0.32779  0.64367  0.99490  1.0000
  H   H1593     1.0  0.48079  0.62481  0.17779  1.0000
  C   C937      1.0  0.47001  0.63435  0.17222  1.0000
  C   C938      1.0  0.46097  0.63378  0.22733  1.0000
  C   C939      1.0  0.33642  0.63448  0.33946  1.0000
  H   H1594     1.0  0.34977  0.63672  0.33268  1.0000
  C   C940      1.0  0.44557  0.62711  0.23332  1.0000
  H   H1595     1.0  0.41770  0.63253  0.24343  1.0000
  C   C941      1.0  0.46038  0.65126  0.22727  1.0000
  H   H1596     1.0  0.47382  0.63562  0.15787  1.0000
  S   S254      1.0  0.25978  0.61388  0.00278  1.0000
  C   C942      1.0  0.42961  0.63777  0.23910  1.0000
  H   H1597     1.0  0.33905  0.63570  0.98814  1.0000
  H   H1598     1.0  0.32726  0.61398  0.36085  1.0000
  H   H1599     1.0  0.46708  0.63772  0.26039  1.0000
  S   S255      1.0  0.48042  0.61982  0.21962  1.0000
  H   H1600     1.0  0.34003  0.62633  0.36681  1.0000
  H   H1601     1.0  0.33212  0.62835  0.33071  1.0000
  C   C943      1.0  0.42855  0.64787  0.19078  1.0000
  C   C944      1.0  0.46033  0.63852  0.27386  1.0000
  H   H1602     1.0  0.30220  0.63793  0.34670  1.0000
  C   C945      1.0  0.31077  0.64139  0.99572  1.0000
  H   H1603     1.0  0.26303  0.63411  0.45151  1.0000
  H   H1604     1.0  0.30780  0.63974  0.36606  1.0000
  S   S256      1.0  0.30777  0.62643  0.98479  1.0000
  H   H1605     1.0  0.35730  0.64745  0.35448  1.0000
  C   C946      1.0  0.33861  0.62067  0.35619  1.0000
  H   H1606     1.0  0.46451  0.62597  0.28254  1.0000
  C   C947      1.0  0.25241  0.64340  0.44631  1.0000
  S   S257      1.0  0.27739  0.65195  0.41709  1.0000
  H   H1607     1.0  0.49138  0.63792  0.29224  1.0000
  H   H1608     1.0  0.42825  0.64423  0.17859  1.0000
  C   C948      1.0  0.49539  0.64516  0.27876  1.0000
  C   C949      1.0  0.30653  0.64685  0.35262  1.0000
  H   H1609     1.0  0.28317  0.64963  0.00565  1.0000
  H   H1610     1.0  0.46833  0.64898  0.19163  1.0000
  H   H1611     1.0  0.41453  0.65072  0.19741  1.0000
  H   H1612     1.0  0.46065  0.64992  0.29471  1.0000
  C   C950      1.0  0.29630  0.65151  0.00471  1.0000
  N   N68       1.0  0.32387  0.65130  0.34216  1.0000
  C   C951      1.0  0.46809  0.65189  0.17753  1.0000
  Fe  Fe122     1.0  0.28649  0.55829  0.71180  1.0000
  H   H1613     1.0  0.26663  0.49701  0.77177  1.0000
  S   S258      1.0  0.31330  0.55007  0.71851  1.0000
  H   H1614     1.0  0.25264  0.49790  0.75738  1.0000
  H   H1615     1.0  0.33904  0.48276  0.84441  1.0000
  S   S259      1.0  0.27565  0.54534  0.69630  1.0000
  H   H1616     1.0  0.30313  0.62153  0.64572  1.0000
  H   H1617     1.0  0.36148  0.51380  0.78598  1.0000
  Fe  Fe123     1.0  0.28285  0.39273  0.70053  1.0000
  S   S260      1.0  0.27379  0.38446  0.72930  1.0000
  S   S261      1.0  0.29530  0.37215  0.68450  1.0000
  Fe  Fe124     1.0  0.27347  0.43130  0.70156  1.0000
  S   S262      1.0  0.26406  0.42633  0.73029  1.0000
  S   S263      1.0  0.27583  0.45857  0.68795  1.0000
  Fe  Fe125     1.0  0.28759  0.40470  0.73100  1.0000
  S   S264      1.0  0.30553  0.40078  0.74938  1.0000
  H   H1618     1.0  0.34158  0.50233  0.84909  1.0000
  S   S265      1.0  0.29836  0.41147  0.70253  1.0000
  H   H1619     1.0  0.27463  0.49662  0.69784  1.0000
  H   H1620     1.0  0.26503  0.52115  0.85080  1.0000
  C   C952      1.0  0.28051  0.64730  0.67956  1.0000
  S   S266      1.0  0.27539  0.62000  0.96054  1.0000
  Fe  Fe126     1.0  0.29283  0.46079  0.80516  1.0000
  S   S267      1.0  0.31074  0.47520  0.78381  1.0000
  S   S268      1.0  0.26977  0.45371  0.79947  1.0000
  Fe  Fe127     1.0  0.31434  0.45735  0.83192  1.0000
  S   S269      1.0  0.33460  0.47104  0.81281  1.0000
  S   S270      1.0  0.31767  0.44597  0.85941  1.0000
  Fe  Fe128     1.0  0.31121  0.48963  0.80389  1.0000
  S   S271      1.0  0.31024  0.51839  0.79846  1.0000
  Fe  Fe129     1.0  0.33246  0.45522  0.79449  1.0000
  S   S272      1.0  0.35456  0.44325  0.77491  1.0000
  S   S273      1.0  0.29106  0.47723  0.82431  1.0000
  S   S274      1.0  0.31446  0.43970  0.81450  1.0000
  H   H1621     1.0  0.27690  0.55652  0.76707  1.0000
  H   H1622     1.0  0.29768  0.39443  0.64448  1.0000
  C   C953      1.0  0.24735  0.54035  0.77686  1.0000
  H   H1623     1.0  0.34194  0.47034  0.74660  1.0000
  C   C954      1.0  0.33747  0.33363  0.69363  1.0000
  H   H1624     1.0  0.30227  0.52831  0.89480  1.0000
  Fe  Fe130     1.0  0.43437  0.36953  0.79285  1.0000
  S   S275      1.0  0.42278  0.34691  0.79319  1.0000
  S   S276      1.0  0.41717  0.39070  0.80664  1.0000
  Fe  Fe131     1.0  0.47055  0.35357  0.77405  1.0000
  H   H1625     1.0  0.33656  0.48399  0.86646  1.0000
  Fe  Fe132     1.0  0.43770  0.34842  0.76573  1.0000
  C   C955      1.0  0.37102  0.50463  0.73018  1.0000
  C   C956      1.0  0.29628  0.33315  0.73381  1.0000
  H   H1626     1.0  0.33663  0.50612  0.75338  1.0000
  S   S277      1.0  0.44739  0.37244  0.76464  1.0000
  S   S278      1.0  0.45848  0.35283  0.80239  1.0000
  C   C957      1.0  0.27716  0.33788  0.73090  1.0000
  H   H1627     1.0  0.28367  0.51784  0.89871  1.0000
  H   H1628     1.0  0.30779  0.48718  0.85889  1.0000
  C   C958      1.0  0.28432  0.57663  0.77451  1.0000
  H   H1629     1.0  0.26862  0.39746  0.64292  1.0000
  H   H1630     1.0  0.27203  0.45622  0.64378  1.0000
  H   H1631     1.0  0.30491  0.44653  0.65150  1.0000
  C   C959      1.0  0.35886  0.52142  0.72279  1.0000
  H   H1632     1.0  0.25195  0.45553  0.83671  1.0000
  C   C960      1.0  0.37178  0.42843  0.78381  1.0000
  C   C961      1.0  0.37192  0.42574  0.80151  1.0000
  C   C962      1.0  0.38590  0.41410  0.80834  1.0000
  C   C963      1.0  0.39963  0.40480  0.79762  1.0000
  C   C964      1.0  0.39937  0.40730  0.77994  1.0000
  C   C965      1.0  0.38557  0.41926  0.77301  1.0000
  H   H1633     1.0  0.36135  0.43272  0.80995  1.0000
  H   H1634     1.0  0.38606  0.41223  0.82202  1.0000
  H   H1635     1.0  0.41001  0.40030  0.77157  1.0000
  H   H1636     1.0  0.38565  0.42142  0.75927  1.0000
  C   C966      1.0  0.30183  0.45468  0.87592  1.0000
  C   C967      1.0  0.28578  0.46502  0.87260  1.0000
  C   C968      1.0  0.27419  0.47356  0.88535  1.0000
  C   C969      1.0  0.27852  0.47166  0.90152  1.0000
  C   C970      1.0  0.29415  0.46054  0.90516  1.0000
  C   C971      1.0  0.30581  0.45210  0.89236  1.0000
  H   H1637     1.0  0.28247  0.46672  0.86012  1.0000
  H   H1638     1.0  0.26214  0.48187  0.88248  1.0000
  H   H1639     1.0  0.29753  0.45891  0.91769  1.0000
  H   H1640     1.0  0.31816  0.44398  0.89505  1.0000
  C   C972      1.0  0.30333  0.40175  0.63173  1.0000
  H   H1641     1.0  0.25862  0.45269  0.74969  1.0000
  H   H1642     1.0  0.31965  0.52906  0.83007  1.0000
  H   H1643     1.0  0.25724  0.55003  0.96335  1.0000
  H   H1644     1.0  0.45146  0.33089  0.83628  1.0000
  H   H1645     1.0  0.28021  0.44259  0.84161  1.0000
  C   C973      1.0  0.36086  0.50327  0.77967  1.0000
  H   H1646     1.0  0.37237  0.46335  0.73884  1.0000
  N   N69       1.0  0.28147  0.42955  0.64021  1.0000
  C   C974      1.0  0.29531  0.41461  0.76405  1.0000
  C   C975      1.0  0.30547  0.42364  0.76890  1.0000
  C   C976      1.0  0.29746  0.43560  0.77969  1.0000
  C   C977      1.0  0.27930  0.43842  0.78605  1.0000
  C   C978      1.0  0.26903  0.42938  0.78124  1.0000
  C   C979      1.0  0.27706  0.41749  0.77016  1.0000
  H   H1647     1.0  0.31947  0.42183  0.76392  1.0000
  H   H1648     1.0  0.30550  0.44274  0.78282  1.0000
  Fe  Fe133     1.0  0.26359  0.57284  0.68494  1.0000
  H   H1649     1.0  0.26915  0.41037  0.76656  1.0000
  H   H1650     1.0  0.30535  0.33484  0.72100  1.0000
  H   H1651     1.0  0.32992  0.55606  0.74340  1.0000
  C   C980      1.0  0.33536  0.35521  0.71049  1.0000
  C   C981      1.0  0.32041  0.36502  0.70422  1.0000
  C   C982      1.0  0.31420  0.35959  0.69215  1.0000
  H   H1652     1.0  0.30567  0.63204  0.68506  1.0000
  H   H1653     1.0  0.46205  0.32783  0.86345  1.0000
  H   H1654     1.0  0.34022  0.35978  0.71954  1.0000
  H   H1655     1.0  0.31376  0.37680  0.70880  1.0000
  H   H1656     1.0  0.31784  0.44699  0.72836  1.0000
  H   H1657     1.0  0.29838  0.54229  0.83737  1.0000
  H   H1658     1.0  0.31262  0.50329  0.84038  1.0000
  H   H1659     1.0  0.39109  0.45471  0.74856  1.0000
  H   H1660     1.0  0.30415  0.39382  0.62203  1.0000
  H   H1661     1.0  0.28483  0.64632  0.66562  1.0000
  C   C983      1.0  0.28544  0.51648  0.86575  1.0000
  C   C984      1.0  0.26082  0.46910  0.67434  1.0000
  H   H1662     1.0  0.26945  0.43773  0.87270  1.0000
  H   H1663     1.0  0.26829  0.34489  0.74100  1.0000
  H   H1664     1.0  0.35855  0.53253  0.72867  1.0000
  C   C985      1.0  0.29020  0.62080  0.64446  1.0000
  H   H1665     1.0  0.31845  0.32455  0.76841  1.0000
  C   C986      1.0  0.29814  0.51568  0.89726  1.0000
  S   S279      1.0  0.25868  0.41331  0.69671  1.0000
  C   C987      1.0  0.36538  0.50935  0.75972  1.0000
  H   H1666     1.0  0.38433  0.50761  0.72823  1.0000
  H   H1667     1.0  0.30478  0.49168  0.88791  1.0000
  S   S280      1.0  0.36249  0.32772  0.71379  1.0000
  C   C988      1.0  0.26730  0.60419  0.64961  1.0000
  H   H1668     1.0  0.28983  0.32651  0.76795  1.0000
  H   H1669     1.0  0.27910  0.58701  0.78215  1.0000
  H   H1670     1.0  0.34936  0.48556  0.72747  1.0000
  C   C989      1.0  0.31190  0.54146  0.74080  1.0000
  C   C990      1.0  0.30132  0.52925  0.74938  1.0000
  C   C991      1.0  0.30077  0.52203  0.76714  1.0000
  C   C992      1.0  0.31052  0.52734  0.77637  1.0000
  C   C993      1.0  0.32084  0.53975  0.76783  1.0000
  C   C994      1.0  0.32175  0.54660  0.75002  1.0000
  H   H1671     1.0  0.29381  0.52522  0.74221  1.0000
  H   H1672     1.0  0.29262  0.51258  0.77375  1.0000
  H   H1673     1.0  0.32838  0.54388  0.77493  1.0000
  N   N70       1.0  0.27910  0.47860  0.73441  1.0000
  C   C995      1.0  0.27897  0.48110  0.75229  1.0000
  C   C996      1.0  0.29092  0.46135  0.73182  1.0000
  H   H1674     1.0  0.25496  0.43149  0.78608  1.0000
  C   C997      1.0  0.28546  0.49359  0.72119  1.0000
  H   H1675     1.0  0.31716  0.40211  0.63154  1.0000
  C   C998      1.0  0.26368  0.48457  0.66273  1.0000
  S   S281      1.0  0.46178  0.32979  0.77291  1.0000
  C   C999      1.0  0.28755  0.49274  0.70193  1.0000
  S   S282      1.0  0.26552  0.48401  0.91688  1.0000
  C   C1000     1.0  0.40761  0.32236  0.74186  1.0000
  H   H1676     1.0  0.28927  0.45737  0.72019  1.0000
  H   H1677     1.0  0.28721  0.45073  0.74282  1.0000
  C   C1001     1.0  0.27559  0.43031  0.84815  1.0000
  H   H1678     1.0  0.39867  0.33320  0.73582  1.0000
  H   H1679     1.0  0.29002  0.61901  0.68735  1.0000
  H   H1680     1.0  0.29787  0.49592  0.72324  1.0000
  H   H1681     1.0  0.46361  0.33074  0.68247  1.0000
  C   C1002     1.0  0.44968  0.33271  0.68934  1.0000
  H   H1682     1.0  0.29208  0.41210  0.66217  1.0000
  C   C1003     1.0  0.34385  0.33946  0.70536  1.0000
  Fe  Fe134     1.0  0.44772  0.33040  0.80050  1.0000
  H   H1683     1.0  0.29227  0.48205  0.75332  1.0000
  H   H1684     1.0  0.29766  0.34369  0.73968  1.0000
  H   H1685     1.0  0.26921  0.60476  0.58881  1.0000
  H   H1686     1.0  0.27044  0.50956  0.75022  1.0000
  H   H1687     1.0  0.27185  0.32651  0.73088  1.0000
  H   H1688     1.0  0.29409  0.47975  0.69907  1.0000
  H   H1689     1.0  0.29633  0.50159  0.69368  1.0000
  H   H1690     1.0  0.30110  0.50835  0.91010  1.0000
  H   H1691     1.0  0.25567  0.56832  0.82130  1.0000
  C   C1004     1.0  0.29153  0.63143  0.68976  1.0000
  H   H1692     1.0  0.35977  0.39201  0.79044  1.0000
  H   H1693     1.0  0.27955  0.52984  0.86828  1.0000
  H   H1694     1.0  0.27784  0.56582  0.80850  1.0000
  H   H1695     1.0  0.26064  0.64291  0.71267  1.0000
  H   H1696     1.0  0.25266  0.58894  0.79664  1.0000
  H   H1697     1.0  0.28847  0.63120  0.70391  1.0000
  N   N71       1.0  0.36490  0.49665  0.74899  1.0000
  C   C1005     1.0  0.31072  0.46023  0.73034  1.0000
  H   H1698     1.0  0.31655  0.42840  0.64096  1.0000
  H   H1699     1.0  0.34527  0.51956  0.72425  1.0000
  C   C1006     1.0  0.28401  0.60519  0.65124  1.0000
  Fe  Fe135     1.0  0.25518  0.64451  0.95868  1.0000
  H   H1700     1.0  0.29153  0.58298  0.76189  1.0000
  H   H1701     1.0  0.30559  0.53859  0.86631  1.0000
  S   S283      1.0  0.27663  0.58557  0.69851  1.0000
  H   H1702     1.0  0.27194  0.61871  0.60154  1.0000
  H   H1703     1.0  0.37285  0.49550  0.72141  1.0000
  H   H1704     1.0  0.27863  0.50774  0.87688  1.0000
  H   H1705     1.0  0.31359  0.46194  0.74247  1.0000
  H   H1706     1.0  0.36395  0.52530  0.70862  1.0000
  H   H1707     1.0  0.35597  0.52178  0.75674  1.0000
  H   H1708     1.0  0.37861  0.51284  0.75651  1.0000
  S   S284      1.0  0.42415  0.34662  0.74523  1.0000
  C   C1007     1.0  0.28972  0.42605  0.65592  1.0000
  C   C1008     1.0  0.34136  0.48436  0.74076  1.0000
  H   H1709     1.0  0.25386  0.45644  0.62365  1.0000
  C   C1009     1.0  0.26000  0.55304  0.80092  1.0000
  C   C1010     1.0  0.26414  0.61776  0.59230  1.0000
  H   H1710     1.0  0.44074  0.33846  0.68003  1.0000
  C   C1011     1.0  0.34634  0.49367  0.75286  1.0000
  H   H1711     1.0  0.27294  0.44867  0.60786  1.0000
  C   C1012     1.0  0.26642  0.55950  0.81424  1.0000
  C   C1013     1.0  0.26360  0.42466  0.64591  1.0000
  C   C1014     1.0  0.38349  0.46694  0.74198  1.0000
  H   H1712     1.0  0.26584  0.57722  0.75889  1.0000
  C   C1015     1.0  0.27966  0.63547  0.63615  1.0000
  H   H1713     1.0  0.26938  0.46981  0.61286  1.0000
  H   H1714     1.0  0.25862  0.62281  0.69783  1.0000
  H   H1715     1.0  0.44804  0.34260  0.69734  1.0000
  H   H1716     1.0  0.32238  0.50281  0.88377  1.0000
  H   H1717     1.0  0.28637  0.52074  0.83723  1.0000
  H   H1718     1.0  0.34329  0.48583  0.76619  1.0000
  H   H1719     1.0  0.37033  0.49159  0.78448  1.0000
  H   H1720     1.0  0.34729  0.50085  0.78417  1.0000
  C   C1016     1.0  0.37753  0.47997  0.75436  1.0000
  H   H1721     1.0  0.27993  0.50085  0.84984  1.0000
  H   H1722     1.0  0.26451  0.62608  0.67484  1.0000
  H   H1723     1.0  0.40008  0.32292  0.79285  1.0000
  H   H1724     1.0  0.49346  0.32697  0.86750  1.0000
  H   H1725     1.0  0.27019  0.42592  0.83902  1.0000
  H   H1726     1.0  0.43194  0.31953  0.70980  1.0000
  H   H1727     1.0  0.31221  0.64663  0.93734  1.0000
  C   C1017     1.0  0.30824  0.50479  0.88331  1.0000
  H   H1728     1.0  0.26129  0.41917  0.87296  1.0000
  C   C1018     1.0  0.32278  0.34386  0.68680  1.0000
  H   H1729     1.0  0.49506  0.35829  0.81453  1.0000
  N   N72       1.0  0.35968  0.38319  0.75889  1.0000
  C   C1019     1.0  0.35765  0.40179  0.74894  1.0000
  C   C1020     1.0  0.34544  0.38299  0.77511  1.0000
  C   C1021     1.0  0.35657  0.37236  0.74761  1.0000
  C   C1022     1.0  0.37802  0.37723  0.76266  1.0000
  C   C1023     1.0  0.37049  0.40521  0.73133  1.0000
  C   C1024     1.0  0.34641  0.39409  0.78777  1.0000
  C   C1025     1.0  0.35797  0.35274  0.75509  1.0000
  C   C1026     1.0  0.38094  0.36182  0.77808  1.0000
  H   H1730     1.0  0.34407  0.40669  0.74631  1.0000
  H   H1731     1.0  0.35948  0.41055  0.75672  1.0000
  H   H1732     1.0  0.34498  0.36969  0.78274  1.0000
  H   H1733     1.0  0.33222  0.38764  0.77157  1.0000
  H   H1734     1.0  0.34334  0.37748  0.74412  1.0000
  H   H1735     1.0  0.36627  0.37308  0.73511  1.0000
  H   H1736     1.0  0.38764  0.37365  0.75091  1.0000
  H   H1737     1.0  0.38232  0.38815  0.76546  1.0000
  H   H1738     1.0  0.38443  0.40009  0.73245  1.0000
  H   H1739     1.0  0.36736  0.39997  0.72126  1.0000
  H   H1740     1.0  0.36903  0.41950  0.72653  1.0000
  H   H1741     1.0  0.33744  0.39061  0.80039  1.0000
  C   C1027     1.0  0.26322  0.40527  0.65324  1.0000
  Fe  Fe136     1.0  0.25106  0.40679  0.72581  1.0000
  H   H1742     1.0  0.37151  0.34630  0.75688  1.0000
  H   H1743     1.0  0.35521  0.34661  0.74545  1.0000
  H   H1744     1.0  0.34824  0.34993  0.76726  1.0000
  H   H1745     1.0  0.39330  0.35269  0.77398  1.0000
  H   H1746     1.0  0.37060  0.35400  0.78285  1.0000
  H   H1747     1.0  0.38305  0.36645  0.78912  1.0000
  S   S285      1.0  0.26349  0.55841  0.73396  1.0000
  C   C1028     1.0  0.26814  0.45607  0.61853  1.0000
  H   H1748     1.0  0.49007  0.33416  0.83786  1.0000
  H   H1749     1.0  0.28476  0.41954  0.61688  1.0000
  H   H1750     1.0  0.37184  0.47268  0.76727  1.0000
  H   H1751     1.0  0.27058  0.54814  0.82426  1.0000
  C   C1029     1.0  0.33395  0.49179  0.85368  1.0000
  H   H1752     1.0  0.27598  0.50599  0.72281  1.0000
  H   H1753     1.0  0.31617  0.46961  0.71902  1.0000
  S   S286      1.0  0.25239  0.58053  0.97749  1.0000
  H   H1754     1.0  0.30286  0.42801  0.61795  1.0000
  H   H1755     1.0  0.38985  0.48284  0.75608  1.0000
  C   C1030     1.0  0.31207  0.53754  0.83938  1.0000
  C   C1031     1.0  0.32542  0.32537  0.75468  1.0000
  H   H1756     1.0  0.31366  0.42625  0.66401  1.0000
  H   H1757     1.0  0.29387  0.56619  0.78096  1.0000
  C   C1032     1.0  0.26997  0.56907  0.77099  1.0000
  H   H1758     1.0  0.32658  0.52588  0.85988  1.0000
  C   C1033     1.0  0.31266  0.52856  0.85840  1.0000
  H   H1759     1.0  0.26662  0.62817  0.58072  1.0000
  C   C1034     1.0  0.29283  0.42032  0.62598  1.0000
  C   C1035     1.0  0.31411  0.49867  0.85413  1.0000
  H   H1760     1.0  0.39249  0.47178  0.72990  1.0000
  C   C1036     1.0  0.27908  0.51474  0.84985  1.0000
  H   H1761     1.0  0.27438  0.49040  0.66299  1.0000
  H   H1762     1.0  0.29223  0.59386  0.65754  1.0000
  H   H1763     1.0  0.32764  0.49024  0.73910  1.0000
  H   H1764     1.0  0.32310  0.33903  0.74750  1.0000
  C   C1037     1.0  0.26098  0.47825  0.73239  1.0000
  N   N73       1.0  0.30511  0.51229  0.86503  1.0000
  C   C1038     1.0  0.27875  0.44896  0.63320  1.0000
  C   C1039     1.0  0.26250  0.43248  0.86538  1.0000
  Fe  Fe137     1.0  0.25177  0.54751  0.71772  1.0000
  H   H1765     1.0  0.25520  0.46681  0.85127  1.0000
  C   C1040     1.0  0.25677  0.61886  0.64137  1.0000
  H   H1766     1.0  0.27005  0.39971  0.66429  1.0000
  H   H1767     1.0  0.31820  0.54915  0.83614  1.0000
  H   H1768     1.0  0.29157  0.45322  0.62796  1.0000
  H   H1769     1.0  0.27053  0.54225  0.79646  1.0000
  H   H1770     1.0  0.34181  0.40817  0.78289  1.0000
  H   H1771     1.0  0.28743  0.42043  0.85102  1.0000
  H   H1772     1.0  0.27574  0.46961  0.76232  1.0000
  H   H1773     1.0  0.28054  0.43258  0.66625  1.0000
  C   C1041     1.0  0.26639  0.49737  0.75801  1.0000
  C   C1042     1.0  0.30724  0.43220  0.65265  1.0000
  H   H1774     1.0  0.31796  0.33950  0.67757  1.0000
  H   H1775     1.0  0.25514  0.43214  0.65588  1.0000
  H   H1776     1.0  0.24996  0.42945  0.89966  1.0000
  Fe  Fe138     1.0  0.25249  0.58441  0.71938  1.0000
  H   H1777     1.0  0.26108  0.53695  0.76988  1.0000
  H   H1778     1.0  0.25661  0.42813  0.63489  1.0000
  N   N74       1.0  0.26074  0.64934  0.68508  1.0000
  S   S287      1.0  0.25934  0.58479  0.65779  1.0000
  N   N75       1.0  0.25440  0.56640  0.78557  1.0000
  C   C1043     1.0  0.26294  0.63444  0.63459  1.0000
  C   C1044     1.0  0.42151  0.32530  0.74758  1.0000
  H   H1779     1.0  0.26166  0.47430  0.71994  1.0000
  H   H1780     1.0  0.27671  0.34643  0.71788  1.0000
  H   H1781     1.0  0.24882  0.54684  0.80872  1.0000
  C   C1045     1.0  0.25601  0.63220  0.68571  1.0000
  H   H1782     1.0  0.25468  0.64567  0.62827  1.0000
  H   H1783     1.0  0.24929  0.59817  0.57674  1.0000
  H   H1784     1.0  0.25252  0.49146  0.73122  1.0000
  Fe  Fe139     1.0  0.25387  0.60786  0.97917  1.0000
  C   C1046     1.0  0.25086  0.46603  0.74701  1.0000
  H   H1785     1.0  0.33970  0.32161  0.75479  1.0000
  H   H1786     1.0  0.25586  0.50377  0.64085  1.0000
  H   H1787     1.0  0.24779  0.60163  0.76596  1.0000
  C   C1047     1.0  0.25322  0.49213  0.65020  1.0000
  H   H1788     1.0  0.24931  0.40382  0.65827  1.0000
  H   H1789     1.0  0.34409  0.32150  0.68952  1.0000
  H   H1790     1.0  0.28892  0.65235  0.94146  1.0000
  H   H1791     1.0  0.24711  0.57253  0.59673  1.0000
  H   H1792     1.0  0.49628  0.34542  0.79868  1.0000
  H   H1793     1.0  0.33007  0.65272  0.96006  1.0000
  S   S288      1.0  0.30628  0.68526  0.38533  1.0000
  S   S289      1.0  0.31937  0.71434  0.41078  1.0000
  C   C1048     1.0  0.47221  0.72976  0.34582  1.0000
  C   C1049     1.0  0.49307  0.96174  0.20323  1.0000
  Fe  Fe140     1.0  0.29794  0.84059  0.07285  1.0000
  S   S290      1.0  0.29882  0.83380  0.10136  1.0000
  S   S291      1.0  0.27621  0.86161  0.06296  1.0000
  Fe  Fe141     1.0  0.33031  0.81299  0.06422  1.0000
  S   S292      1.0  0.33334  0.80334  0.09193  1.0000
  S   S293      1.0  0.35143  0.80145  0.04398  1.0000
  Fe  Fe142     1.0  0.30393  0.80614  0.09766  1.0000
  S   S294      1.0  0.28853  0.78660  0.11577  1.0000
  Fe  Fe143     1.0  0.32826  0.83166  0.09305  1.0000
  S   S295      1.0  0.34859  0.84384  0.09870  1.0000
  S   S296      1.0  0.30139  0.81320  0.06975  1.0000
  S   S297      1.0  0.32667  0.84108  0.06477  1.0000
  Fe  Fe144     1.0  0.39727  0.84722  0.17113  1.0000
  S   S298      1.0  0.41879  0.82354  0.17184  1.0000
  S   S299      1.0  0.37077  0.84282  0.16942  1.0000
  Fe  Fe145     1.0  0.42125  0.86906  0.17678  1.0000
  S   S300      1.0  0.44435  0.84699  0.17737  1.0000
  S   S301      1.0  0.42309  0.89524  0.18072  1.0000
  Fe  Fe146     1.0  0.43605  0.84163  0.15505  1.0000
  S   S302      1.0  0.45541  0.83227  0.13256  1.0000
  Fe  Fe147     1.0  0.42467  0.83127  0.19403  1.0000
  S   S303      1.0  0.43160  0.81083  0.21692  1.0000
  S   S304      1.0  0.41431  0.86507  0.15276  1.0000
  S   S305      1.0  0.40182  0.85365  0.19514  1.0000
  Fe  Fe148     1.0  0.39266  0.70785  0.28823  1.0000
  S   S306      1.0  0.40403  0.73150  0.27556  1.0000
  S   S307      1.0  0.37982  0.70633  0.31656  1.0000
  Fe  Fe149     1.0  0.40789  0.69164  0.25623  1.0000
  S   S308      1.0  0.42070  0.71396  0.24082  1.0000
  H   H1794     1.0  0.30369  0.87407  0.07112  1.0000
  Fe  Fe150     1.0  0.42823  0.71317  0.26591  1.0000
  S   S309      1.0  0.45275  0.71971  0.26870  1.0000
  Fe  Fe151     1.0  0.39539  0.73041  0.25181  1.0000
  S   S310      1.0  0.38299  0.75549  0.23650  1.0000
  S   S311      1.0  0.41779  0.68930  0.28051  1.0000
  S   S312      1.0  0.38165  0.70821  0.26515  1.0000
  Fe  Fe152     1.0  0.36888  0.71421  0.00562  1.0000
  H   H1795     1.0  0.28527  0.68708  0.04104  1.0000
  S   S313      1.0  0.39237  0.70635  0.01906  1.0000
  Fe  Fe153     1.0  0.33416  0.73889  0.00164  1.0000
  S   S314      1.0  0.31574  0.76337  0.00764  1.0000
  S   S315      1.0  0.43357  0.73575  0.09787  1.0000
  S   S316      1.0  0.42130  0.77611  0.11908  1.0000
  H   H1796     1.0  0.26614  0.86825  0.46319  1.0000
  Fe  Fe154     1.0  0.41839  0.80003  0.35774  1.0000
  S   S317      1.0  0.41539  0.79585  0.33230  1.0000
  S   S318      1.0  0.39254  0.81211  0.37317  1.0000
  Fe  Fe155     1.0  0.45735  0.78275  0.35166  1.0000
  S   S319      1.0  0.45679  0.77694  0.32629  1.0000
  H   H1797     1.0  0.26972  0.67688  0.05709  1.0000
  Fe  Fe156     1.0  0.44131  0.80415  0.32127  1.0000
  S   S320      1.0  0.44757  0.81938  0.29389  1.0000
  Fe  Fe157     1.0  0.43114  0.76934  0.33996  1.0000
  S   S321      1.0  0.42249  0.74523  0.33951  1.0000
  S   S322      1.0  0.44323  0.81069  0.34607  1.0000
  S   S323      1.0  0.43278  0.77284  0.36597  1.0000
  C   C1050     1.0  0.34482  0.73618  0.08943  1.0000
  H   H1798     1.0  0.37386  0.85300  0.43304  1.0000
  H   H1799     1.0  0.26340  0.78414  0.05227  1.0000
  C   C1051     1.0  0.25551  0.86990  0.03840  1.0000
  C   C1052     1.0  0.38538  0.79300  0.17351  1.0000
  H   H1800     1.0  0.36352  0.81175  0.45961  1.0000
  C   C1053     1.0  0.42896  0.65512  0.23935  1.0000
  H   H1801     1.0  0.35475  0.87675  0.44180  1.0000
  C   C1054     1.0  0.27550  0.78417  0.40308  1.0000
  H   H1802     1.0  0.45648  0.69868  0.33561  1.0000
  H   H1803     1.0  0.40105  0.81367  0.09522  1.0000
  H   H1804     1.0  0.31995  0.74943  0.10321  1.0000
  C   C1055     1.0  0.49553  0.82783  0.20882  1.0000
  S   S324      1.0  0.31212  0.79524  0.44630  1.0000
  S   S325      1.0  0.36145  0.77164  0.44766  1.0000
  H   H1805     1.0  0.43230  0.86346  0.21190  1.0000
  H   H1806     1.0  0.32774  0.76393  0.05542  1.0000
  H   H1807     1.0  0.28619  0.66834  0.34263  1.0000
  S   S326      1.0  0.27646  0.76665  0.45945  1.0000
  H   H1808     1.0  0.43974  0.66357  0.20066  1.0000
  H   H1809     1.0  0.32399  0.67536  0.34931  1.0000
  H   H1810     1.0  0.33672  0.72605  0.09234  1.0000
  C   C1056     1.0  0.32549  0.84444  0.41436  1.0000
  H   H1811     1.0  0.25243  0.82781  0.44393  1.0000
  H   H1812     1.0  0.28305  0.78189  0.39007  1.0000
  H   H1813     1.0  0.48540  0.82485  0.10552  1.0000
  H   H1814     1.0  0.48496  0.95631  0.18105  1.0000
  H   H1815     1.0  0.49577  0.81532  0.17264  1.0000
  C   C1057     1.0  0.38398  0.79954  0.39313  1.0000
  C   C1058     1.0  0.39504  0.78735  0.40323  1.0000
  C   C1059     1.0  0.38793  0.77857  0.41978  1.0000
  C   C1060     1.0  0.36975  0.78195  0.42634  1.0000
  C   C1061     1.0  0.35862  0.79360  0.41592  1.0000
  C   C1062     1.0  0.36574  0.80240  0.39939  1.0000
  H   H1816     1.0  0.40913  0.78512  0.39855  1.0000
  H   H1817     1.0  0.39660  0.76949  0.42772  1.0000
  H   H1818     1.0  0.34459  0.79607  0.42070  1.0000
  H   H1819     1.0  0.35712  0.81157  0.39146  1.0000
  C   C1063     1.0  0.46022  0.83530  0.29062  1.0000
  C   C1064     1.0  0.46875  0.84153  0.27373  1.0000
  N   N76       1.0  0.45240  0.66596  0.17360  1.0000
  C   C1065     1.0  0.48018  0.86132  0.28434  1.0000
  C   C1066     1.0  0.47180  0.85488  0.30128  1.0000
  C   C1067     1.0  0.46187  0.84191  0.30443  1.0000
  C   C1068     1.0  0.42222  0.82126  0.07534  1.0000
  C   C1069     1.0  0.26464  0.80296  0.40119  1.0000
  H   H1820     1.0  0.47293  0.86002  0.31203  1.0000
  H   H1821     1.0  0.45530  0.83727  0.31751  1.0000
  H   H1822     1.0  0.36871  0.75606  0.08855  1.0000
  C   C1070     1.0  0.34349  0.73702  0.05874  1.0000
  C   C1071     1.0  0.40162  0.71987  0.02707  1.0000
  C   C1072     1.0  0.39664  0.73803  0.02349  1.0000
  C   C1073     1.0  0.40401  0.74819  0.03059  1.0000
  C   C1074     1.0  0.41390  0.71204  0.03791  1.0000
  H   H1823     1.0  0.38721  0.74424  0.01520  1.0000
  H   H1824     1.0  0.40018  0.76222  0.02763  1.0000
  C   C1075     1.0  0.44638  0.72591  0.28889  1.0000
  C   C1076     1.0  0.43639  0.71609  0.30272  1.0000
  C   C1077     1.0  0.42935  0.72195  0.31836  1.0000
  C   C1078     1.0  0.43211  0.73775  0.32014  1.0000
  C   C1079     1.0  0.44210  0.74760  0.30633  1.0000
  C   C1080     1.0  0.44942  0.74159  0.29074  1.0000
  H   H1825     1.0  0.43376  0.70411  0.30126  1.0000
  H   H1826     1.0  0.42136  0.71443  0.32890  1.0000
  H   H1827     1.0  0.44376  0.76010  0.30738  1.0000
  H   H1828     1.0  0.45675  0.74942  0.27989  1.0000
  H   H1829     1.0  0.49306  0.77481  0.19561  1.0000
  H   H1830     1.0  0.28610  0.92812  0.10614  1.0000
  C   C1081     1.0  0.27125  0.81102  0.42588  1.0000
  S   S327      1.0  0.29819  0.70797  0.33878  1.0000
  S   S328      1.0  0.27618  0.69805  0.41723  1.0000
  Fe  Fe158     1.0  0.33598  0.70015  0.00826  1.0000
  H   H1831     1.0  0.46514  0.71642  0.37326  1.0000
  H   H1832     1.0  0.47941  0.79150  0.17275  1.0000
  H   H1833     1.0  0.44371  0.67545  0.23326  1.0000
  C   C1082     1.0  0.41848  0.79522  0.22153  1.0000
  C   C1083     1.0  0.40212  0.79960  0.21665  1.0000
  C   C1084     1.0  0.39133  0.78726  0.22108  1.0000
  C   C1085     1.0  0.39698  0.77049  0.23022  1.0000
  C   C1086     1.0  0.41358  0.76598  0.23464  1.0000
  C   C1087     1.0  0.42428  0.77837  0.23037  1.0000
  H   H1834     1.0  0.39756  0.81262  0.20980  1.0000
  H   H1835     1.0  0.37850  0.79081  0.21763  1.0000
  H   H1836     1.0  0.41811  0.75302  0.24156  1.0000
  H   H1837     1.0  0.43699  0.77491  0.23407  1.0000
  C   C1088     1.0  0.44598  0.81802  0.12637  1.0000
  C   C1089     1.0  0.45665  0.80374  0.11964  1.0000
  C   C1090     1.0  0.44901  0.79123  0.11663  1.0000
  C   C1091     1.0  0.43073  0.79287  0.12057  1.0000
  C   C1092     1.0  0.42003  0.80759  0.12648  1.0000
  C   C1093     1.0  0.42767  0.82018  0.12934  1.0000
  H   H1838     1.0  0.47080  0.80186  0.11746  1.0000
  H   H1839     1.0  0.45733  0.78006  0.11182  1.0000
  H   H1840     1.0  0.40585  0.80915  0.12919  1.0000
  H   H1841     1.0  0.41935  0.83143  0.13415  1.0000
  C   C1094     1.0  0.44125  0.90076  0.18549  1.0000
  C   C1095     1.0  0.43999  0.91824  0.18581  1.0000
  C   C1096     1.0  0.45329  0.92358  0.19038  1.0000
  C   C1097     1.0  0.46799  0.91153  0.19511  1.0000
  C   C1098     1.0  0.46943  0.89389  0.19492  1.0000
  C   C1099     1.0  0.45614  0.88853  0.18989  1.0000
  H   H1842     1.0  0.42860  0.92777  0.18244  1.0000
  H   H1843     1.0  0.45208  0.93721  0.19034  1.0000
  H   H1844     1.0  0.48090  0.88450  0.19826  1.0000
  H   H1845     1.0  0.45735  0.87501  0.18954  1.0000
  C   C1100     1.0  0.36555  0.84181  0.14965  1.0000
  C   C1101     1.0  0.37595  0.84725  0.13349  1.0000
  C   C1102     1.0  0.37074  0.84740  0.11804  1.0000
  C   C1103     1.0  0.35527  0.84183  0.11856  1.0000
  C   C1104     1.0  0.34520  0.83577  0.13470  1.0000
  C   C1105     1.0  0.35025  0.83593  0.15017  1.0000
  H   H1846     1.0  0.38774  0.85181  0.13290  1.0000
  H   H1847     1.0  0.37863  0.85211  0.10562  1.0000
  H   H1848     1.0  0.33329  0.83142  0.13530  1.0000
  H   H1849     1.0  0.34215  0.83167  0.16262  1.0000
  C   C1106     1.0  0.34226  0.79284  0.03129  1.0000
  C   C1107     1.0  0.35228  0.77895  0.02352  1.0000
  C   C1108     1.0  0.34424  0.77002  0.01591  1.0000
  C   C1109     1.0  0.32634  0.77543  0.01547  1.0000
  C   C1110     1.0  0.31664  0.79013  0.02204  1.0000
  C   C1111     1.0  0.32457  0.79876  0.03008  1.0000
  H   H1850     1.0  0.36611  0.77470  0.02395  1.0000
  H   H1851     1.0  0.35186  0.75874  0.01077  1.0000
  H   H1852     1.0  0.30293  0.79460  0.02129  1.0000
  H   H1853     1.0  0.31701  0.81000  0.03531  1.0000
  C   C1112     1.0  0.26673  0.78443  0.02511  1.0000
  C   C1113     1.0  0.27923  0.76531  0.07939  1.0000
  C   C1114     1.0  0.28696  0.77343  0.08813  1.0000
  C   C1115     1.0  0.27881  0.77628  0.10484  1.0000
  H   H1854     1.0  0.42510  0.78995  0.16099  1.0000
  S   S329      1.0  0.36317  0.69528  0.99227  1.0000
  H   H1855     1.0  0.28569  0.76316  0.06645  1.0000
  H   H1856     1.0  0.29933  0.77734  0.08197  1.0000
  H   H1857     1.0  0.37660  0.77102  0.06951  1.0000
  C   C1116     1.0  0.32041  0.70980  0.33215  1.0000
  C   C1117     1.0  0.33019  0.70941  0.34442  1.0000
  C   C1118     1.0  0.34838  0.70871  0.33940  1.0000
  C   C1119     1.0  0.35684  0.70864  0.32205  1.0000
  C   C1120     1.0  0.34695  0.70984  0.30962  1.0000
  C   C1121     1.0  0.32874  0.71038  0.31468  1.0000
  H   H1858     1.0  0.32382  0.70932  0.35786  1.0000
  H   H1859     1.0  0.35595  0.70791  0.34905  1.0000
  H   H1860     1.0  0.35335  0.70993  0.29619  1.0000
  H   H1861     1.0  0.32121  0.71080  0.30512  1.0000
  C   C1122     1.0  0.30737  0.72866  0.42449  1.0000
  C   C1123     1.0  0.28922  0.73444  0.42552  1.0000
  C   C1124     1.0  0.27964  0.74585  0.43656  1.0000
  C   C1125     1.0  0.28831  0.75197  0.44611  1.0000
  C   C1126     1.0  0.30651  0.74657  0.44472  1.0000
  C   C1127     1.0  0.31599  0.73464  0.43421  1.0000
  H   H1862     1.0  0.28252  0.73037  0.41766  1.0000
  H   H1863     1.0  0.26560  0.75019  0.43736  1.0000
  Fe  Fe159     1.0  0.30435  0.81270  0.46568  1.0000
  H   H1864     1.0  0.33000  0.73018  0.43349  1.0000
  C   C1128     1.0  0.25589  0.65372  0.42963  1.0000
  H   H1865     1.0  0.36873  0.75548  0.05049  1.0000
  N   N77       1.0  0.35470  0.73811  0.07079  1.0000
  C   C1129     1.0  0.47651  0.79817  0.21413  1.0000
  H   H1866     1.0  0.42134  0.68028  0.15920  1.0000
  C   C1130     1.0  0.48301  0.71819  0.31901  1.0000
  H   H1867     1.0  0.28378  0.67001  0.46293  1.0000
  C   C1131     1.0  0.27111  0.85990  0.04347  1.0000
  C   C1132     1.0  0.28246  0.84880  0.03289  1.0000
  C   C1133     1.0  0.27831  0.84783  0.01729  1.0000
  H   H1868     1.0  0.29247  0.86297  0.12426  1.0000
  H   H1869     1.0  0.26224  0.71336  0.03393  1.0000
  H   H1870     1.0  0.29458  0.84113  0.03658  1.0000
  C   C1134     1.0  0.36685  0.70486  0.07311  1.0000
  C   C1135     1.0  0.39261  0.75446  0.19011  1.0000
  C   C1136     1.0  0.39997  0.73634  0.20017  1.0000
  H   H1871     1.0  0.41147  0.77628  0.19195  1.0000
  H   H1872     1.0  0.42630  0.75657  0.18955  1.0000
  H   H1873     1.0  0.38068  0.75350  0.18598  1.0000
  H   H1874     1.0  0.38738  0.76307  0.19978  1.0000
  H   H1875     1.0  0.40386  0.72630  0.19203  1.0000
  H   H1876     1.0  0.41112  0.73660  0.20586  1.0000
  H   H1877     1.0  0.38949  0.73216  0.21121  1.0000
  C   C1137     1.0  0.49479  0.67546  0.13206  1.0000
  H   H1878     1.0  0.25399  0.82244  0.07604  1.0000
  H   H1879     1.0  0.41594  0.83521  0.07469  1.0000
  H   H1880     1.0  0.46939  0.71872  0.31777  1.0000
  H   H1881     1.0  0.33324  0.87809  0.45504  1.0000
  H   H1882     1.0  0.39347  0.77575  0.09106  1.0000
  H   H1883     1.0  0.37926  0.69529  0.07467  1.0000
  H   H1884     1.0  0.38722  0.74880  0.07207  1.0000
  N   N78       1.0  0.36198  0.75095  0.38401  1.0000
  C   C1138     1.0  0.34676  0.76632  0.38326  1.0000
  C   C1139     1.0  0.37826  0.75800  0.38218  1.0000
  C   C1140     1.0  0.35834  0.73914  0.40159  1.0000
  C   C1141     1.0  0.36303  0.74176  0.36952  1.0000
  C   C1142     1.0  0.32824  0.76197  0.38739  1.0000
  C   C1143     1.0  0.38342  0.77046  0.36489  1.0000
  C   C1144     1.0  0.37424  0.72655  0.40826  1.0000
  C   C1145     1.0  0.37928  0.72730  0.36575  1.0000
  H   H1885     1.0  0.34662  0.77462  0.39247  1.0000
  H   H1886     1.0  0.34807  0.77486  0.37012  1.0000
  H   H1887     1.0  0.39001  0.74755  0.38362  1.0000
  H   H1888     1.0  0.37666  0.76497  0.39292  1.0000
  H   H1889     1.0  0.35198  0.74697  0.41190  1.0000
  H   H1890     1.0  0.34883  0.73110  0.40177  1.0000
  H   H1891     1.0  0.35152  0.73541  0.37222  1.0000
  H   H1892     1.0  0.36176  0.75114  0.35705  1.0000
  H   H1893     1.0  0.31836  0.77428  0.38576  1.0000
  H   H1894     1.0  0.32677  0.75417  0.37852  1.0000
  H   H1895     1.0  0.32472  0.75518  0.40104  1.0000
  H   H1896     1.0  0.37385  0.78299  0.36355  1.0000
  H   H1897     1.0  0.39613  0.77373  0.36469  1.0000
  H   H1898     1.0  0.38539  0.76432  0.35356  1.0000
  H   H1899     1.0  0.38236  0.73366  0.41222  1.0000
  H   H1900     1.0  0.38256  0.71872  0.39873  1.0000
  H   H1901     1.0  0.36933  0.71731  0.42009  1.0000
  H   H1902     1.0  0.37696  0.71446  0.37369  1.0000
  H   H1903     1.0  0.39164  0.72975  0.36750  1.0000
  H   H1904     1.0  0.38183  0.72648  0.35179  1.0000
  C   C1146     1.0  0.29109  0.66242  0.35488  1.0000
  C   C1147     1.0  0.24953  0.72865  0.47488  1.0000
  C   C1148     1.0  0.47164  0.68255  0.24698  1.0000
  N   N79       1.0  0.38824  0.78217  0.29231  1.0000
  C   C1149     1.0  0.38362  0.77865  0.27668  1.0000
  C   C1150     1.0  0.39733  0.76518  0.30189  1.0000
  C   C1151     1.0  0.40039  0.79495  0.28695  1.0000
  C   C1152     1.0  0.37158  0.78982  0.30364  1.0000
  C   C1153     1.0  0.37622  0.79478  0.26387  1.0000
  C   C1154     1.0  0.38537  0.75225  0.31233  1.0000
  C   C1155     1.0  0.41777  0.78977  0.27431  1.0000
  C   C1156     1.0  0.37367  0.79353  0.32078  1.0000
  H   H1905     1.0  0.39521  0.77113  0.26901  1.0000
  H   H1906     1.0  0.37367  0.77019  0.28080  1.0000
  H   H1907     1.0  0.40461  0.76737  0.31096  1.0000
  H   H1908     1.0  0.40774  0.75815  0.29271  1.0000
  H   H1909     1.0  0.39367  0.80803  0.28096  1.0000
  H   H1910     1.0  0.40415  0.79700  0.29855  1.0000
  H   H1911     1.0  0.36531  0.80256  0.29662  1.0000
  H   H1912     1.0  0.36136  0.78174  0.30659  1.0000
  H   H1913     1.0  0.38633  0.80264  0.25682  1.0000
  H   H1914     1.0  0.37200  0.79029  0.25394  1.0000
  H   H1915     1.0  0.36437  0.80310  0.27009  1.0000
  H   H1916     1.0  0.37652  0.75691  0.32385  1.0000
  H   H1917     1.0  0.37753  0.74935  0.30425  1.0000
  H   H1918     1.0  0.39369  0.73970  0.31731  1.0000
  H   H1919     1.0  0.42576  0.79993  0.27169  1.0000
  H   H1920     1.0  0.41546  0.78898  0.26163  1.0000
  H   H1921     1.0  0.42580  0.77733  0.27985  1.0000
  H   H1922     1.0  0.37567  0.80705  0.31889  1.0000
  H   H1923     1.0  0.38474  0.78457  0.32614  1.0000
  H   H1924     1.0  0.36170  0.79175  0.33093  1.0000
  N   N80       1.0  0.29869  0.88918  0.09117  1.0000
  C   C1157     1.0  0.30575  0.88670  0.07261  1.0000
  C   C1158     1.0  0.28023  0.88571  0.09623  1.0000
  C   C1159     1.0  0.31032  0.87608  0.10247  1.0000
  C   C1160     1.0  0.29929  0.90751  0.09174  1.0000
  S   S330      1.0  0.25810  0.85610  0.99251  1.0000
  H   H1925     1.0  0.33214  0.67293  0.29837  1.0000
  S   S331      1.0  0.26418  0.69533  0.38232  1.0000
  C   C1161     1.0  0.29078  0.91378  0.10898  1.0000
  H   H1926     1.0  0.43204  0.67823  0.13741  1.0000
  H   H1927     1.0  0.29852  0.89683  0.06343  1.0000
  H   H1928     1.0  0.27444  0.88585  0.11013  1.0000
  H   H1929     1.0  0.28037  0.87229  0.09483  1.0000
  H   H1930     1.0  0.31446  0.86358  0.09781  1.0000
  H   H1931     1.0  0.32274  0.88047  0.10147  1.0000
  H   H1932     1.0  0.29468  0.67254  0.35959  1.0000
  H   H1933     1.0  0.29364  0.91714  0.08110  1.0000
  H   H1934     1.0  0.33411  0.87640  0.07281  1.0000
  H   H1935     1.0  0.34930  0.85887  0.45930  1.0000
  C   C1162     1.0  0.30250  0.87105  0.12203  1.0000
  H   H1936     1.0  0.48696  0.79792  0.23704  1.0000
  C   C1163     1.0  0.48581  0.83817  0.07939  1.0000
  C   C1164     1.0  0.34448  0.86905  0.44874  1.0000
  H   H1937     1.0  0.25611  0.77802  0.02499  1.0000
  H   H1938     1.0  0.27372  0.80087  0.03810  1.0000
  C   C1165     1.0  0.25384  0.84138  0.40043  1.0000
  N   N81       1.0  0.48431  0.71504  0.33785  1.0000
  H   H1939     1.0  0.27894  0.90854  0.11614  1.0000
  H   H1940     1.0  0.46109  0.66725  0.14590  1.0000
  H   H1941     1.0  0.35693  0.70210  0.08514  1.0000
  H   H1942     1.0  0.49161  0.83781  0.19758  1.0000
  H   H1943     1.0  0.49066  0.86626  0.09454  1.0000
  C   C1166     1.0  0.29494  0.68614  0.06953  1.0000
  H   H1944     1.0  0.30519  0.68466  0.05762  1.0000
  H   H1945     1.0  0.29234  0.71441  0.03070  1.0000
  H   H1946     1.0  0.25076  0.70500  0.07683  1.0000
  H   H1947     1.0  0.46148  0.73955  0.36974  1.0000
  H   H1948     1.0  0.39443  0.79902  0.17744  1.0000
  H   H1949     1.0  0.33593  0.82842  0.44555  1.0000
  C   C1167     1.0  0.32053  0.66213  0.32477  1.0000
  H   H1950     1.0  0.26753  0.67226  0.45050  1.0000
  H   H1951     1.0  0.47688  0.82464  0.18646  1.0000
  H   H1952     1.0  0.28220  0.81547  0.41554  1.0000
  Fe  Fe160     1.0  0.29565  0.77832  0.46645  1.0000
  C   C1168     1.0  0.47064  0.72790  0.36555  1.0000
  C   C1169     1.0  0.46302  0.65391  0.28032  1.0000
  H   H1953     1.0  0.25428  0.80349  0.39398  1.0000
  H   H1954     1.0  0.30758  0.71256  0.04453  1.0000
  H   H1955     1.0  0.45796  0.68348  0.35553  1.0000
  C   C1170     1.0  0.29434  0.71888  0.04182  1.0000
  C   C1171     1.0  0.29405  0.66754  0.07995  1.0000
  H   H1956     1.0  0.24729  0.65693  0.06013  1.0000
  H   H1957     1.0  0.27859  0.77402  0.02651  1.0000
  H   H1958     1.0  0.47597  0.67567  0.19024  1.0000
  H   H1959     1.0  0.47343  0.68411  0.23266  1.0000
  S   S332      1.0  0.28473  0.72654  0.38139  1.0000
  H   H1960     1.0  0.34860  0.82990  0.46774  1.0000
  H   H1961     1.0  0.47742  0.74662  0.31042  1.0000
  H   H1962     1.0  0.37136  0.78151  0.10254  1.0000
  H   H1963     1.0  0.43157  0.81818  0.08431  1.0000
  H   H1964     1.0  0.30047  0.91071  0.11759  1.0000
  H   H1965     1.0  0.46128  0.89681  0.25289  1.0000
  H   H1966     1.0  0.28754  0.67140  0.01998  1.0000
  H   H1967     1.0  0.43219  0.79765  0.04769  1.0000
  C   C1172     1.0  0.40849  0.80955  0.08280  1.0000
  H   H1968     1.0  0.35426  0.73136  0.09844  1.0000
  H   H1969     1.0  0.25790  0.83883  0.38701  1.0000
  H   H1970     1.0  0.46764  0.68478  0.28002  1.0000
  H   H1971     1.0  0.32861  0.89974  0.06504  1.0000
  H   H1972     1.0  0.48498  0.85913  0.25756  1.0000
  C   C1173     1.0  0.43165  0.77799  0.16880  1.0000
  C   C1174     1.0  0.49566  0.82915  0.09439  1.0000
  H   H1973     1.0  0.32026  0.71811  0.47414  1.0000
  S   S333      1.0  0.31787  0.76287  0.47944  1.0000
  H   H1974     1.0  0.49031  0.77663  0.23181  1.0000
  H   H1975     1.0  0.30751  0.66054  0.08164  1.0000
  H   H1976     1.0  0.31575  0.85533  0.41939  1.0000
  H   H1977     1.0  0.46712  0.68621  0.16083  1.0000
  H   H1978     1.0  0.35297  0.83585  0.40565  1.0000
  H   H1979     1.0  0.49297  0.66254  0.30388  1.0000
  H   H1980     1.0  0.31316  0.90918  0.08891  1.0000
  H   H1981     1.0  0.27714  0.79792  0.43260  1.0000
  S   S334      1.0  0.47119  0.73188  0.06996  1.0000
  C   C1175     1.0  0.47932  0.69779  0.34693  1.0000
  C   C1176     1.0  0.25489  0.76293  0.10389  1.0000
  C   C1177     1.0  0.26250  0.79421  0.04024  1.0000
  C   C1178     1.0  0.26682  0.89835  0.08588  1.0000
  C   C1179     1.0  0.26275  0.85787  0.01218  1.0000
  C   C1180     1.0  0.39521  0.77773  0.16433  1.0000
  H   H1982     1.0  0.36888  0.86347  0.41262  1.0000
  H   H1983     1.0  0.34344  0.65808  0.00203  1.0000
  C   C1181     1.0  0.34982  0.82991  0.44029  1.0000
  H   H1984     1.0  0.28452  0.77292  0.98540  1.0000
  C   C1182     1.0  0.26553  0.70217  0.09634  1.0000
  C   C1183     1.0  0.45689  0.68331  0.17255  1.0000
  C   C1184     1.0  0.37054  0.72339  0.06955  1.0000
  C   C1185     1.0  0.36154  0.75480  0.06422  1.0000
  C   C1186     1.0  0.37418  0.75758  0.07441  1.0000
  H   H1985     1.0  0.37904  0.72541  0.05643  1.0000
  H   H1986     1.0  0.37895  0.72306  0.07876  1.0000
  H   H1987     1.0  0.35087  0.76643  0.06366  1.0000
  Fe  Fe161     1.0  0.44082  0.75892  0.10258  1.0000
  H   H1988     1.0  0.38840  0.78878  0.10757  1.0000
  H   H1989     1.0  0.33956  0.72418  0.06207  1.0000
  H   H1990     1.0  0.25655  0.69370  0.03296  1.0000
  Fe  Fe162     1.0  0.29987  0.70692  0.39983  1.0000
  C   C1187     1.0  0.38304  0.83687  0.41397  1.0000
  H   H1991     1.0  0.38360  0.82375  0.42242  1.0000
  H   H1992     1.0  0.29410  0.73309  0.03772  1.0000
  H   H1993     1.0  0.28726  0.83933  0.00911  1.0000
  C   C1188     1.0  0.41626  0.74034  0.04145  1.0000
  C   C1189     1.0  0.41837  0.76802  0.18224  1.0000
  Fe  Fe163     1.0  0.28932  0.70427  0.36784  1.0000
  C   C1190     1.0  0.38380  0.78629  0.09672  1.0000
  N   N82       1.0  0.48046  0.65958  0.27354  1.0000
  H   H1994     1.0  0.35115  0.73827  0.04509  1.0000
  H   H1995     1.0  0.26402  0.72438  0.47267  1.0000
  H   H1996     1.0  0.48835  0.87527  0.12123  1.0000
  H   H1997     1.0  0.32909  0.76369  0.08469  1.0000
  H   H1998     1.0  0.37847  0.80337  0.16427  1.0000
  C   C1191     1.0  0.26299  0.69639  0.08042  1.0000
  C   C1192     1.0  0.33259  0.75274  0.09524  1.0000
  H   H1999     1.0  0.45357  0.68444  0.20023  1.0000
  H   H2000     1.0  0.46709  0.69830  0.18530  1.0000
  H   H2001     1.0  0.43743  0.69347  0.14666  1.0000
  S   S335      1.0  0.32711  0.80036  0.47905  1.0000
  C   C1193     1.0  0.43650  0.66408  0.18797  1.0000
  C   C1194     1.0  0.48048  0.96515  0.19049  1.0000
  H   H2002     1.0  0.36284  0.70249  0.06182  1.0000
  H   H2003     1.0  0.33836  0.75746  0.10393  1.0000
  H   H2004     1.0  0.31976  0.74870  0.04843  1.0000
  H   H2005     1.0  0.43008  0.81920  0.06247  1.0000
  S   S336      1.0  0.36126  0.73749  0.98503  1.0000
  H   H2006     1.0  0.36994  0.83192  0.45428  1.0000
  H   H2007     1.0  0.48752  0.68726  0.34010  1.0000
  H   H2008     1.0  0.41587  0.79610  0.08655  1.0000
  H   H2009     1.0  0.31668  0.74778  0.07116  1.0000
  N   N83       1.0  0.40540  0.76246  0.17505  1.0000
  H   H2010     1.0  0.41775  0.81699  0.03868  1.0000
  H   H2011     1.0  0.27356  0.81135  0.39221  1.0000
  C   C1195     1.0  0.27570  0.86749  0.47090  1.0000
  H   H2012     1.0  0.25227  0.75169  0.38037  1.0000
  H   H2013     1.0  0.25655  0.77286  0.12581  1.0000
  H   H2014     1.0  0.26733  0.72414  0.05542  1.0000
  Fe  Fe164     1.0  0.28081  0.67824  0.40105  1.0000
  S   S337      1.0  0.48222  0.77318  0.36235  1.0000
  H   H2015     1.0  0.38247  0.82273  0.03992  1.0000
  H   H2016     1.0  0.40313  0.90580  0.21543  1.0000
  C   C1196     1.0  0.32603  0.75028  0.05863  1.0000
  C   C1197     1.0  0.26388  0.69392  0.46382  1.0000
  H   H2017     1.0  0.42460  0.73892  0.17031  1.0000
  H   H2018     1.0  0.39363  0.89469  0.23621  1.0000
  H   H2019     1.0  0.41929  0.79718  0.03261  1.0000
  H   H2020     1.0  0.44532  0.69410  0.17111  1.0000
  C   C1198     1.0  0.48510  0.69221  0.12704  1.0000
  H   H2021     1.0  0.38121  0.83638  0.40096  1.0000
  H   H2022     1.0  0.40142  0.75036  0.14313  1.0000
  C   C1199     1.0  0.27357  0.68971  0.05131  1.0000
  H   H2023     1.0  0.40058  0.83440  0.05448  1.0000
  H   H2024     1.0  0.38305  0.83642  0.07237  1.0000
  H   H2025     1.0  0.46047  0.80241  0.18613  1.0000
  H   H2026     1.0  0.46919  0.66472  0.30930  1.0000
  C   C1200     1.0  0.40560  0.89409  0.22578  1.0000
  C   C1201     1.0  0.35839  0.82600  0.45631  1.0000
  C   C1202     1.0  0.45461  0.89353  0.24392  1.0000
  N   N84       1.0  0.39598  0.80974  0.07146  1.0000
  C   C1203     1.0  0.38962  0.82813  0.06251  1.0000
  H   H2027     1.0  0.37174  0.81316  0.09068  1.0000
  C   C1204     1.0  0.38008  0.80322  0.08316  1.0000
  C   C1205     1.0  0.41542  0.74966  0.16361  1.0000
  H   H2028     1.0  0.37333  0.84411  0.04426  1.0000
  S   S338      1.0  0.49252  0.87767  0.28091  1.0000
  H   H2029     1.0  0.42025  0.85302  0.23213  1.0000
  H   H2030     1.0  0.40728  0.88270  0.21988  1.0000
  H   H2031     1.0  0.31212  0.67508  0.32627  1.0000
  C   C1206     1.0  0.26307  0.76029  0.08709  1.0000
  H   H2032     1.0  0.32546  0.85778  0.44310  1.0000
  C   C1207     1.0  0.42190  0.89453  0.23248  1.0000
  H   H2033     1.0  0.46775  0.83626  0.26303  1.0000
  H   H2034     1.0  0.45142  0.87132  0.22463  1.0000
  C   C1208     1.0  0.40421  0.79762  0.05885  1.0000
  C   C1209     1.0  0.37671  0.83018  0.05049  1.0000
  H   H2035     1.0  0.40980  0.78455  0.06582  1.0000
  S   S339      1.0  0.42494  0.75381  0.05014  1.0000
  H   H2036     1.0  0.39618  0.84017  0.41190  1.0000
  H   H2037     1.0  0.37152  0.80088  0.07536  1.0000
  C   C1210     1.0  0.42110  0.72220  0.04517  1.0000
  H   H2038     1.0  0.25625  0.82820  0.04460  1.0000
  S   S340      1.0  0.48420  0.91973  0.20037  1.0000
  H   H2039     1.0  0.43220  0.89781  0.22089  1.0000
  C   C1211     1.0  0.25880  0.70098  0.04194  1.0000
  C   C1212     1.0  0.43325  0.85591  0.22521  1.0000
  C   C1213     1.0  0.41923  0.80286  0.04383  1.0000
  C   C1214     1.0  0.34461  0.84670  0.41183  1.0000
  S   S341      1.0  0.44913  0.77038  0.07457  1.0000
  C   C1215     1.0  0.46372  0.68523  0.18812  1.0000
  S   S342      1.0  0.34220  0.71719  0.02301  1.0000
  H   H2040     1.0  0.39419  0.79487  0.05301  1.0000
  H   H2041     1.0  0.36422  0.82630  0.05788  1.0000
  H   H2042     1.0  0.39158  0.73972  0.16428  1.0000
  H   H2043     1.0  0.41782  0.69802  0.04077  1.0000
  H   H2044     1.0  0.44175  0.84295  0.22406  1.0000
  H   H2045     1.0  0.47987  0.85226  0.11189  1.0000
  H   H2046     1.0  0.45758  0.68252  0.25268  1.0000
  H   H2047     1.0  0.41149  0.72883  0.15310  1.0000
  C   C1216     1.0  0.48629  0.70574  0.13436  1.0000
  C   C1217     1.0  0.45997  0.69670  0.34848  1.0000
  C   C1218     1.0  0.44143  0.86520  0.23481  1.0000
  H   H2048     1.0  0.41796  0.90610  0.23876  1.0000
  H   H2049     1.0  0.26219  0.66614  0.47388  1.0000
  C   C1219     1.0  0.48479  0.81197  0.18354  1.0000
  H   H2050     1.0  0.26682  0.80375  0.06797  1.0000
  H   H2051     1.0  0.49090  0.68157  0.27469  1.0000
  H   H2052     1.0  0.47843  0.71848  0.13122  1.0000
  H   H2053     1.0  0.44601  0.87271  0.26362  1.0000
  C   C1220     1.0  0.44437  0.66188  0.23356  1.0000
  C   C1221     1.0  0.40422  0.74186  0.15560  1.0000
  H   H2054     1.0  0.49495  0.83909  0.06656  1.0000
  C   C1222     1.0  0.29125  0.85492  0.46965  1.0000
  H   H2055     1.0  0.40529  0.86791  0.25127  1.0000
  H   H2056     1.0  0.46486  0.88522  0.23591  1.0000
  N   N85       1.0  0.42919  0.87849  0.24473  1.0000
  H   H2057     1.0  0.44956  0.85509  0.24321  1.0000
  H   H2058     1.0  0.49253  0.94850  0.21139  1.0000
  C   C1223     1.0  0.26657  0.82341  0.43895  1.0000
  Fe  Fe165     1.0  0.33367  0.78161  0.46084  1.0000
  H   H2059     1.0  0.32323  0.83187  0.42294  1.0000
  H   H2060     1.0  0.43090  0.89281  0.26352  1.0000
  H   H2061     1.0  0.42844  0.84400  0.26471  1.0000
  H   H2062     1.0  0.29690  0.88234  0.12840  1.0000
  C   C1224     1.0  0.41440  0.87121  0.25771  1.0000
  C   C1225     1.0  0.43969  0.88406  0.25485  1.0000
  H   H2063     1.0  0.44967  0.90596  0.23550  1.0000
  H   H2064     1.0  0.40605  0.88126  0.26514  1.0000
  H   H2065     1.0  0.43054  0.71599  0.05345  1.0000
  H   H2066     1.0  0.42438  0.75594  0.15235  1.0000
  Fe  Fe166     1.0  0.44324  0.74639  0.06961  1.0000
  S   S343      1.0  0.46807  0.74564  0.10635  1.0000
  H   H2067     1.0  0.25378  0.78381  0.43236  1.0000
  H   H2068     1.0  0.46901  0.78706  0.24155  1.0000
  C   C1226     1.0  0.41998  0.85471  0.27105  1.0000
  H   H2069     1.0  0.40806  0.84985  0.27896  1.0000
  H   H2070     1.0  0.28313  0.72079  0.06835  1.0000
  H   H2071     1.0  0.47675  0.74220  0.33974  1.0000
  H   H2072     1.0  0.26679  0.77449  0.40777  1.0000
  H   H2073     1.0  0.45057  0.70606  0.35600  1.0000
  H   H2074     1.0  0.27929  0.69908  0.09807  1.0000
  H   H2075     1.0  0.48059  0.65638  0.17083  1.0000
  H   H2076     1.0  0.32283  0.84436  0.40155  1.0000
  H   H2077     1.0  0.26527  0.84310  0.40476  1.0000
  H   H2078     1.0  0.25942  0.68331  0.08478  1.0000
  H   H2079     1.0  0.47902  0.68321  0.30524  1.0000
  H   H2080     1.0  0.43967  0.78218  0.17584  1.0000
  C   C1227     1.0  0.27994  0.71563  0.05820  1.0000
  C   C1228     1.0  0.33029  0.65637  0.00267  1.0000
  S   S344      1.0  0.29539  0.84096  0.45502  1.0000
  Fe  Fe167     1.0  0.46188  0.72327  0.09882  1.0000
  H   H2081     1.0  0.45877  0.73198  0.34315  1.0000
  H   H2082     1.0  0.25272  0.82402  0.01807  1.0000
  H   H2083     1.0  0.35651  0.66387  0.33495  1.0000
  S   S345      1.0  0.40845  0.66815  0.24589  1.0000
  H   H2084     1.0  0.31335  0.75147  0.45178  1.0000
  H   H2085     1.0  0.28576  0.66756  0.09314  1.0000
  H   H2086     1.0  0.26949  0.70147  0.45108  1.0000
  H   H2087     1.0  0.28504  0.78162  0.41170  1.0000
  H   H2088     1.0  0.31317  0.86285  0.12873  1.0000
  C   C1229     1.0  0.43400  0.68042  0.14977  1.0000
  C   C1230     1.0  0.44898  0.66599  0.15607  1.0000
  H   H2089     1.0  0.47791  0.85119  0.08110  1.0000
  H   H2090     1.0  0.42578  0.67581  0.18680  1.0000
  H   H2091     1.0  0.47515  0.69413  0.24927  1.0000
  C   C1231     1.0  0.25335  0.81174  0.06998  1.0000
  S   S346      1.0  0.32533  0.72223  0.98849  1.0000
  H   H2092     1.0  0.48694  0.97098  0.21220  1.0000
  C   C1232     1.0  0.29882  0.66383  0.01288  1.0000
  H   H2093     1.0  0.42662  0.85737  0.28034  1.0000
  H   H2094     1.0  0.44093  0.76977  0.16000  1.0000
  S   S347      1.0  0.47071  0.69559  0.11265  1.0000
  H   H2095     1.0  0.35269  0.66992  0.35541  1.0000
  C   C1233     1.0  0.48126  0.78942  0.23204  1.0000
  H   H2096     1.0  0.49113  0.70721  0.31279  1.0000
  N   N86       1.0  0.25661  0.80973  0.41783  1.0000
  S   S348      1.0  0.31863  0.68119  0.02297  1.0000
  H   H2097     1.0  0.33441  0.87324  0.42568  1.0000
  H   H2098     1.0  0.48208  0.69401  0.36033  1.0000
  C   C1234     1.0  0.33030  0.66138  0.35196  1.0000
  H   H2099     1.0  0.34622  0.65411  0.30760  1.0000
  H   H2100     1.0  0.35551  0.81892  0.43334  1.0000
  C   C1235     1.0  0.26287  0.77077  0.11283  1.0000
  H   H2101     1.0  0.40387  0.78303  0.15226  1.0000
  C   C1236     1.0  0.47862  0.85450  0.27060  1.0000
  H   H2102     1.0  0.47652  0.83009  0.07910  1.0000
  C   C1237     1.0  0.36889  0.85094  0.42223  1.0000
  H   H2103     1.0  0.27104  0.69615  0.47291  1.0000
  N   N87       1.0  0.27789  0.69700  0.06486  1.0000
  H   H2104     1.0  0.31578  0.84456  0.47838  1.0000
  C   C1238     1.0  0.33806  0.86181  0.43600  1.0000
  Fe  Fe168     1.0  0.47595  0.75502  0.07775  1.0000
  C   C1239     1.0  0.32547  0.88703  0.06545  1.0000
  H   H2105     1.0  0.32888  0.88493  0.05185  1.0000
  S   S349      1.0  0.25367  0.75119  0.07483  1.0000
  H   H2106     1.0  0.38518  0.77359  0.15971  1.0000
  N   N88       1.0  0.35054  0.84721  0.42801  1.0000
  C   C1240     1.0  0.31580  0.66638  0.01179  1.0000
  H   H2107     1.0  0.34611  0.85879  0.40184  1.0000
  H   H2108     1.0  0.37523  0.78910  0.18496  1.0000
  C   C1241     1.0  0.49304  0.85544  0.10576  1.0000
  H   H2109     1.0  0.25810  0.69515  0.10840  1.0000
  C   C1242     1.0  0.26951  0.67443  0.46285  1.0000
  H   H2110     1.0  0.27004  0.89733  0.07199  1.0000
  C   C1243     1.0  0.48791  0.73527  0.30765  1.0000
  H   H2111     1.0  0.49287  0.81458  0.29497  1.0000
  H   H2112     1.0  0.46727  0.81072  0.21556  1.0000
  H   H2113     1.0  0.27992  0.65787  0.36474  1.0000
  H   H2114     1.0  0.31304  0.65576  0.31907  1.0000
  C   C1244     1.0  0.48390  0.66573  0.25406  1.0000
  H   H2115     1.0  0.46859  0.78988  0.21155  1.0000
  H   H2116     1.0  0.48419  0.82725  0.21987  1.0000
  C   C1245     1.0  0.47280  0.80410  0.17658  1.0000
  H   H2117     1.0  0.46898  0.81317  0.16477  1.0000
  C   C1246     1.0  0.48027  0.67075  0.30114  1.0000
  C   C1247     1.0  0.35032  0.66044  0.34878  1.0000
  H   H2118     1.0  0.34320  0.67498  0.31385  1.0000
  H   H2119     1.0  0.30062  0.69271  0.07677  1.0000
  H   H2120     1.0  0.47216  0.65658  0.22221  1.0000
  C   C1248     1.0  0.47981  0.67482  0.28155  1.0000
  H   H2121     1.0  0.26543  0.91201  0.08706  1.0000
  H   H2122     1.0  0.32620  0.65706  0.36628  1.0000
  H   H2123     1.0  0.45185  0.66492  0.27808  1.0000
  Fe  Fe169     1.0  0.26120  0.71583  0.39773  1.0000
  H   H2124     1.0  0.49299  0.78675  0.28005  1.0000
  C   C1249     1.0  0.25128  0.86882  0.02285  1.0000
  H   H2125     1.0  0.26061  0.71638  0.09551  1.0000
  C   C1250     1.0  0.30366  0.85412  0.47948  1.0000
  H   H2126     1.0  0.48351  0.65563  0.24721  1.0000
  H   H2127     1.0  0.27003  0.79322  0.01238  1.0000
  H   H2128     1.0  0.27245  0.81674  0.45052  1.0000
  H   H2129     1.0  0.27260  0.83505  0.43321  1.0000
  H   H2130     1.0  0.49395  0.66490  0.12648  1.0000
  H   H2131     1.0  0.49181  0.82734  0.13448  1.0000
  N   N89       1.0  0.49178  0.80088  0.19923  1.0000
  H   H2132     1.0  0.48930  0.73487  0.29373  1.0000
  H   H2133     1.0  0.49215  0.76980  0.32572  1.0000
  H   H2134     1.0  0.46746  0.96255  0.19807  1.0000
  H   H2135     1.0  0.48340  0.72756  0.36881  1.0000
  C   C1251     1.0  0.33669  0.66598  0.31063  1.0000
  H   H2136     1.0  0.28925  0.66000  0.07298  1.0000
  H   H2137     1.0  0.47830  0.97888  0.18348  1.0000
  H   H2138     1.0  0.25372  0.89477  0.09124  1.0000
  H   H2139     1.0  0.28651  0.98362  0.47618  1.0000
  H   H2140     1.0  0.44598  0.65349  0.15556  1.0000
  C   C1252     1.0  0.27338  0.94082  0.52077  1.0000
  H   H2141     1.0  0.26306  0.93911  0.62161  1.0000
  C   C1253     1.0  0.29679  0.70018  0.96496  1.0000
  H   H2142     1.0  0.27656  0.88213  0.85765  1.0000
  H   H2143     1.0  0.29813  0.66142  0.96328  1.0000
  C   C1254     1.0  0.30059  0.66943  0.94990  1.0000
  S   S350      1.0  0.28967  0.90784  0.77549  1.0000
  C   C1255     1.0  0.29431  0.96839  0.78850  1.0000
  H   H2144     1.0  0.35129  0.76874  0.93604  1.0000
  S   S351      1.0  0.27697  0.88061  0.75900  1.0000
  H   H2145     1.0  0.24817  0.98024  0.89640  1.0000
  Fe  Fe170     1.0  0.27609  0.88510  0.78562  1.0000
  H   H2146     1.0  0.27660  0.80418  0.52009  1.0000
  Fe  Fe171     1.0  0.28853  0.90481  0.74918  1.0000
  S   S352      1.0  0.31243  0.90682  0.72790  1.0000
  H   H2147     1.0  0.28517  0.69399  0.97061  1.0000
  H   H2148     1.0  0.26675  0.83716  0.56516  1.0000
  Fe  Fe172     1.0  0.28120  0.75662  0.89456  1.0000
  S   S353      1.0  0.26377  0.75760  0.92055  1.0000
  S   S354      1.0  0.30537  0.73527  0.89330  1.0000
  S   S355      1.0  0.28301  0.98270  0.65821  1.0000
  S   S356      1.0  0.25725  0.95005  0.78336  1.0000
  H   H2149     1.0  0.25227  0.68374  0.86484  1.0000
  C   C1256     1.0  0.26429  0.83716  0.51248  1.0000
  H   H2150     1.0  0.32219  0.92691  0.69095  1.0000
  H   H2151     1.0  0.30274  0.75517  0.98099  1.0000
  H   H2152     1.0  0.27791  0.89590  0.82959  1.0000
  S   S357      1.0  0.28057  0.78537  0.88655  1.0000
  S   S358      1.0  0.25929  0.75805  0.88112  1.0000
  H   H2153     1.0  0.27965  0.80158  0.54154  1.0000
  H   H2154     1.0  0.27641  0.86485  0.84838  1.0000
  S   S359      1.0  0.35850  0.72005  0.94440  1.0000
  S   S360      1.0  0.28056  0.89264  0.50636  1.0000
  H   H2155     1.0  0.32038  0.78960  0.90819  1.0000
  S   S361      1.0  0.30559  0.77436  0.52529  1.0000
  H   H2156     1.0  0.27967  0.68549  0.86285  1.0000
  H   H2157     1.0  0.36194  0.69767  0.52925  1.0000
  S   S362      1.0  0.35745  0.96228  0.72519  1.0000
  C   C1257     1.0  0.30102  0.65788  0.93723  1.0000
  H   H2158     1.0  0.31356  0.82969  0.51788  1.0000
  H   H2159     1.0  0.26158  0.93442  0.67855  1.0000
  H   H2160     1.0  0.29762  0.70753  0.97458  1.0000
  H   H2161     1.0  0.30543  0.69830  0.92809  1.0000
  S   S363      1.0  0.24827  0.80405  0.85152  1.0000
  H   H2162     1.0  0.34566  0.78919  0.94347  1.0000
  H   H2163     1.0  0.30972  0.92475  0.66392  1.0000
  H   H2164     1.0  0.28311  0.67248  0.88302  1.0000
  C   C1258     1.0  0.28333  0.83631  0.83288  1.0000
  H   H2165     1.0  0.30722  0.68541  0.88313  1.0000
  H   H2166     1.0  0.32790  0.75782  0.95328  1.0000
  C   C1259     1.0  0.31954  0.73326  0.90764  1.0000
  C   C1260     1.0  0.31324  0.73597  0.92480  1.0000
  C   C1261     1.0  0.32493  0.73204  0.93643  1.0000
  C   C1262     1.0  0.34299  0.72599  0.93071  1.0000
  C   C1263     1.0  0.34915  0.72382  0.91347  1.0000
  C   C1264     1.0  0.33751  0.72717  0.90212  1.0000
  H   H2167     1.0  0.29933  0.74035  0.92929  1.0000
  H   H2168     1.0  0.31994  0.73323  0.94985  1.0000
  H   H2169     1.0  0.36303  0.71910  0.90894  1.0000
  H   H2170     1.0  0.34249  0.72495  0.88898  1.0000
  H   H2171     1.0  0.34433  0.91606  0.76162  1.0000
  C   C1265     1.0  0.27627  0.84816  0.81925  1.0000
  C   C1266     1.0  0.26891  0.87209  0.85883  1.0000
  C   C1267     1.0  0.27488  0.82273  0.84286  1.0000
  H   H2172     1.0  0.28180  0.75581  0.97667  1.0000
  N   N90       1.0  0.32549  0.94939  0.78549  1.0000
  H   H2173     1.0  0.36839  0.67723  0.52259  1.0000
  H   H2174     1.0  0.28195  0.97052  0.78377  1.0000
  H   H2175     1.0  0.30834  0.70386  0.49057  1.0000
  H   H2176     1.0  0.25337  0.68634  0.68135  1.0000
  C   C1268     1.0  0.26029  0.70842  0.91456  1.0000
  C   C1269     1.0  0.34950  0.66875  0.94867  1.0000
  H   H2177     1.0  0.26233  0.91262  0.84008  1.0000
  C   C1270     1.0  0.32783  0.77013  0.95707  1.0000
  C   C1271     1.0  0.30051  0.86599  0.49049  1.0000
  C   C1272     1.0  0.27046  0.80855  0.53260  1.0000
  Fe  Fe173     1.0  0.25158  0.89929  0.51697  1.0000
  H   H2178     1.0  0.28565  0.91347  0.70805  1.0000
  C   C1273     1.0  0.32432  0.92247  0.72785  1.0000
  C   C1274     1.0  0.31589  0.93856  0.73245  1.0000
  C   C1275     1.0  0.32577  0.95126  0.73097  1.0000
  C   C1276     1.0  0.34413  0.94764  0.72558  1.0000
  C   C1277     1.0  0.35242  0.93151  0.72116  1.0000
  C   C1278     1.0  0.34255  0.91913  0.72199  1.0000
  H   H2179     1.0  0.30174  0.94136  0.73669  1.0000
  H   H2180     1.0  0.31918  0.96376  0.73404  1.0000
  H   H2181     1.0  0.36657  0.92859  0.71698  1.0000
  H   H2182     1.0  0.34912  0.90681  0.71827  1.0000
  C   C1279     1.0  0.27673  0.72903  0.54548  1.0000
  C   C1280     1.0  0.28193  0.73597  0.55718  1.0000
  C   C1281     1.0  0.29022  0.75039  0.55106  1.0000
  C   C1282     1.0  0.29306  0.75800  0.53331  1.0000
  C   C1283     1.0  0.28686  0.75170  0.52185  1.0000
  C   C1284     1.0  0.27898  0.73710  0.52786  1.0000
  H   H2183     1.0  0.28020  0.72987  0.57080  1.0000
  H   H2184     1.0  0.29490  0.75529  0.56001  1.0000
  H   H2185     1.0  0.28864  0.75770  0.50821  1.0000
  H   H2186     1.0  0.27512  0.73177  0.51869  1.0000
  H   H2187     1.0  0.26576  0.70972  0.85004  1.0000
  H   H2188     1.0  0.30408  0.78955  0.97950  1.0000
  N   N91       1.0  0.25043  0.87982  0.85596  1.0000
  H   H2189     1.0  0.35533  0.76973  0.95620  1.0000
  H   H2190     1.0  0.31131  0.96223  0.76480  1.0000
  C   C1285     1.0  0.25781  0.92711  0.62800  1.0000
  H   H2191     1.0  0.28606  0.70227  0.89963  1.0000
  H   H2192     1.0  0.27468  0.83274  0.50171  1.0000
  C   C1286     1.0  0.26415  0.90330  0.83155  1.0000
  N   N92       1.0  0.28748  0.93274  0.68385  1.0000
  H   H2193     1.0  0.35188  0.68046  0.93860  1.0000
  H   H2194     1.0  0.29600  0.93038  0.63945  1.0000
  S   S364      1.0  0.26863  0.70961  0.55208  1.0000
  H   H2195     1.0  0.33199  0.79901  0.96896  1.0000
  H   H2196     1.0  0.25653  0.72222  0.90826  1.0000
  H   H2197     1.0  0.31970  0.94798  0.69560  1.0000
  C   C1287     1.0  0.25120  0.94814  0.57325  1.0000
  N   N93       1.0  0.26861  0.82799  0.53004  1.0000
  C   C1288     1.0  0.33902  0.73106  0.52187  1.0000
  H   H2198     1.0  0.30708  0.92249  0.79894  1.0000
  H   H2199     1.0  0.25674  0.78702  0.53936  1.0000
  H   H2200     1.0  0.26482  0.81530  0.56535  1.0000
  H   H2201     1.0  0.26452  0.94127  0.57392  1.0000
  H   H2202     1.0  0.31797  0.94909  0.81309  1.0000
  H   H2203     1.0  0.33231  0.74224  0.51319  1.0000
  H   H2204     1.0  0.33293  0.97390  0.77120  1.0000
  C   C1289     1.0  0.27356  0.69759  0.90193  1.0000
  H   H2205     1.0  0.30987  0.68228  0.86151  1.0000
  C   C1290     1.0  0.31848  0.69045  0.93041  1.0000
  H   H2206     1.0  0.26911  0.91605  0.62667  1.0000
  Fe  Fe174     1.0  0.30910  0.78282  0.49622  1.0000
  C   C1291     1.0  0.29534  0.94318  0.69205  1.0000
  H   H2207     1.0  0.32356  0.81499  0.95111  1.0000
  C   C1292     1.0  0.25715  0.94048  0.70365  1.0000
  Fe  Fe175     1.0  0.26756  0.67575  0.61519  1.0000
  S   S365      1.0  0.27032  0.70348  0.60325  1.0000
  H   H2208     1.0  0.30094  0.82429  0.50539  1.0000
  H   H2209     1.0  0.35268  0.95280  0.80058  1.0000
  H   H2210     1.0  0.26198  0.94752  0.71109  1.0000
  H   H2211     1.0  0.34902  0.67133  0.96167  1.0000
  C   C1293     1.0  0.30243  0.82337  0.51880  1.0000
  C   C1294     1.0  0.25082  0.89107  0.83797  1.0000
  C   C1295     1.0  0.34578  0.69385  0.51250  1.0000
  S   S366      1.0  0.26094  0.67095  0.59170  1.0000
  H   H2212     1.0  0.30169  0.70372  0.86608  1.0000
  H   H2213     1.0  0.31412  0.67685  0.97463  1.0000
  C   C1296     1.0  0.35677  0.68711  0.52690  1.0000
  C   C1297     1.0  0.25681  0.83430  0.93538  1.0000
  H   H2214     1.0  0.31345  0.69138  0.55259  1.0000
  C   C1298     1.0  0.25845  0.82923  0.56269  1.0000
  H   H2215     1.0  0.28492  0.65896  0.68059  1.0000
  H   H2216     1.0  0.26496  0.82954  0.94509  1.0000
  H   H2217     1.0  0.29909  0.76415  0.94912  1.0000
  C   C1299     1.0  0.33394  0.92189  0.77166  1.0000
  H   H2218     1.0  0.27603  0.68388  0.90917  1.0000
  Fe  Fe176     1.0  0.25096  0.89949  0.76015  1.0000
  C   C1300     1.0  0.25356  0.80099  0.54020  1.0000
  H   H2219     1.0  0.35228  0.72603  0.51469  1.0000
  H   H2220     1.0  0.29529  0.83775  0.83584  1.0000
  C   C1301     1.0  0.25559  0.82337  0.92500  1.0000
  H   H2221     1.0  0.28034  0.89038  0.69986  1.0000
  N   N94       1.0  0.26845  0.69849  0.88488  1.0000
  H   H2222     1.0  0.26652  0.95455  0.67804  1.0000
  H   H2223     1.0  0.32338  0.80078  0.93126  1.0000
  H   H2224     1.0  0.26600  0.84741  0.87748  1.0000
  Fe  Fe177     1.0  0.25656  0.78709  0.87604  1.0000
  Fe  Fe178     1.0  0.26084  0.69938  0.58093  1.0000
  H   H2225     1.0  0.26227  0.91114  0.81856  1.0000
  H   H2226     1.0  0.27664  0.72321  0.87710  1.0000
  C   C1302     1.0  0.28270  0.90110  0.68848  1.0000
  H   H2227     1.0  0.33203  0.69754  0.48367  1.0000
  H   H2228     1.0  0.30058  0.70389  0.52488  1.0000
  C   C1303     1.0  0.28256  0.68605  0.87536  1.0000
  H   H2229     1.0  0.32745  0.67036  0.91341  1.0000
  H   H2230     1.0  0.28893  0.82797  0.54370  1.0000
  C   C1304     1.0  0.28591  0.83213  0.53045  1.0000
  H   H2231     1.0  0.25926  0.67732  0.49854  1.0000
  H   H2232     1.0  0.33201  0.70915  0.54134  1.0000
  H   H2233     1.0  0.28528  0.84649  0.52700  1.0000
  H   H2234     1.0  0.29388  0.80537  0.96356  1.0000
  C   C1305     1.0  0.25944  0.82074  0.83910  1.0000
  H   H2235     1.0  0.29794  0.98128  0.78585  1.0000
  H   H2236     1.0  0.34950  0.68079  0.53936  1.0000
  C   C1306     1.0  0.33882  0.93840  0.77376  1.0000
  H   H2237     1.0  0.26136  0.90239  0.87027  1.0000
  H   H2238     1.0  0.35445  0.70051  0.50112  1.0000
  Fe  Fe179     1.0  0.35289  0.71899  0.97338  1.0000
  H   H2239     1.0  0.32313  0.69250  0.90246  1.0000
  H   H2240     1.0  0.32482  0.69334  0.96051  1.0000
  H   H2241     1.0  0.31149  0.72735  0.50306  1.0000
  C   C1307     1.0  0.33263  0.96539  0.78438  1.0000
  H   H2242     1.0  0.32609  0.69974  0.93144  1.0000
  C   C1308     1.0  0.30964  0.92719  0.80960  1.0000
  H   H2243     1.0  0.30243  0.94483  0.77863  1.0000
  H   H2244     1.0  0.24786  0.77311  0.95529  1.0000
  H   H2245     1.0  0.27364  0.92744  0.51931  1.0000
  C   C1309     1.0  0.26087  0.84615  0.81542  1.0000
  H   H2246     1.0  0.32397  0.97353  0.79366  1.0000
  C   C1310     1.0  0.29673  0.93388  0.66501  1.0000
  H   H2247     1.0  0.34060  0.73629  0.53276  1.0000
  H   H2248     1.0  0.30642  0.80946  0.52467  1.0000
  S   S367      1.0  0.26269  0.92322  0.74790  1.0000
  C   C1311     1.0  0.31389  0.68643  0.96215  1.0000
  C   C1312     1.0  0.32844  0.68365  0.91366  1.0000
  C   C1313     1.0  0.29042  0.91422  0.69379  1.0000
  N   N95       1.0  0.31654  0.67726  0.94723  1.0000
  H   H2249     1.0  0.28856  0.67974  0.94889  1.0000
  C   C1314     1.0  0.26818  0.94075  0.68509  1.0000
  H   H2250     1.0  0.29478  0.70973  0.95284  1.0000
  H   H2251     1.0  0.32069  0.94627  0.67398  1.0000
  H   H2252     1.0  0.25534  0.85520  0.80494  1.0000
  C   C1315     1.0  0.31374  0.69511  0.52437  1.0000
  H   H2253     1.0  0.28220  0.91837  0.65646  1.0000
  C   C1316     1.0  0.32284  0.93967  0.80414  1.0000
  H   H2254     1.0  0.26648  0.70831  0.92547  1.0000
  H   H2255     1.0  0.24934  0.69094  0.65982  1.0000
  C   C1317     1.0  0.25129  0.69235  0.88912  1.0000
  S   S368      1.0  0.28702  0.65529  0.62873  1.0000
  H   H2256     1.0  0.31413  0.72366  0.53364  1.0000
  H   H2257     1.0  0.29197  0.89542  0.67770  1.0000
  H   H2258     1.0  0.35144  0.93372  0.77843  1.0000
  H   H2259     1.0  0.33362  0.91187  0.78381  1.0000
  H   H2260     1.0  0.31013  0.86547  0.49803  1.0000
  H   H2261     1.0  0.32152  0.92456  0.76695  1.0000
  C   C1318     1.0  0.25678  0.95310  0.51506  1.0000
  C   C1319     1.0  0.26651  0.71706  0.87501  1.0000
  H   H2262     1.0  0.34250  0.68463  0.91093  1.0000
  C   C1320     1.0  0.27049  0.85962  0.87644  1.0000
  C   C1321     1.0  0.32366  0.71743  0.50018  1.0000
  C   C1322     1.0  0.35124  0.96216  0.78822  1.0000
  Fe  Fe180     1.0  0.26138  0.78637  0.91174  1.0000
  H   H2263     1.0  0.29692  0.93326  0.81702  1.0000
  C   C1323     1.0  0.33263  0.66296  0.94828  1.0000
  H   H2264     1.0  0.33563  0.93200  0.80737  1.0000
  H   H2265     1.0  0.31408  0.68602  0.51592  1.0000
  N   N96       1.0  0.32806  0.70557  0.51681  1.0000
  H   H2266     1.0  0.24870  0.80158  0.55416  1.0000
  H   H2267     1.0  0.32485  0.67250  0.54272  1.0000
  H   H2268     1.0  0.24835  0.70280  0.92054  1.0000
  C   C1324     1.0  0.24709  0.83518  0.50863  1.0000
  H   H2269     1.0  0.36148  0.95775  0.77729  1.0000
  C   C1325     1.0  0.28691  0.93076  0.65225  1.0000
  H   H2270     1.0  0.27576  0.94175  0.64992  1.0000
  H   H2271     1.0  0.25587  0.96623  0.81160  1.0000
  H   H2272     1.0  0.34432  0.68224  0.50831  1.0000
  S   S369      1.0  0.26566  0.80146  0.92940  1.0000
  H   H2273     1.0  0.25742  0.89266  0.62540  1.0000
  H   H2274     1.0  0.32680  0.77009  0.92329  1.0000
  C   C1326     1.0  0.26838  0.72016  0.85502  1.0000
  H   H2275     1.0  0.25032  0.92512  0.60527  1.0000
  H   H2276     1.0  0.30407  0.77774  0.92103  1.0000
  S   S370      1.0  0.25680  0.96828  0.59331  1.0000
  N   N97       1.0  0.31137  0.78331  0.95374  1.0000
  C   C1327     1.0  0.29627  0.77393  0.95750  1.0000
  C   C1328     1.0  0.31291  0.79307  0.93512  1.0000
  H   H2277     1.0  0.28456  0.85573  0.87748  1.0000
  H   H2278     1.0  0.29150  0.94015  0.70651  1.0000
  H   H2279     1.0  0.25299  0.85006  0.54115  1.0000
  C   C1329     1.0  0.28478  0.87837  0.49199  1.0000
  H   H2280     1.0  0.30474  0.90869  0.69269  1.0000
  C   C1330     1.0  0.32098  0.70846  0.48652  1.0000
  H   H2281     1.0  0.28416  0.78322  0.95447  1.0000
  Fe  Fe181     1.0  0.26289  0.92433  0.77516  1.0000
  H   H2282     1.0  0.29148  0.96336  0.80272  1.0000
  H   H2283     1.0  0.30068  0.80298  0.93348  1.0000
  C   C1331     1.0  0.27235  0.87904  0.48225  1.0000
  H   H2284     1.0  0.28037  0.81375  0.85338  1.0000
  C   C1332     1.0  0.31628  0.78178  0.92131  1.0000
  H   H2285     1.0  0.31480  0.91541  0.81874  1.0000
  H   H2286     1.0  0.29965  0.94713  0.65936  1.0000
  C   C1333     1.0  0.29124  0.76398  0.97629  1.0000
  C   C1334     1.0  0.30646  0.79621  0.96564  1.0000
  C   C1335     1.0  0.30861  0.95562  0.77870  1.0000
  C   C1336     1.0  0.34572  0.77512  0.94745  1.0000
  C   C1337     1.0  0.32779  0.71691  0.52919  1.0000
  H   H2287     1.0  0.25662  0.92698  0.71087  1.0000
  H   H2288     1.0  0.32798  0.76660  0.97121  1.0000
  H   H2289     1.0  0.25727  0.65934  0.65858  1.0000
  H   H2290     1.0  0.28155  0.72298  0.84830  1.0000
  H   H2291     1.0  0.31161  0.98143  0.67425  1.0000
  S   S371      1.0  0.28630  0.86603  0.80827  1.0000
  H   H2292     1.0  0.26968  0.90660  0.68500  1.0000
  C   C1338     1.0  0.31563  0.94073  0.68776  1.0000
  C   C1339     1.0  0.31380  0.68385  0.54273  1.0000
  H   H2293     1.0  0.34205  0.94639  0.76052  1.0000
  C   C1340     1.0  0.30131  0.68978  0.87135  1.0000
  S   S372      1.0  0.24919  0.90199  0.78769  1.0000
  H   H2294     1.0  0.29018  0.95736  0.68823  1.0000
  C   C1341     1.0  0.25553  0.65404  0.70282  1.0000
  H   H2295     1.0  0.25440  0.69974  0.50084  1.0000
  H   H2296     1.0  0.26383  0.85136  0.51056  1.0000
  S   S373      1.0  0.25164  0.66237  0.93342  1.0000
  H   H2297     1.0  0.30160  0.67842  0.54707  1.0000
  H   H2298     1.0  0.31432  0.81662  0.97318  1.0000
  S   S374      1.0  0.28570  0.79704  0.48447  1.0000
  H   H2299     1.0  0.33423  0.72489  0.49342  1.0000
  C   C1342     1.0  0.25254  0.83242  0.82529  1.0000
  C   C1343     1.0  0.32007  0.80721  0.96433  1.0000
  H   H2300     1.0  0.26334  0.86587  0.88763  1.0000
  H   H2301     1.0  0.25350  0.72473  0.88022  1.0000
  C   C1344     1.0  0.25282  0.66333  0.67144  1.0000
  H   H2302     1.0  0.24861  0.89750  0.64643  1.0000
  H   H2303     1.0  0.25884  0.73214  0.85084  1.0000
  H   H2304     1.0  0.26195  0.66457  0.70340  1.0000
  H   H2305     1.0  0.36103  0.65808  0.94631  1.0000
  C   C1345     1.0  0.24860  0.68876  0.50065  1.0000
  H   H2306     1.0  0.25396  0.88277  0.82803  1.0000
  C   C1346     1.0  0.25480  0.83561  0.54403  1.0000
  H   H2307     1.0  0.27304  0.94007  0.53473  1.0000
  H   H2308     1.0  0.33595  0.65592  0.93742  1.0000
  H   H2309     1.0  0.25075  0.85547  0.84905  1.0000
  H   H2310     1.0  0.25038  0.89356  0.72194  1.0000
  H   H2311     1.0  0.24822  0.82197  0.50630  1.0000
  H   H2312     1.0  0.26024  0.88866  0.48324  1.0000
  H   H2313     1.0  0.28583  0.94448  0.51306  1.0000
  H   H2314     1.0  0.35378  0.97468  0.78942  1.0000
  H   H2315     1.0  0.24761  0.85954  0.94209  1.0000
  H   H2316     1.0  0.25275  0.67897  0.89719  1.0000
  S   S375      1.0  0.26100  0.65392  0.97993  1.0000
  H   H2317     1.0  0.27111  0.68160  0.66310  1.0000
  C   C1347     1.0  0.25706  0.68148  0.66903  1.0000
  H   H2318     1.0  0.25290  0.92776  0.64187  1.0000
  H   H2319     1.0  0.30063  0.66555  0.92392  1.0000
  C   C1348     1.0  0.26337  0.97563  0.52714  1.0000
  H   H2320     1.0  0.25582  0.95027  0.50256  1.0000
  H   H2321     1.0  0.25750  0.96907  0.54032  1.0000
  H   H2322     1.0  0.28662  0.96198  0.48807  1.0000
  H   H2323     1.0  0.27762  0.96981  0.52532  1.0000
  N   N98       1.0  0.25505  0.97246  0.51367  1.0000
  C   C1349     1.0  0.28265  0.97579  0.48936  1.0000
  H   H2324     1.0  0.25666  0.97802  0.48578  1.0000
  C   C1350     1.0  0.26264  0.98096  0.49549  1.0000
  H   H2325     1.0  0.29014  0.97852  0.49787  1.0000
  H   H2326     1.0  0.24744  0.93220  0.55713  1.0000
  Fe  Fe182     1.0  0.24718  0.98543  0.61376  1.0000
  Fe  Fe183     1.0  0.72905  0.01704  0.13900  1.0000
  S   S376      1.0  0.72968  0.01907  0.11085  1.0000
  S   S377      1.0  0.70683  0.03225  0.15549  1.0000
  H   H2327     1.0  0.70910  0.07370  0.42612  1.0000
  H   H2328     1.0  0.68022  0.00630  0.41915  1.0000
  C   C1351     1.0  0.62663  0.01090  0.17478  1.0000
  H   H2329     1.0  0.64703  0.18363  0.08404  1.0000
  C   C1352     1.0  0.74245  0.05091  0.40045  1.0000
  C   C1353     1.0  0.57999  0.04859  0.31349  1.0000
  H   H2330     1.0  0.68677  0.30605  0.09804  1.0000
  S   S378      1.0  0.72475  0.12956  0.00810  1.0000
  S   S379      1.0  0.72308  0.15495  0.04256  1.0000
  C   C1354     1.0  0.67624  0.13696  0.47658  1.0000
  S   S380      1.0  0.71986  0.09188  0.46617  1.0000
  H   H2331     1.0  0.71791  0.17870  0.14744  1.0000
  H   H2332     1.0  0.70738  0.02884  0.27611  1.0000
  H   H2333     1.0  0.70541  0.12018  0.05469  1.0000
  S   S381      1.0  0.60049  0.27116  0.03676  1.0000
  Fe  Fe184     1.0  0.73789  0.08815  0.44045  1.0000
  H   H2334     1.0  0.72247  0.18772  0.10431  1.0000
  S   S382      1.0  0.71225  0.04478  0.33273  1.0000
  H   H2335     1.0  0.74189  0.07722  0.13172  1.0000
  Fe  Fe185     1.0  0.70971  0.03009  0.36040  1.0000
  S   S383      1.0  0.70127  0.04616  0.38165  1.0000
  Fe  Fe186     1.0  0.69704  0.02650  0.32909  1.0000
  S   S384      1.0  0.67727  0.03606  0.31165  1.0000
  S   S385      1.0  0.72098  0.00709  0.32095  1.0000
  Fe  Fe187     1.0  0.62752  0.01503  0.23579  1.0000
  S   S386      1.0  0.61383  0.00404  0.26272  1.0000
  S   S387      1.0  0.62686  0.04302  0.22172  1.0000
  H   H2336     1.0  0.62599  0.03246  0.18637  1.0000
  H   H2337     1.0  0.65743  0.99129  0.16395  1.0000
  C   C1355     1.0  0.70521  0.09630  0.32627  1.0000
  H   H2338     1.0  0.73755  0.01068  0.42940  1.0000
  S   S388      1.0  0.74503  0.16225  0.99143  1.0000
  H   H2339     1.0  0.60185  0.02501  0.29112  1.0000
  Fe  Fe188     1.0  0.70191  0.24108  0.06273  1.0000
  S   S389      1.0  0.67523  0.23701  0.07732  1.0000
  S   S390      1.0  0.71088  0.23591  0.03564  1.0000
  Fe  Fe189     1.0  0.71058  0.25129  0.09297  1.0000
  S   S391      1.0  0.68415  0.24840  0.11014  1.0000
  S   S392      1.0  0.73509  0.25332  0.10088  1.0000
  Fe  Fe190     1.0  0.68812  0.22389  0.10008  1.0000
  S   S393      1.0  0.68349  0.19698  0.11352  1.0000
  Fe  Fe191     1.0  0.67353  0.26175  0.08568  1.0000
  S   S394      1.0  0.64837  0.28165  0.08404  1.0000
  S   S395      1.0  0.71515  0.22588  0.08460  1.0000
  S   S396      1.0  0.69960  0.26687  0.06946  1.0000
  H   H2340     1.0  0.68075  0.19577  0.03884  1.0000
  H   H2341     1.0  0.58860  0.01362  0.31955  1.0000
  Fe  Fe192     1.0  0.71736  0.10966  0.17885  1.0000
  S   S397      1.0  0.68881  0.11759  0.19041  1.0000
  S   S398      1.0  0.72763  0.10298  0.15256  1.0000
  Fe  Fe193     1.0  0.73017  0.11234  0.21035  1.0000
  S   S399      1.0  0.70272  0.12118  0.22441  1.0000
  H   H2342     1.0  0.69603  0.23047  0.99420  1.0000
  Fe  Fe194     1.0  0.69581  0.10012  0.21506  1.0000
  S   S400      1.0  0.68353  0.07891  0.23454  1.0000
  Fe  Fe195     1.0  0.69837  0.13784  0.19837  1.0000
  S   S401      1.0  0.68617  0.16647  0.19323  1.0000
  S   S402      1.0  0.72362  0.09037  0.20256  1.0000
  S   S403      1.0  0.72655  0.13080  0.18522  1.0000
  H   H2343     1.0  0.70494  0.08906  0.06937  1.0000
  H   H2344     1.0  0.50371  0.99125  0.19413  1.0000
  Fe  Fe196     1.0  0.68012  0.26593  0.43115  1.0000
  S   S404      1.0  0.70641  0.25892  0.41414  1.0000
  S   S405      1.0  0.65952  0.25143  0.43137  1.0000
  C   C1356     1.0  0.65294  0.19340  0.07342  1.0000
  S   S406      1.0  0.62003  0.99656  0.22344  1.0000
  H   H2345     1.0  0.62842  0.20950  0.06919  1.0000
  C   C1357     1.0  0.72580  0.30390  0.10486  1.0000
  H   H2346     1.0  0.61946  0.03466  0.34401  1.0000
  H   H2347     1.0  0.63491  0.19156  0.05847  1.0000
  Fe  Fe197     1.0  0.74030  0.10412  0.47111  1.0000
  N   N99       1.0  0.73394  0.02655  0.19855  1.0000
  H   H2348     1.0  0.71048  0.28553  0.10412  1.0000
  H   H2349     1.0  0.71959  0.17860  0.17504  1.0000
  C   C1358     1.0  0.62740  0.02546  0.31907  1.0000
  C   C1359     1.0  0.70680  0.21311  0.43582  1.0000
  H   H2350     1.0  0.60470  0.22935  0.03304  1.0000
  C   C1360     1.0  0.68361  0.18902  0.13585  1.0000
  C   C1361     1.0  0.68139  0.20014  0.14735  1.0000
  C   C1362     1.0  0.68180  0.19318  0.16505  1.0000
  C   C1363     1.0  0.68478  0.17509  0.17122  1.0000
  C   C1364     1.0  0.68713  0.16404  0.15964  1.0000
  C   C1365     1.0  0.68629  0.17099  0.14210  1.0000
  H   H2351     1.0  0.67918  0.21407  0.14266  1.0000
  H   H2352     1.0  0.67997  0.20179  0.17395  1.0000
  H   H2353     1.0  0.68951  0.15011  0.16420  1.0000
  H   H2354     1.0  0.68800  0.16232  0.13329  1.0000
  C   C1366     1.0  0.73755  0.27354  0.10331  1.0000
  H   H2355     1.0  0.70084  0.98686  0.43405  1.0000
  Fe  Fe198     1.0  0.64010  0.98649  0.26475  1.0000
  C   C1367     1.0  0.61843  0.04409  0.28252  1.0000
  H   H2356     1.0  0.65659  0.02327  0.14666  1.0000
  H   H2357     1.0  0.64831  0.01731  0.20187  1.0000
  H   H2358     1.0  0.65759  0.27114  0.05029  1.0000
  H   H2359     1.0  0.73251  0.99036  0.39301  1.0000
  C   C1368     1.0  0.66315  0.29828  0.99730  1.0000
  H   H2360     1.0  0.72532  0.08133  0.10847  1.0000
  H   H2361     1.0  0.73940  0.03958  0.37999  1.0000
  C   C1369     1.0  0.67434  0.30973  0.09311  1.0000
  C   C1370     1.0  0.65945  0.31136  0.10924  1.0000
  H   H2362     1.0  0.62411  0.23524  0.04828  1.0000
  C   C1371     1.0  0.73337  0.00001  0.40034  1.0000
  C   C1372     1.0  0.61892  0.23458  0.46653  1.0000
  C   C1373     1.0  0.63009  0.24034  0.45101  1.0000
  C   C1374     1.0  0.64581  0.24473  0.45135  1.0000
  C   C1375     1.0  0.65059  0.24278  0.46739  1.0000
  H   H2363     1.0  0.62953  0.03679  0.16327  1.0000
  H   H2364     1.0  0.60654  0.23168  0.46613  1.0000
  H   H2365     1.0  0.68092  0.18935  0.01960  1.0000
  H   H2366     1.0  0.66273  0.24600  0.46780  1.0000
  H   H2367     1.0  0.65532  0.99954  0.19135  1.0000
  C   C1376     1.0  0.64296  0.05291  0.22476  1.0000
  C   C1377     1.0  0.64700  0.06823  0.21339  1.0000
  C   C1378     1.0  0.65964  0.07630  0.21597  1.0000
  C   C1379     1.0  0.66797  0.06925  0.23018  1.0000
  C   C1380     1.0  0.66395  0.05393  0.24142  1.0000
  C   C1381     1.0  0.65167  0.04570  0.23862  1.0000
  H   H2368     1.0  0.64028  0.07394  0.20264  1.0000
  H   H2369     1.0  0.66266  0.08812  0.20720  1.0000
  H   H2370     1.0  0.67057  0.04830  0.25222  1.0000
  H   H2371     1.0  0.64866  0.03395  0.24737  1.0000
  C   C1382     1.0  0.66065  0.01083  0.28328  1.0000
  C   C1383     1.0  0.67192  0.30079  0.00925  1.0000
  H   H2372     1.0  0.74318  0.98956  0.20098  1.0000
  H   H2373     1.0  0.57568  0.06297  0.31042  1.0000
  C   C1384     1.0  0.71708  0.10772  0.32838  1.0000
  H   H2374     1.0  0.73284  0.08618  0.24841  1.0000
  S   S407      1.0  0.73845  0.23864  0.44694  1.0000
  C   C1385     1.0  0.63359  0.02709  0.17464  1.0000
  H   H2375     1.0  0.69833  0.01148  0.44582  1.0000
  H   H2376     1.0  0.71116  0.01421  0.20787  1.0000
  C   C1386     1.0  0.71441  0.05208  0.39311  1.0000
  C   C1387     1.0  0.70602  0.06181  0.40612  1.0000
  H   H2377     1.0  0.69184  0.06588  0.40856  1.0000
  C   C1388     1.0  0.67294  0.01941  0.30383  1.0000
  H   H2378     1.0  0.64089  0.02154  0.34028  1.0000
  H   H2379     1.0  0.67030  0.17801  0.04008  1.0000
  H   H2380     1.0  0.69000  0.12152  0.11305  1.0000
  C   C1389     1.0  0.63987  0.20217  0.06111  1.0000
  C   C1390     1.0  0.65520  0.20369  0.03013  1.0000
  C   C1391     1.0  0.61450  0.27391  0.04932  1.0000
  C   C1392     1.0  0.63283  0.27144  0.04377  1.0000
  C   C1393     1.0  0.64345  0.27312  0.05460  1.0000
  C   C1394     1.0  0.63570  0.27803  0.07069  1.0000
  C   C1395     1.0  0.61738  0.28095  0.07594  1.0000
  C   C1396     1.0  0.60689  0.27858  0.06548  1.0000
  H   H2381     1.0  0.67829  0.22670  0.02315  1.0000
  H   H2382     1.0  0.61128  0.28475  0.08831  1.0000
  H   H2383     1.0  0.59277  0.28051  0.06990  1.0000
  C   C1397     1.0  0.65815  0.22455  0.04709  1.0000
  H   H2384     1.0  0.69673  0.09162  0.33880  1.0000
  C   C1398     1.0  0.71775  0.17761  0.04025  1.0000
  C   C1399     1.0  0.71985  0.18852  0.02381  1.0000
  C   C1400     1.0  0.71718  0.20656  0.02231  1.0000
  C   C1401     1.0  0.71211  0.21370  0.03728  1.0000
  C   C1402     1.0  0.70873  0.20291  0.05362  1.0000
  C   C1403     1.0  0.71171  0.18487  0.05512  1.0000
  H   H2385     1.0  0.72365  0.18310  0.01229  1.0000
  H   H2386     1.0  0.71953  0.21487  0.00964  1.0000
  H   H2387     1.0  0.70414  0.20830  0.06521  1.0000
  H   H2388     1.0  0.66373  0.18292  0.47315  1.0000
  C   C1404     1.0  0.71132  0.05277  0.15366  1.0000
  C   C1405     1.0  0.70139  0.06351  0.16525  1.0000
  C   C1406     1.0  0.70624  0.07913  0.16485  1.0000
  C   C1407     1.0  0.72088  0.08403  0.15276  1.0000
  Fe  Fe199     1.0  0.73576  0.02379  0.32744  1.0000
  C   C1408     1.0  0.72555  0.05802  0.14127  1.0000
  H   H2389     1.0  0.69030  0.05959  0.17487  1.0000
  H   H2390     1.0  0.69875  0.08727  0.17400  1.0000
  C   C1409     1.0  0.68819  0.25760  0.98455  1.0000
  H   H2391     1.0  0.73544  0.08264  0.37578  1.0000
  H   H2392     1.0  0.73309  0.21450  0.11485  1.0000
  H   H2393     1.0  0.61088  0.20952  0.04763  1.0000
  C   C1410     1.0  0.71076  0.08409  0.27822  1.0000
  H   H2394     1.0  0.66560  0.18645  0.06693  1.0000
  C   C1411     1.0  0.67149  0.19302  0.47149  1.0000
  H   H2395     1.0  0.62415  0.01647  0.29144  1.0000
  C   C1412     1.0  0.65235  0.05668  0.15788  1.0000
  C   C1413     1.0  0.73273  0.04689  0.39010  1.0000
  C   C1414     1.0  0.62716  0.02311  0.33863  1.0000
  H   H2396     1.0  0.64997  0.04685  0.18553  1.0000
  C   C1415     1.0  0.71437  0.02732  0.20218  1.0000
  H   H2397     1.0  0.63349  0.03695  0.31243  1.0000
  H   H2398     1.0  0.64476  0.30879  0.03895  1.0000
  C   C1416     1.0  0.73200  0.18118  0.16600  1.0000
  H   H2399     1.0  0.67499  0.99502  0.14593  1.0000
  H   H2400     1.0  0.71309  0.08502  0.32048  1.0000
  H   H2401     1.0  0.70559  0.03454  0.22811  1.0000
  C   C1417     1.0  0.65743  0.01274  0.19036  1.0000
  H   H2402     1.0  0.72810  0.08319  0.06262  1.0000
  C   C1418     1.0  0.74257  0.30630  0.10485  1.0000
  C   C1419     1.0  0.66950  0.98958  0.30795  1.0000
  H   H2403     1.0  0.71524  0.20362  0.12472  1.0000
  H   H2404     1.0  0.71161  0.05761  0.11082  1.0000
  C   C1420     1.0  0.73596  0.10556  0.07959  1.0000
  H   H2405     1.0  0.70445  0.05299  0.21008  1.0000
  H   H2406     1.0  0.72614  0.13109  0.35300  1.0000
  C   C1421     1.0  0.61600  0.21867  0.03590  1.0000
  H   H2407     1.0  0.66450  0.21418  0.44098  1.0000
  H   H2408     1.0  0.65845  0.06776  0.15748  1.0000
  H   H2409     1.0  0.74527  0.22544  0.01548  1.0000
  H   H2410     1.0  0.60448  0.30661  0.02647  1.0000
  C   C1422     1.0  0.73533  0.12936  0.34056  1.0000
  S   S408      1.0  0.73552  0.98799  0.14538  1.0000
  H   H2411     1.0  0.67603  0.23590  0.98672  1.0000
  C   C1423     1.0  0.72332  0.28753  0.10405  1.0000
  C   C1424     1.0  0.66205  0.31031  0.98170  1.0000
  C   C1425     1.0  0.60108  0.01243  0.32391  1.0000
  N   N100      1.0  0.64637  0.21395  0.04426  1.0000
  H   H2412     1.0  0.70164  0.18865  0.98435  1.0000
  S   S409      1.0  0.60444  0.29590  0.98764  1.0000
  C   C1426     1.0  0.66765  0.23528  0.03056  1.0000
  S   S410      1.0  0.63804  0.26462  0.99692  1.0000
  H   H2413     1.0  0.67114  0.04101  0.17272  1.0000
  H   H2414     1.0  0.70801  0.29935  0.07437  1.0000
  H   H2415     1.0  0.67388  0.24420  0.03443  1.0000
  H   H2416     1.0  0.65052  0.23356  0.05598  1.0000
  H   H2417     1.0  0.65453  0.19221  0.42913  1.0000
  H   H2418     1.0  0.70933  0.03177  0.18987  1.0000
  C   C1427     1.0  0.70301  0.03922  0.21473  1.0000
  C   C1428     1.0  0.70702  0.99213  0.42045  1.0000
  S   S411      1.0  0.68228  0.13300  0.45536  1.0000
  Fe  Fe200     1.0  0.73735  0.14604  0.01776  1.0000
  C   C1429     1.0  0.59828  0.04401  0.31845  1.0000
  H   H2419     1.0  0.69645  0.10410  0.31722  1.0000
  S   S412      1.0  0.60102  0.25522  0.99384  1.0000
  C   C1430     1.0  0.72016  0.21846  0.14058  1.0000
  H   H2420     1.0  0.71309  0.12005  0.10883  1.0000
  H   H2421     1.0  0.72142  0.28795  0.46753  1.0000
  H   H2422     1.0  0.71525  0.07937  0.24502  1.0000
  H   H2423     1.0  0.65734  0.21238  0.01707  1.0000
  H   H2424     1.0  0.72799  0.23182  0.38538  1.0000
  C   C1431     1.0  0.61335  0.02745  0.29487  1.0000
  H   H2425     1.0  0.66883  0.21637  0.05369  1.0000
  H   H2426     1.0  0.68410  0.22130  0.45472  1.0000
  S   S413      1.0  0.69241  0.01322  0.35721  1.0000
  H   H2427     1.0  0.74628  0.09004  0.31140  1.0000
  H   H2428     1.0  0.70072  0.21714  0.42418  1.0000
  C   C1432     1.0  0.67509  0.00229  0.31322  1.0000
  C   C1433     1.0  0.74225  0.01601  0.18456  1.0000
  Fe  Fe201     1.0  0.73867  0.98994  0.11677  1.0000
  H   H2429     1.0  0.73276  0.05024  0.13177  1.0000
  C   C1434     1.0  0.69610  0.17767  0.45225  1.0000
  C   C1435     1.0  0.65899  0.18938  0.44168  1.0000
  C   C1436     1.0  0.70304  0.17363  0.43376  1.0000
  H   H2430     1.0  0.70777  0.17644  0.45796  1.0000
  H   H2431     1.0  0.68987  0.16657  0.46003  1.0000
  H   H2432     1.0  0.69547  0.07683  0.10676  1.0000
  H   H2433     1.0  0.71462  0.10497  0.04063  1.0000
  H   H2434     1.0  0.69267  0.17058  0.42878  1.0000
  H   H2435     1.0  0.71362  0.16180  0.43431  1.0000
  H   H2436     1.0  0.70871  0.18413  0.42420  1.0000
  S   S414      1.0  0.73445  0.01014  0.35528  1.0000
  C   C1437     1.0  0.66875  0.99788  0.15907  1.0000
  H   H2437     1.0  0.73662  0.05104  0.20337  1.0000
  C   C1438     1.0  0.69349  0.20890  0.45275  1.0000
  C   C1439     1.0  0.73403  0.06073  0.41343  1.0000
  H   H2438     1.0  0.68340  0.08341  0.27746  1.0000
  H   H2439     1.0  0.68396  0.30989  0.05888  1.0000
  H   H2440     1.0  0.67360  0.29823  0.08828  1.0000
  S   S415      1.0  0.71904  0.28721  0.42854  1.0000
  S   S416      1.0  0.65401  0.99882  0.23885  1.0000
  H   H2441     1.0  0.68630  0.00942  0.18110  1.0000
  H   H2442     1.0  0.63425  0.23555  0.02616  1.0000
  H   H2443     1.0  0.65542  0.20298  0.07985  1.0000
  H   H2444     1.0  0.74661  0.25917  0.41220  1.0000
  H   H2445     1.0  0.69511  0.02037  0.41454  1.0000
  H   H2446     1.0  0.52840  0.00136  0.17805  1.0000
  H   H2447     1.0  0.64668  0.31084  0.10650  1.0000
  H   H2448     1.0  0.74405  0.08440  0.28244  1.0000
  H   H2449     1.0  0.73528  0.00604  0.22148  1.0000
  H   H2450     1.0  0.70686  0.06470  0.08961  1.0000
  N   N101      1.0  0.72114  0.06842  0.27062  1.0000
  H   H2451     1.0  0.68030  0.99900  0.32499  1.0000
  C   C1440     1.0  0.70684  0.31270  0.06645  1.0000
  C   C1441     1.0  0.74052  0.11874  0.25029  1.0000
  C   C1442     1.0  0.70919  0.05554  0.27438  1.0000
  H   H2452     1.0  0.73172  0.05707  0.29397  1.0000
  C   C1443     1.0  0.69279  0.09240  0.27292  1.0000
  H   H2453     1.0  0.73223  0.11997  0.07556  1.0000
  C   C1444     1.0  0.71789  0.03630  0.27419  1.0000
  H   H2454     1.0  0.71576  0.31170  0.05371  1.0000
  H   H2455     1.0  0.63797  0.06180  0.15950  1.0000
  H   H2456     1.0  0.72484  0.03047  0.28517  1.0000
  C   C1445     1.0  0.66597  0.02360  0.28872  1.0000
  C   C1446     1.0  0.70372  0.10931  0.09105  1.0000
  H   H2457     1.0  0.70073  0.05547  0.28758  1.0000
  H   H2458     1.0  0.69996  0.05948  0.26517  1.0000
  H   H2459     1.0  0.71369  0.02063  0.45154  1.0000
  N   N102      1.0  0.65307  0.02456  0.17380  1.0000
  H   H2460     1.0  0.69409  0.09719  0.25871  1.0000
  H   H2461     1.0  0.69537  0.00844  0.39840  1.0000
  H   H2462     1.0  0.68673  0.10389  0.27908  1.0000
  H   H2463     1.0  0.57987  0.04405  0.30171  1.0000
  H   H2464     1.0  0.60494  0.05532  0.31290  1.0000
  C   C1447     1.0  0.73180  0.17810  0.14791  1.0000
  H   H2465     1.0  0.73501  0.02683  0.22498  1.0000
  H   H2466     1.0  0.73001  0.21275  0.40172  1.0000
  H   H2467     1.0  0.61501  0.99232  0.30833  1.0000
  C   C1448     1.0  0.72716  0.20651  0.12721  1.0000
  H   H2468     1.0  0.72808  0.12166  0.24617  1.0000
  H   H2469     1.0  0.70833  0.08917  0.36246  1.0000
  C   C1449     1.0  0.70822  0.06941  0.10088  1.0000
  H   H2470     1.0  0.66416  0.03687  0.28157  1.0000
  H   H2471     1.0  0.74417  0.98675  0.29424  1.0000
  H   H2472     1.0  0.67628  0.02253  0.15310  1.0000
  C   C1450     1.0  0.61190  0.99410  0.32200  1.0000
  C   C1451     1.0  0.66188  0.99394  0.29319  1.0000
  H   H2473     1.0  0.68029  0.20208  0.42692  1.0000
  H   H2474     1.0  0.70355  0.10096  0.11934  1.0000
  N   N103      1.0  0.60998  0.02736  0.31409  1.0000
  H   H2475     1.0  0.60750  0.05553  0.28337  1.0000
  H   H2476     1.0  0.65759  0.05251  0.14521  1.0000
  H   H2477     1.0  0.63882  0.26816  0.03124  1.0000
  H   H2478     1.0  0.62049  0.21225  0.02449  1.0000
  C   C1452     1.0  0.66365  0.01786  0.15767  1.0000
  C   C1453     1.0  0.73699  0.22307  0.39379  1.0000
  S   S417      1.0  0.68866  0.31927  0.02181  1.0000
  C   C1454     1.0  0.69386  0.00772  0.41258  1.0000
  H   H2479     1.0  0.59556  0.04349  0.33271  1.0000
  S   S418      1.0  0.68631  0.31024  0.46254  1.0000
  Fe  Fe202     1.0  0.71042  0.11879  0.45165  1.0000
  C   C1455     1.0  0.72159  0.27502  0.47635  1.0000
  H   H2480     1.0  0.65699  0.28721  0.00042  1.0000
  H   H2481     1.0  0.62245  0.01120  0.34638  1.0000
  H   H2482     1.0  0.71638  0.99749  0.45549  1.0000
  C   C1456     1.0  0.71740  0.09376  0.06723  1.0000
  H   H2483     1.0  0.74028  0.29762  0.03500  1.0000
  H   H2484     1.0  0.62635  0.24172  0.43869  1.0000
  C   C1457     1.0  0.72307  0.07984  0.09606  1.0000
  H   H2485     1.0  0.73926  0.10413  0.10655  1.0000
  H   H2486     1.0  0.72589  0.01255  0.39412  1.0000
  H   H2487     1.0  0.65484  0.01421  0.27190  1.0000
  H   H2488     1.0  0.64709  0.19247  0.45177  1.0000
  H   H2489     1.0  0.70824  0.12002  0.33147  1.0000
  H   H2490     1.0  0.72653  0.05347  0.18563  1.0000
  C   C1458     1.0  0.68965  0.23848  0.98328  1.0000
  C   C1459     1.0  0.52994  0.98727  0.17832  1.0000
  C   C1460     1.0  0.71659  0.10939  0.05183  1.0000
  H   H2491     1.0  0.68899  0.03910  0.21556  1.0000
  N   N104      1.0  0.72002  0.09720  0.08384  1.0000
  H   H2492     1.0  0.65202  0.15477  0.47258  1.0000
  H   H2493     1.0  0.72946  0.12815  0.27424  1.0000
  S   S419      1.0  0.69089  0.26396  0.45471  1.0000
  H   H2494     1.0  0.72686  0.03434  0.26177  1.0000
  C   C1461     1.0  0.67266  0.19098  0.03254  1.0000
  H   H2495     1.0  0.68373  0.20624  0.98861  1.0000
  C   C1462     1.0  0.70283  0.11294  0.10909  1.0000
  H   H2496     1.0  0.63040  0.04699  0.28480  1.0000
  C   C1463     1.0  0.73714  0.04500  0.19225  1.0000
  H   H2497     1.0  0.71977  0.02296  0.41987  1.0000
  H   H2498     1.0  0.67862  0.99174  0.16739  1.0000
  H   H2499     1.0  0.71821  0.20219  0.43449  1.0000
  H   H2500     1.0  0.63060  0.99955  0.18486  1.0000
  H   H2501     1.0  0.71602  0.09442  0.38737  1.0000
  H   H2502     1.0  0.66464  0.17527  0.44473  1.0000
  H   H2503     1.0  0.73635  0.16737  0.10158  1.0000
  H   H2504     1.0  0.72895  0.13664  0.32947  1.0000
  H   H2505     1.0  0.72652  0.26494  0.46828  1.0000
  Fe  Fe203     1.0  0.69156  0.29209  0.44418  1.0000
  C   C1464     1.0  0.72685  0.07451  0.25132  1.0000
  C   C1465     1.0  0.65692  0.04206  0.17333  1.0000
  C   C1466     1.0  0.71662  0.09915  0.35966  1.0000
  H   H2506     1.0  0.70126  0.20541  0.46318  1.0000
  H   H2507     1.0  0.62424  0.99101  0.32701  1.0000
  C   C1467     1.0  0.74033  0.01823  0.21530  1.0000
  Fe  Fe204     1.0  0.71704  0.25929  0.43703  1.0000
  H   H2508     1.0  0.73847  0.16429  0.14778  1.0000
  S   S420      1.0  0.67843  0.29482  0.42182  1.0000
  H   H2509     1.0  0.70106  0.26045  0.98444  1.0000
  H   H2510     1.0  0.74089  0.25410  0.99617  1.0000
  C   C1468     1.0  0.74469  0.28361  0.04017  1.0000
  S   S421      1.0  0.72959  0.13108  0.45809  1.0000
  H   H2511     1.0  0.73280  0.10572  0.37483  1.0000
  H   H2512     1.0  0.72198  0.16899  0.12208  1.0000
  C   C1469     1.0  0.67229  0.20085  0.44031  1.0000
  C   C1470     1.0  0.71576  0.06625  0.41612  1.0000
  H   H2513     1.0  0.70711  0.11170  0.36036  1.0000
  H   H2514     1.0  0.64642  0.19558  0.02878  1.0000
  H   H2515     1.0  0.65883  0.24348  0.02194  1.0000
  H   H2516     1.0  0.57014  0.04305  0.32437  1.0000
  C   C1471     1.0  0.73054  0.17607  0.11111  1.0000
  C   C1472     1.0  0.72602  0.09523  0.37509  1.0000
  H   H2517     1.0  0.69173  0.10433  0.09183  1.0000
  C   C1473     1.0  0.63050  0.22667  0.03864  1.0000
  H   H2518     1.0  0.63689  0.01418  0.31460  1.0000
  H   H2519     1.0  0.66158  0.20527  0.47272  1.0000
  H   H2520     1.0  0.59700  0.01273  0.33803  1.0000
  Fe  Fe205     1.0  0.70599  0.28765  0.40688  1.0000
  H   H2521     1.0  0.62134  0.04215  0.26889  1.0000
  H   H2522     1.0  0.70809  0.08066  0.29271  1.0000
  Fe  Fe206     1.0  0.60940  0.27165  0.00792  1.0000
  C   C1474     1.0  0.73652  0.06080  0.27967  1.0000
  N   N105      1.0  0.72836  0.09956  0.34186  1.0000
  N   N106      1.0  0.68363  0.19487  0.45387  1.0000
  S   S422      1.0  0.72677  0.11425  0.42569  1.0000
  S   S423      1.0  0.71763  0.29772  0.37877  1.0000
  H   H2523     1.0  0.71141  0.23031  0.13485  1.0000
  H   H2524     1.0  0.71834  0.09472  0.27452  1.0000
  H   H2525     1.0  0.74055  0.18614  0.40116  1.0000
  H   H2526     1.0  0.74553  0.10129  0.06818  1.0000
  H   H2527     1.0  0.70217  0.12227  0.08217  1.0000
  Fe  Fe207     1.0  0.71769  0.99478  0.34921  1.0000
  H   H2528     1.0  0.67250  0.29153  0.02140  1.0000
  H   H2529     1.0  0.72511  0.11197  0.31534  1.0000
  C   C1475     1.0  0.67628  0.01091  0.19308  1.0000
  H   H2530     1.0  0.73156  0.05455  0.23579  1.0000
  H   H2531     1.0  0.67938  0.99922  0.20322  1.0000
  H   H2532     1.0  0.73741  0.02269  0.17235  1.0000
  H   H2533     1.0  0.71220  0.22425  0.43650  1.0000
  H   H2534     1.0  0.67971  0.25987  0.99721  1.0000
  C   C1476     1.0  0.73049  0.07350  0.14097  1.0000
  H   H2535     1.0  0.72900  0.11438  0.04746  1.0000
  H   H2536     1.0  0.71480  0.31477  0.10532  1.0000
  H   H2537     1.0  0.67738  0.02232  0.19778  1.0000
  H   H2538     1.0  0.73319  0.20273  0.37122  1.0000
  H   H2539     1.0  0.72983  0.18086  0.37865  1.0000
  H   H2540     1.0  0.71194  0.21224  0.15251  1.0000
  H   H2541     1.0  0.73532  0.07131  0.09048  1.0000
  H   H2542     1.0  0.70966  0.17655  0.06787  1.0000
  N   N107      1.0  0.74008  0.18997  0.13212  1.0000
  H   H2543     1.0  0.74696  0.05017  0.03569  1.0000
  C   C1477     1.0  0.73917  0.99720  0.18872  1.0000
  H   H2544     1.0  0.73272  0.27826  0.04687  1.0000
  C   C1478     1.0  0.74549  0.18078  0.11688  1.0000
  H   H2545     1.0  0.63060  0.00730  0.16179  1.0000
  H   H2546     1.0  0.72534  0.99688  0.18895  1.0000
  H   H2547     1.0  0.74668  0.13537  0.33967  1.0000
  H   H2548     1.0  0.66231  0.29999  0.11982  1.0000
  C   C1479     1.0  0.74131  0.12238  0.26618  1.0000
  H   H2549     1.0  0.61202  0.01406  0.17769  1.0000
  H   H2550     1.0  0.72804  0.07228  0.34380  1.0000
  H   H2551     1.0  0.62157  0.31071  0.04602  1.0000
  H   H2552     1.0  0.74258  0.17154  0.17178  1.0000
  H   H2553     1.0  0.73071  0.22305  0.14374  1.0000
  H   H2554     1.0  0.73866  0.23080  0.40265  1.0000
  C   C1480     1.0  0.73928  0.06112  0.24092  1.0000
  C   C1481     1.0  0.73753  0.08122  0.34018  1.0000
  H   H2555     1.0  0.63026  0.31391  0.01384  1.0000
  H   H2556     1.0  0.73288  0.19445  0.16644  1.0000
  H   H2557     1.0  0.74354  0.31429  0.05899  1.0000
  Fe  Fe208     1.0  0.74696  0.12368  0.43372  1.0000
  N   N108      1.0  0.72507  0.99536  0.41928  1.0000
  C   C1482     1.0  0.74222  0.11006  0.33935  1.0000
  C   C1483     1.0  0.59334  0.31779  0.02566  1.0000
  C   C1484     1.0  0.74005  0.18899  0.37430  1.0000
  C   C1485     1.0  0.67953  0.31544  0.00576  1.0000
  H   H2558     1.0  0.58225  0.31408  0.03619  1.0000
  C   C1486     1.0  0.72422  0.01014  0.42799  1.0000
  H   H2559     1.0  0.73298  0.31602  0.34582  1.0000
  H   H2560     1.0  0.74629  0.07564  0.34978  1.0000
  C   C1487     1.0  0.71242  0.00964  0.44625  1.0000
  H   H2561     1.0  0.74426  0.04848  0.27582  1.0000
  S   S424      1.0  0.74664  0.06515  0.42647  1.0000
  C   C1488     1.0  0.63198  0.31804  0.03861  1.0000
  H   H2562     1.0  0.72295  0.13125  0.91514  1.0000
  H   H2563     1.0  0.72398  0.20889  0.86051  1.0000
  S   S425      1.0  0.66186  0.28343  0.61300  1.0000
  H   H2564     1.0  0.57423  0.30601  0.60698  1.0000
  H   H2565     1.0  0.58243  0.24426  0.88785  1.0000
  S   S426      1.0  0.68494  0.26825  0.57852  1.0000
  C   C1489     1.0  0.58757  0.19852  0.89663  1.0000
  Fe  Fe209     1.0  0.66084  0.28838  0.58486  1.0000
  S   S427      1.0  0.63618  0.28857  0.57637  1.0000
  Fe  Fe210     1.0  0.68740  0.26541  0.60598  1.0000
  H   H2566     1.0  0.69742  0.31627  0.52193  1.0000
  H   H2567     1.0  0.58981  0.28713  0.61454  1.0000
  Fe  Fe211     1.0  0.53716  0.19906  0.79068  1.0000
  S   S428      1.0  0.52697  0.17999  0.81377  1.0000
  S   S429      1.0  0.52570  0.22759  0.78600  1.0000
  Fe  Fe212     1.0  0.56441  0.17124  0.77502  1.0000
  S   S430      1.0  0.55603  0.14965  0.79666  1.0000
  S   S431      1.0  0.58790  0.16663  0.75367  1.0000
  Fe  Fe213     1.0  0.52843  0.16385  0.79413  1.0000
  H   H2568     1.0  0.55357  0.31912  0.80557  1.0000
  Fe  Fe214     1.0  0.55544  0.16795  0.81397  1.0000
  S   S432      1.0  0.56728  0.15919  0.83832  1.0000
  S   S433      1.0  0.53712  0.18392  0.77101  1.0000
  S   S434      1.0  0.56539  0.18848  0.79230  1.0000
  Fe  Fe215     1.0  0.57908  0.28588  0.69977  1.0000
  H   H2569     1.0  0.68693  0.31260  0.49770  1.0000
  S   S435      1.0  0.56192  0.28965  0.68072  1.0000
  Fe  Fe216     1.0  0.60513  0.25959  0.71933  1.0000
  S   S436      1.0  0.60785  0.27906  0.73348  1.0000
  S   S437      1.0  0.62239  0.23293  0.72157  1.0000
  Fe  Fe217     1.0  0.57849  0.28751  0.73655  1.0000
  H   H2570     1.0  0.53251  0.23424  0.74539  1.0000
  Fe  Fe218     1.0  0.60884  0.29728  0.70746  1.0000
  C   C1490     1.0  0.73235  0.21264  0.89071  1.0000
  S   S438      1.0  0.57577  0.26631  0.72463  1.0000
  S   S439      1.0  0.60825  0.27720  0.69310  1.0000
  Fe  Fe219     1.0  0.63932  0.19603  0.89881  1.0000
  S   S440      1.0  0.63925  0.21210  0.87194  1.0000
  S   S441      1.0  0.61749  0.20358  0.92064  1.0000
  Fe  Fe220     1.0  0.67272  0.17126  0.88802  1.0000
  S   S442      1.0  0.67547  0.18481  0.85988  1.0000
  S   S443      1.0  0.69404  0.14941  0.89780  1.0000
  Fe  Fe221     1.0  0.66813  0.20948  0.87019  1.0000
  S   S444      1.0  0.68312  0.23118  0.85768  1.0000
  Fe  Fe222     1.0  0.64628  0.18640  0.86344  1.0000
  S   S445      1.0  0.63448  0.18636  0.84048  1.0000
  S   S446      1.0  0.66747  0.19595  0.89785  1.0000
  S   S447      1.0  0.64417  0.17037  0.89070  1.0000
  C   C1491     1.0  0.58662  0.20255  0.87714  1.0000
  H   H2571     1.0  0.59221  0.13462  0.56579  1.0000
  C   C1492     1.0  0.62656  0.12993  0.53092  1.0000
  C   C1493     1.0  0.60718  0.27307  0.64069  1.0000
  H   H2572     1.0  0.63098  0.22732  0.76317  1.0000
  Fe  Fe223     1.0  0.63547  0.20255  0.55533  1.0000
  S   S448      1.0  0.60763  0.21194  0.55167  1.0000
  S   S449      1.0  0.64810  0.20965  0.57356  1.0000
  H   H2573     1.0  0.61292  0.26262  0.65068  1.0000
  H   H2574     1.0  0.58951  0.15009  0.52739  1.0000
  C   C1494     1.0  0.62085  0.13498  0.51313  1.0000
  H   H2575     1.0  0.57690  0.21472  0.87398  1.0000
  Fe  Fe224     1.0  0.60650  0.18368  0.55703  1.0000
  S   S450      1.0  0.58607  0.17035  0.57641  1.0000
  H   H2576     1.0  0.73116  0.13481  0.94170  1.0000
  S   S451      1.0  0.63345  0.17462  0.56290  1.0000
  H   H2577     1.0  0.68222  0.26727  0.97429  1.0000
  C   C1495     1.0  0.53384  0.31511  0.82995  1.0000
  H   H2578     1.0  0.64544  0.16280  0.50163  1.0000
  H   H2579     1.0  0.53244  0.30381  0.84084  1.0000
  H   H2580     1.0  0.56846  0.25538  0.78724  1.0000
  C   C1496     1.0  0.68597  0.24505  0.90148  1.0000
  Fe  Fe225     1.0  0.51361  0.18756  0.67204  1.0000
  H   H2581     1.0  0.51643  0.30863  0.80634  1.0000
  S   S452      1.0  0.51288  0.16068  0.68765  1.0000
  Fe  Fe226     1.0  0.53729  0.21384  0.66406  1.0000
  S   S453      1.0  0.51834  0.23496  0.65069  1.0000
  S   S454      1.0  0.56347  0.21547  0.66832  1.0000
  C   C1497     1.0  0.52581  0.30747  0.77163  1.0000
  Fe  Fe227     1.0  0.51562  0.21389  0.63850  1.0000
  S   S455      1.0  0.51832  0.21986  0.60948  1.0000
  S   S456      1.0  0.51668  0.20607  0.68694  1.0000
  S   S457      1.0  0.53614  0.19343  0.65043  1.0000
  H   H2582     1.0  0.50867  0.28111  0.69532  1.0000
  H   H2583     1.0  0.58433  0.25443  0.76832  1.0000
  H   H2584     1.0  0.61933  0.29091  0.64707  1.0000
  C   C1498     1.0  0.52631  0.30506  0.72425  1.0000
  H   H2585     1.0  0.72002  0.16280  0.50606  1.0000
  S   S458      1.0  0.62916  0.31413  0.69823  1.0000
  H   H2586     1.0  0.60182  0.26925  0.77632  1.0000
  H   H2587     1.0  0.69377  0.28520  0.51628  1.0000
  H   H2588     1.0  0.59965  0.14727  0.89778  1.0000
  C   C1499     1.0  0.56665  0.18405  0.58467  1.0000
  C   C1500     1.0  0.56275  0.20169  0.57703  1.0000
  C   C1501     1.0  0.54755  0.21254  0.58437  1.0000
  C   C1502     1.0  0.53642  0.20586  0.59954  1.0000
  C   C1503     1.0  0.54014  0.18814  0.60696  1.0000
  C   C1504     1.0  0.55515  0.17723  0.59944  1.0000
  H   H2589     1.0  0.57132  0.20697  0.56541  1.0000
  H   H2590     1.0  0.54460  0.22620  0.57848  1.0000
  H   H2591     1.0  0.53142  0.18284  0.61849  1.0000
  H   H2592     1.0  0.55802  0.16357  0.60533  1.0000
  H   H2593     1.0  0.58314  0.19204  0.87295  1.0000
  C   C1505     1.0  0.56893  0.27564  0.94679  1.0000
  Fe  Fe228     1.0  0.64308  0.17405  0.53476  1.0000
  H   H2594     1.0  0.61524  0.29789  0.89955  1.0000
  Fe  Fe229     1.0  0.59911  0.27872  0.97209  1.0000
  H   H2595     1.0  0.49835  0.13197  0.70920  1.0000
  H   H2596     1.0  0.63650  0.27655  0.88815  1.0000
  H   H2597     1.0  0.70686  0.23997  0.67099  1.0000
  C   C1506     1.0  0.49898  0.28833  0.75155  1.0000
  S   S459      1.0  0.67502  0.31064  0.57663  1.0000
  H   H2598     1.0  0.53400  0.28384  0.74480  1.0000
  H   H2599     1.0  0.69810  0.28559  0.64906  1.0000
  H   H2600     1.0  0.57765  0.26036  0.90072  1.0000
  C   C1507     1.0  0.62483  0.20746  0.93785  1.0000
  C   C1508     1.0  0.64197  0.20035  0.94055  1.0000
  C   C1509     1.0  0.64805  0.20494  0.95334  1.0000
  C   C1510     1.0  0.63705  0.21683  0.96326  1.0000
  C   C1511     1.0  0.61981  0.22363  0.96080  1.0000
  C   C1512     1.0  0.61360  0.21866  0.94838  1.0000
  H   H2601     1.0  0.65046  0.19115  0.93299  1.0000
  H   H2602     1.0  0.60028  0.22401  0.94651  1.0000
  H   H2603     1.0  0.70541  0.14485  0.52674  1.0000
  C   C1513     1.0  0.70230  0.25044  0.86643  1.0000
  C   C1514     1.0  0.68905  0.24057  0.87227  1.0000
  C   C1515     1.0  0.68081  0.23806  0.88979  1.0000
  H   H2604     1.0  0.65701  0.23121  0.67712  1.0000
  H   H2605     1.0  0.70867  0.25249  0.85284  1.0000
  H   H2606     1.0  0.67044  0.23072  0.89440  1.0000
  C   C1516     1.0  0.56311  0.26926  0.67634  1.0000
  C   C1517     1.0  0.55179  0.26732  0.66662  1.0000
  C   C1518     1.0  0.55207  0.25082  0.66389  1.0000
  C   C1519     1.0  0.56369  0.23628  0.67080  1.0000
  C   C1520     1.0  0.57547  0.23833  0.67999  1.0000
  C   C1521     1.0  0.57512  0.25481  0.68283  1.0000
  H   H2607     1.0  0.54261  0.27850  0.66144  1.0000
  H   H2608     1.0  0.54336  0.24942  0.65634  1.0000
  H   H2609     1.0  0.58456  0.22713  0.68529  1.0000
  H   H2610     1.0  0.58404  0.25621  0.69021  1.0000
  Fe  Fe230     1.0  0.52734  0.25042  0.90361  1.0000
  C   C1522     1.0  0.58450  0.16821  0.84046  1.0000
  C   C1523     1.0  0.58904  0.18318  0.82901  1.0000
  C   C1524     1.0  0.60417  0.18876  0.82950  1.0000
  C   C1525     1.0  0.61450  0.17996  0.84191  1.0000
  C   C1526     1.0  0.60966  0.16534  0.85379  1.0000
  C   C1527     1.0  0.59469  0.15951  0.85308  1.0000
  H   H2611     1.0  0.58120  0.19016  0.81944  1.0000
  H   H2612     1.0  0.60816  0.19968  0.81994  1.0000
  H   H2613     1.0  0.61795  0.15802  0.86292  1.0000
  H   H2614     1.0  0.59137  0.14782  0.86190  1.0000
  C   C1528     1.0  0.59676  0.18543  0.74435  1.0000
  C   C1529     1.0  0.61417  0.18368  0.73522  1.0000
  C   C1530     1.0  0.62183  0.19836  0.72830  1.0000
  C   C1531     1.0  0.61202  0.21496  0.73008  1.0000
  C   C1532     1.0  0.59445  0.21680  0.73892  1.0000
  C   C1533     1.0  0.58685  0.20201  0.74619  1.0000
  H   H2615     1.0  0.62186  0.17091  0.73372  1.0000
  H   H2616     1.0  0.63540  0.19687  0.72146  1.0000
  H   H2617     1.0  0.58681  0.22955  0.74035  1.0000
  H   H2618     1.0  0.57333  0.20347  0.75310  1.0000
  C   C1534     1.0  0.53004  0.23745  0.80108  1.0000
  C   C1535     1.0  0.53302  0.22781  0.81739  1.0000
  C   C1536     1.0  0.53701  0.23583  0.82908  1.0000
  H   H2619     1.0  0.66133  0.19949  0.95532  1.0000
  H   H2620     1.0  0.53225  0.21419  0.82102  1.0000
  H   H2621     1.0  0.53932  0.22837  0.84168  1.0000
  H   H2622     1.0  0.58130  0.27247  0.81348  1.0000
  H   H2623     1.0  0.53508  0.24935  0.72515  1.0000
  C   C1537     1.0  0.50971  0.13152  0.77451  1.0000
  H   H2624     1.0  0.71212  0.25664  0.51505  1.0000
  C   C1538     1.0  0.73781  0.30688  0.51867  1.0000
  H   H2625     1.0  0.50558  0.28823  0.76221  1.0000
  H   H2626     1.0  0.63046  0.14160  0.53256  1.0000
  H   H2627     1.0  0.52351  0.13145  0.77313  1.0000
  H   H2628     1.0  0.51431  0.11197  0.75898  1.0000
  H   H2629     1.0  0.73691  0.26382  0.52306  1.0000
  H   H2630     1.0  0.52362  0.29527  0.78010  1.0000
  H   H2631     1.0  0.64435  0.29666  0.53782  1.0000
  H   H2632     1.0  0.57672  0.19677  0.94844  1.0000
  H   H2633     1.0  0.50412  0.28590  0.82407  1.0000
  C   C1539     1.0  0.60605  0.29072  0.64527  1.0000
  H   H2634     1.0  0.59299  0.17983  0.92710  1.0000
  C   C1540     1.0  0.64883  0.14498  0.81880  1.0000
  H   H2635     1.0  0.64628  0.30412  0.63808  1.0000
  H   H2636     1.0  0.50449  0.25300  0.74701  1.0000
  H   H2637     1.0  0.72557  0.28183  0.49886  1.0000
  H   H2638     1.0  0.52945  0.19463  0.91833  1.0000
  C   C1541     1.0  0.63687  0.26665  0.57706  1.0000
  C   C1542     1.0  0.64628  0.25397  0.58834  1.0000
  C   C1543     1.0  0.64938  0.23647  0.58731  1.0000
  C   C1544     1.0  0.64293  0.23155  0.57509  1.0000
  C   C1545     1.0  0.63275  0.24409  0.56432  1.0000
  C   C1546     1.0  0.62967  0.26172  0.56534  1.0000
  H   H2639     1.0  0.65162  0.25764  0.59763  1.0000
  H   H2640     1.0  0.65719  0.22677  0.59570  1.0000
  H   H2641     1.0  0.62767  0.24027  0.55491  1.0000
  H   H2642     1.0  0.62239  0.27152  0.55658  1.0000
  C   C1547     1.0  0.60210  0.27553  0.90531  1.0000
  C   C1548     1.0  0.70770  0.15373  0.94822  1.0000
  C   C1549     1.0  0.69165  0.16281  0.94359  1.0000
  C   C1550     1.0  0.68704  0.16080  0.92866  1.0000
  C   C1551     1.0  0.69849  0.14986  0.91804  1.0000
  C   C1552     1.0  0.71413  0.13996  0.92317  1.0000
  C   C1553     1.0  0.71875  0.14189  0.93825  1.0000
  H   H2643     1.0  0.68292  0.17179  0.95136  1.0000
  H   H2644     1.0  0.67463  0.16783  0.92534  1.0000
  N   N109      1.0  0.69928  0.23304  0.96626  1.0000
  C   C1554     1.0  0.71388  0.24275  0.95699  1.0000
  C   C1555     1.0  0.68694  0.23570  0.95402  1.0000
  C   C1556     1.0  0.49705  0.14224  0.78465  1.0000
  C   C1557     1.0  0.67537  0.25393  0.95050  1.0000
  H   H2645     1.0  0.62830  0.09725  0.52633  1.0000
  H   H2646     1.0  0.70889  0.25703  0.95419  1.0000
  H   H2647     1.0  0.69438  0.23252  0.94125  1.0000
  C   C1558     1.0  0.72442  0.22951  0.51981  1.0000
  C   C1559     1.0  0.70567  0.20036  0.92278  1.0000
  H   H2648     1.0  0.74239  0.21148  0.63282  1.0000
  C   C1560     1.0  0.72929  0.23922  0.96648  1.0000
  H   H2649     1.0  0.68321  0.26426  0.94548  1.0000
  H   H2650     1.0  0.66546  0.25660  0.96227  1.0000
  H   H2651     1.0  0.66785  0.25453  0.94047  1.0000
  H   H2652     1.0  0.52927  0.26242  0.78375  1.0000
  Fe  Fe231     1.0  0.73413  0.14441  0.98144  1.0000
  C   C1561     1.0  0.68752  0.12918  0.48826  1.0000
  H   H2653     1.0  0.64615  0.14113  0.75895  1.0000
  H   H2654     1.0  0.69244  0.12721  0.51364  1.0000
  H   H2655     1.0  0.72975  0.23674  0.61406  1.0000
  C   C1562     1.0  0.60480  0.25608  0.88553  1.0000
  H   H2656     1.0  0.62646  0.08597  0.54888  1.0000
  C   C1563     1.0  0.61561  0.14661  0.80649  1.0000
  S   S460      1.0  0.70399  0.28555  0.59971  1.0000
  H   H2657     1.0  0.63756  0.24701  0.68374  1.0000
  S   S461      1.0  0.64503  0.22376  0.97820  1.0000
  H   H2658     1.0  0.64327  0.24319  0.66213  1.0000
  S   S462      1.0  0.50260  0.15604  0.79556  1.0000
  C   C1564     1.0  0.71774  0.20735  0.59267  1.0000
  C   C1565     1.0  0.64093  0.31679  0.67656  1.0000
  C   C1566     1.0  0.55688  0.19588  0.90759  1.0000
  H   H2659     1.0  0.55409  0.20931  0.91010  1.0000
  S   S463      1.0  0.74056  0.29282  0.88086  1.0000
  H   H2660     1.0  0.57415  0.17032  0.89187  1.0000
  C   C1567     1.0  0.50842  0.31240  0.81859  1.0000
  C   C1568     1.0  0.66855  0.14559  0.50951  1.0000
  C   C1569     1.0  0.59865  0.16017  0.90087  1.0000
  C   C1570     1.0  0.54859  0.30835  0.81550  1.0000
  C   C1571     1.0  0.67658  0.27020  0.53573  1.0000
  H   H2661     1.0  0.54444  0.29987  0.80912  1.0000
  S   S464      1.0  0.55953  0.29014  0.76190  1.0000
  H   H2662     1.0  0.61979  0.16137  0.77099  1.0000
  H   H2663     1.0  0.68854  0.19870  0.96837  1.0000
  H   H2664     1.0  0.51572  0.25815  0.76084  1.0000
  H   H2665     1.0  0.59727  0.29021  0.65829  1.0000
  H   H2666     1.0  0.55985  0.30038  0.82143  1.0000
  Fe  Fe232     1.0  0.63292  0.28791  0.97596  1.0000
  S   S465      1.0  0.49821  0.25051  0.90979  1.0000
  H   H2667     1.0  0.50091  0.21202  0.81745  1.0000
  C   C1572     1.0  0.63817  0.30859  0.66439  1.0000
  H   H2668     1.0  0.54301  0.17388  0.91612  1.0000
  H   H2669     1.0  0.69259  0.12438  0.54637  1.0000
  H   H2670     1.0  0.71968  0.23944  0.94389  1.0000
  H   H2671     1.0  0.68620  0.29232  0.53639  1.0000
  H   H2672     1.0  0.69395  0.19693  0.92047  1.0000
  N   N110      1.0  0.71123  0.15882  0.54359  1.0000
  C   C1573     1.0  0.72461  0.16775  0.53011  1.0000
  C   C1574     1.0  0.71626  0.15552  0.56107  1.0000
  H   H2673     1.0  0.70558  0.15134  0.57187  1.0000
  C   C1575     1.0  0.71104  0.14209  0.53863  1.0000
  H   H2674     1.0  0.70974  0.11792  0.55823  1.0000
  C   C1576     1.0  0.73343  0.14219  0.56336  1.0000
  C   C1577     1.0  0.67641  0.31676  0.50861  1.0000
  C   C1578     1.0  0.70061  0.12949  0.55262  1.0000
  H   H2675     1.0  0.55472  0.19753  0.89415  1.0000
  H   H2676     1.0  0.73772  0.15900  0.52886  1.0000
  H   H2677     1.0  0.54333  0.18408  0.93363  1.0000
  H   H2678     1.0  0.72496  0.20800  0.57940  1.0000
  Fe  Fe233     1.0  0.69952  0.29010  0.57243  1.0000
  C   C1579     1.0  0.69103  0.18830  0.54822  1.0000
  H   H2679     1.0  0.71805  0.16778  0.56371  1.0000
  H   H2680     1.0  0.72472  0.13478  0.53504  1.0000
  H   H2681     1.0  0.71973  0.22213  0.89092  1.0000
  H   H2682     1.0  0.73541  0.21991  0.51409  1.0000
  H   H2683     1.0  0.71105  0.18048  0.89128  1.0000
  H   H2684     1.0  0.51820  0.31381  0.73311  1.0000
  H   H2685     1.0  0.51334  0.25972  0.70857  1.0000
  H   H2686     1.0  0.64558  0.29942  0.48720  1.0000
  H   H2687     1.0  0.72658  0.17918  0.53417  1.0000
  H   H2688     1.0  0.61888  0.13813  0.57467  1.0000
  H   H2689     1.0  0.74310  0.30714  0.95169  1.0000
  H   H2690     1.0  0.73312  0.18757  0.92246  1.0000
  H   H2691     1.0  0.69143  0.13539  0.56323  1.0000
  C   C1580     1.0  0.51529  0.25948  0.74690  1.0000
  C   C1581     1.0  0.52817  0.28569  0.73316  1.0000
  H   H2692     1.0  0.60475  0.14970  0.55165  1.0000
  C   C1582     1.0  0.60209  0.14152  0.79911  1.0000
  S   S466      1.0  0.72049  0.28857  0.54799  1.0000
  H   H2693     1.0  0.59389  0.27078  0.64140  1.0000
  C   C1583     1.0  0.65289  0.30655  0.53347  1.0000
  C   C1584     1.0  0.64180  0.25958  0.87018  1.0000
  C   C1585     1.0  0.61237  0.30759  0.61544  1.0000
  C   C1586     1.0  0.53273  0.24813  0.73939  1.0000
  H   H2694     1.0  0.69977  0.19620  0.53842  1.0000
  H   H2695     1.0  0.73302  0.12911  0.56175  1.0000
  C   C1587     1.0  0.57871  0.18423  0.92694  1.0000
  Fe  Fe234     1.0  0.67803  0.30400  0.60465  1.0000
  H   H2696     1.0  0.63557  0.25671  0.86066  1.0000
  C   C1588     1.0  0.64884  0.24414  0.67307  1.0000
  Fe  Fe235     1.0  0.61931  0.20818  0.52419  1.0000
  C   C1589     1.0  0.72206  0.24753  0.50753  1.0000
  C   C1590     1.0  0.63567  0.24975  0.91777  1.0000
  H   H2697     1.0  0.53956  0.30844  0.72045  1.0000
  H   H2698     1.0  0.67127  0.28830  0.67201  1.0000
  H   H2699     1.0  0.57809  0.21152  0.92810  1.0000
  H   H2700     1.0  0.73182  0.17968  0.50290  1.0000
  H   H2701     1.0  0.70523  0.21441  0.91781  1.0000
  H   H2702     1.0  0.71119  0.23523  0.59072  1.0000
  S   S467      1.0  0.57967  0.30769  0.71190  1.0000
  C   C1591     1.0  0.58445  0.14540  0.54132  1.0000
  H   H2703     1.0  0.71821  0.26450  0.87378  1.0000
  C   C1592     1.0  0.59907  0.13837  0.55203  1.0000
  C   C1593     1.0  0.69307  0.17006  0.54439  1.0000
  N   N111      1.0  0.55866  0.16788  0.71400  1.0000
  C   C1594     1.0  0.55985  0.18285  0.72147  1.0000
  C   C1595     1.0  0.57243  0.15256  0.71998  1.0000
  C   C1596     1.0  0.54041  0.16391  0.72118  1.0000
  C   C1597     1.0  0.56180  0.17348  0.69447  1.0000
  C   C1598     1.0  0.54568  0.19954  0.71860  1.0000
  C   C1599     1.0  0.59173  0.15442  0.71249  1.0000
  C   C1600     1.0  0.53798  0.14546  0.72162  1.0000
  C   C1601     1.0  0.56348  0.15956  0.68382  1.0000
  H   H2704     1.0  0.55912  0.17879  0.73577  1.0000
  H   H2705     1.0  0.57268  0.18700  0.71600  1.0000
  H   H2706     1.0  0.57130  0.14040  0.71674  1.0000
  H   H2707     1.0  0.57049  0.14972  0.73446  1.0000
  H   H2708     1.0  0.53579  0.16574  0.73492  1.0000
  H   H2709     1.0  0.53073  0.17316  0.71377  1.0000
  H   H2710     1.0  0.55088  0.18403  0.69052  1.0000
  H   H2711     1.0  0.57351  0.17971  0.68938  1.0000
  H   H2712     1.0  0.53217  0.19721  0.72415  1.0000
  H   H2713     1.0  0.54773  0.20913  0.72528  1.0000
  H   H2714     1.0  0.54682  0.20576  0.70466  1.0000
  H   H2715     1.0  0.60049  0.14241  0.71792  1.0000
  H   H2716     1.0  0.59502  0.15586  0.69814  1.0000
  H   H2717     1.0  0.59504  0.16532  0.71623  1.0000
  H   H2718     1.0  0.54300  0.14142  0.70892  1.0000
  H   H2719     1.0  0.52371  0.14520  0.72507  1.0000
  H   H2720     1.0  0.54409  0.13571  0.73183  1.0000
  H   H2721     1.0  0.55042  0.15908  0.68176  1.0000
  H   H2722     1.0  0.56991  0.14639  0.68952  1.0000
  H   H2723     1.0  0.57197  0.16297  0.67086  1.0000
  H   H2724     1.0  0.67985  0.28081  0.64365  1.0000
  H   H2725     1.0  0.52777  0.27505  0.70394  1.0000
  H   H2726     1.0  0.59698  0.11414  0.53475  1.0000
  H   H2727     1.0  0.70481  0.19833  0.93701  1.0000
  H   H2728     1.0  0.70339  0.20309  0.88933  1.0000
  C   C1602     1.0  0.62985  0.12885  0.56840  1.0000
  C   C1603     1.0  0.65707  0.15328  0.49799  1.0000
  H   H2729     1.0  0.68711  0.26201  0.54260  1.0000
  H   H2730     1.0  0.72580  0.24344  0.64076  1.0000
  H   H2731     1.0  0.69754  0.26343  0.64995  1.0000
  C   C1604     1.0  0.72076  0.17382  0.51155  1.0000
  H   H2732     1.0  0.69934  0.11991  0.48464  1.0000
  H   H2733     1.0  0.72485  0.23851  0.98068  1.0000
  C   C1605     1.0  0.74655  0.25574  0.51419  1.0000
  H   H2734     1.0  0.64316  0.23513  0.49537  1.0000
  C   C1606     1.0  0.57920  0.16950  0.90374  1.0000
  C   C1607     1.0  0.69458  0.23478  0.67435  1.0000
  C   C1608     1.0  0.74574  0.16288  0.89296  1.0000
  C   C1609     1.0  0.67977  0.27517  0.67170  1.0000
  C   C1610     1.0  0.62363  0.23256  0.48254  1.0000
  N   N112      1.0  0.59471  0.24534  0.79234  1.0000
  C   C1611     1.0  0.59873  0.26307  0.79034  1.0000
  C   C1612     1.0  0.61145  0.23328  0.78603  1.0000
  C   C1613     1.0  0.58766  0.23796  0.81107  1.0000
  C   C1614     1.0  0.58094  0.24713  0.78190  1.0000
  C   C1615     1.0  0.58396  0.27633  0.79910  1.0000
  C   C1616     1.0  0.61866  0.23692  0.76626  1.0000
  C   C1617     1.0  0.59949  0.23647  0.82404  1.0000
  C   C1618     1.0  0.57582  0.23010  0.78142  1.0000
  H   H2735     1.0  0.61072  0.26209  0.79542  1.0000
  H   H2736     1.0  0.60989  0.21950  0.79002  1.0000
  H   H2737     1.0  0.62220  0.23380  0.79226  1.0000
  H   H2738     1.0  0.57459  0.24570  0.81575  1.0000
  H   H2739     1.0  0.58517  0.22470  0.81245  1.0000
  H   H2740     1.0  0.57153  0.27853  0.79451  1.0000
  H   H2741     1.0  0.62193  0.25003  0.76160  1.0000
  H   H2742     1.0  0.60941  0.23540  0.75882  1.0000
  H   H2743     1.0  0.61227  0.22745  0.82125  1.0000
  H   H2744     1.0  0.59274  0.23105  0.83731  1.0000
  H   H2745     1.0  0.60186  0.24925  0.82449  1.0000
  H   H2746     1.0  0.58729  0.21950  0.77900  1.0000
  H   H2747     1.0  0.56905  0.23242  0.77038  1.0000
  N   N113      1.0  0.60016  0.21199  0.61576  1.0000
  C   C1619     1.0  0.60025  0.22849  0.62134  1.0000
  C   C1620     1.0  0.59701  0.21713  0.59738  1.0000
  C   C1621     1.0  0.61812  0.20052  0.61607  1.0000
  C   C1622     1.0  0.58605  0.20331  0.62836  1.0000
  C   C1623     1.0  0.60611  0.22604  0.63875  1.0000
  C   C1624     1.0  0.57998  0.23054  0.59471  1.0000
  C   C1625     1.0  0.62172  0.18341  0.60955  1.0000
  C   C1626     1.0  0.57897  0.19044  0.62189  1.0000
  H   H2748     1.0  0.60899  0.23637  0.61120  1.0000
  H   H2749     1.0  0.58689  0.23693  0.62277  1.0000
  H   H2750     1.0  0.59657  0.20584  0.59218  1.0000
  H   H2751     1.0  0.60818  0.22262  0.58840  1.0000
  H   H2752     1.0  0.62849  0.20787  0.60831  1.0000
  H   H2753     1.0  0.62073  0.19654  0.62951  1.0000
  H   H2754     1.0  0.59056  0.19632  0.64065  1.0000
  H   H2755     1.0  0.57431  0.21336  0.63215  1.0000
  H   H2756     1.0  0.62064  0.22224  0.63710  1.0000
  H   H2757     1.0  0.60209  0.23854  0.64331  1.0000
  H   H2758     1.0  0.59992  0.21639  0.64917  1.0000
  H   H2759     1.0  0.58105  0.24374  0.59546  1.0000
  H   H2760     1.0  0.57780  0.23146  0.58144  1.0000
  H   H2761     1.0  0.56823  0.22676  0.60409  1.0000
  H   H2762     1.0  0.63589  0.17737  0.60881  1.0000
  H   H2763     1.0  0.61925  0.18540  0.59629  1.0000
  H   H2764     1.0  0.61423  0.17393  0.61878  1.0000
  H   H2765     1.0  0.57580  0.17965  0.63289  1.0000
  H   H2766     1.0  0.58787  0.18437  0.61129  1.0000
  H   H2767     1.0  0.56632  0.19700  0.61784  1.0000
  H   H2768     1.0  0.60748  0.12940  0.79399  1.0000
  H   H2769     1.0  0.50667  0.20009  0.75126  1.0000
  H   H2770     1.0  0.59666  0.15217  0.78915  1.0000
  S   S468      1.0  0.60873  0.22607  0.50161  1.0000
  C   C1627     1.0  0.72284  0.18896  0.91484  1.0000
  H   H2771     1.0  0.72002  0.17568  0.91788  1.0000
  N   N114      1.0  0.72929  0.19425  0.89557  1.0000
  H   H2772     1.0  0.61180  0.08452  0.53618  1.0000
  H   H2773     1.0  0.71580  0.24605  0.49725  1.0000
  C   C1628     1.0  0.64849  0.31037  0.64743  1.0000
  H   H2774     1.0  0.69305  0.18760  0.56148  1.0000
  H   H2775     1.0  0.62840  0.25325  0.93042  1.0000
  H   H2776     1.0  0.59678  0.10454  0.55667  1.0000
  C   C1629     1.0  0.62733  0.16544  0.77858  1.0000
  H   H2777     1.0  0.67304  0.28922  0.49678  1.0000
  C   C1630     1.0  0.68360  0.13336  0.50473  1.0000
  H   H2778     1.0  0.73674  0.24987  0.96120  1.0000
  H   H2779     1.0  0.63756  0.12151  0.57852  1.0000
  S   S469      1.0  0.52520  0.27510  0.88338  1.0000
  H   H2780     1.0  0.68325  0.16367  0.55459  1.0000
  H   H2781     1.0  0.65765  0.13607  0.78488  1.0000
  Fe  Fe236     1.0  0.74062  0.30896  0.90000  1.0000
  N   N115      1.0  0.51154  0.27850  0.73829  1.0000
  N   N116      1.0  0.61350  0.12355  0.54676  1.0000
  C   C1631     1.0  0.55011  0.27362  0.92785  1.0000
  N   N117      1.0  0.66778  0.30172  0.51882  1.0000
  H   H2782     1.0  0.63205  0.13027  0.50306  1.0000
  C   C1632     1.0  0.68181  0.28784  0.52650  1.0000
  H   H2783     1.0  0.67734  0.19543  0.54778  1.0000
  H   H2784     1.0  0.68984  0.27426  0.67941  1.0000
  H   H2785     1.0  0.68769  0.24695  0.69618  1.0000
  H   H2786     1.0  0.69758  0.22073  0.68034  1.0000
  H   H2787     1.0  0.66429  0.27173  0.54567  1.0000
  H   H2788     1.0  0.60989  0.12935  0.51243  1.0000
  H   H2789     1.0  0.58807  0.28909  0.79575  1.0000
  H   H2790     1.0  0.66788  0.28439  0.70269  1.0000
  H   H2791     1.0  0.69024  0.23502  0.66235  1.0000
  H   H2792     1.0  0.67031  0.26227  0.71534  1.0000
  H   H2793     1.0  0.57603  0.13583  0.54306  1.0000
  C   C1633     1.0  0.68934  0.27601  0.65254  1.0000
  H   H2794     1.0  0.56688  0.22558  0.79367  1.0000
  C   C1634     1.0  0.54256  0.18637  0.91974  1.0000
  H   H2795     1.0  0.60674  0.16750  0.88969  1.0000
  H   H2796     1.0  0.66902  0.25547  0.65474  1.0000
  H   H2797     1.0  0.55784  0.20407  0.93866  1.0000
  C   C1635     1.0  0.61903  0.09349  0.53862  1.0000
  H   H2798     1.0  0.61912  0.13554  0.81713  1.0000
  H   H2799     1.0  0.60152  0.19340  0.89789  1.0000
  H   H2800     1.0  0.57194  0.16041  0.91400  1.0000
  C   C1636     1.0  0.73804  0.24721  0.63234  1.0000
  H   H2801     1.0  0.59081  0.13886  0.80987  1.0000
  H   H2802     1.0  0.69240  0.20485  0.64047  1.0000
  S   S470      1.0  0.57840  0.28883  0.95508  1.0000
  S   S471      1.0  0.69239  0.24059  0.62532  1.0000
  H   H2803     1.0  0.64219  0.12332  0.79764  1.0000
  C   C1637     1.0  0.69930  0.20562  0.62708  1.0000
  C   C1638     1.0  0.68041  0.24444  0.68729  1.0000
  C   C1639     1.0  0.70768  0.25728  0.87823  1.0000
  H   H2804     1.0  0.58463  0.21139  0.90041  1.0000
  C   C1640     1.0  0.50279  0.28104  0.72309  1.0000
  C   C1641     1.0  0.70738  0.21387  0.96990  1.0000
  C   C1642     1.0  0.70086  0.22182  0.61636  1.0000
  C   C1643     1.0  0.73924  0.24482  0.61368  1.0000
  C   C1644     1.0  0.72818  0.30734  0.53559  1.0000
  H   H2805     1.0  0.65252  0.26648  0.86254  1.0000
  C   C1645     1.0  0.70989  0.22273  0.59905  1.0000
  S   S472      1.0  0.53300  0.23282  0.88431  1.0000
  H   H2806     1.0  0.70520  0.17784  0.62888  1.0000
  H   H2807     1.0  0.71546  0.20964  0.95775  1.0000
  H   H2808     1.0  0.61118  0.23271  0.96848  1.0000
  C   C1646     1.0  0.70655  0.19034  0.62054  1.0000
  H   H2809     1.0  0.65547  0.28288  0.51371  1.0000
  Fe  Fe237     1.0  0.49742  0.22541  0.67253  1.0000
  C   C1647     1.0  0.53867  0.25329  0.82420  1.0000
  N   N118      1.0  0.57556  0.18703  0.90871  1.0000
  N   N119      1.0  0.66909  0.26109  0.67978  1.0000
  C   C1648     1.0  0.66149  0.27299  0.70832  1.0000
  C   C1649     1.0  0.57238  0.20017  0.93579  1.0000
  H   H2810     1.0  0.68841  0.17179  0.53210  1.0000
  H   H2811     1.0  0.61460  0.10916  0.57311  1.0000
  H   H2812     1.0  0.62819  0.30083  0.66811  1.0000
  H   H2813     1.0  0.57246  0.17356  0.93579  1.0000
  C   C1650     1.0  0.65508  0.26713  0.69457  1.0000
  C   C1651     1.0  0.65978  0.25858  0.66673  1.0000
  H   H2814     1.0  0.64523  0.27831  0.68948  1.0000
  H   H2815     1.0  0.67233  0.23505  0.69597  1.0000
  H   H2816     1.0  0.64986  0.27725  0.71822  1.0000
  C   C1652     1.0  0.72069  0.19590  0.86639  1.0000
  C   C1653     1.0  0.54238  0.30857  0.76098  1.0000
  C   C1654     1.0  0.55377  0.25544  0.93252  1.0000
  S   S473      1.0  0.54545  0.26299  0.83792  1.0000
  C   C1655     1.0  0.62859  0.27118  0.88207  1.0000
  H   H2817     1.0  0.65088  0.27096  0.66218  1.0000
  H   H2818     1.0  0.68998  0.29368  0.93945  1.0000
  H   H2819     1.0  0.64762  0.25676  0.70187  1.0000
  C   C1656     1.0  0.58799  0.24959  0.89624  1.0000
  H   H2820     1.0  0.61235  0.24178  0.91774  1.0000
  C   C1657     1.0  0.57267  0.25747  0.95135  1.0000
  S   S474      1.0  0.66464  0.15113  0.52988  1.0000
  H   H2821     1.0  0.54144  0.27996  0.91882  1.0000
  H   H2822     1.0  0.71660  0.21110  0.97897  1.0000
  H   H2823     1.0  0.61586  0.27144  0.62797  1.0000
  C   C1658     1.0  0.71596  0.19114  0.60343  1.0000
  H   H2824     1.0  0.56742  0.29013  0.62527  1.0000
  H   H2825     1.0  0.56792  0.23345  0.94811  1.0000
  C   C1659     1.0  0.50446  0.12045  0.76657  1.0000
  C   C1660     1.0  0.69961  0.25438  0.89584  1.0000
  C   C1661     1.0  0.53121  0.25500  0.79645  1.0000
  C   C1662     1.0  0.56508  0.24747  0.94431  1.0000
  C   C1663     1.0  0.57839  0.29709  0.61873  1.0000
  H   H2826     1.0  0.65822  0.30628  0.54505  1.0000
  H   H2827     1.0  0.62713  0.13195  0.77024  1.0000
  S   S475      1.0  0.61591  0.18048  0.52926  1.0000
  H   H2828     1.0  0.63490  0.10585  0.55803  1.0000
  H   H2829     1.0  0.61294  0.19171  0.77092  1.0000
  H   H2830     1.0  0.67533  0.26281  0.52637  1.0000
  H   H2831     1.0  0.57300  0.30329  0.64426  1.0000
  H   H2832     1.0  0.65352  0.16272  0.79412  1.0000
  S   S476      1.0  0.62744  0.27278  0.95867  1.0000
  H   H2833     1.0  0.73858  0.22694  0.96411  1.0000
  C   C1664     1.0  0.53581  0.26281  0.80787  1.0000
  H   H2834     1.0  0.67965  0.24275  0.91504  1.0000
  H   H2835     1.0  0.68880  0.29630  0.91718  1.0000
  H   H2836     1.0  0.65707  0.15112  0.82380  1.0000
  H   H2837     1.0  0.62417  0.18970  0.78791  1.0000
  H   H2838     1.0  0.59052  0.23901  0.90753  1.0000
  H   H2839     1.0  0.58130  0.25112  0.96043  1.0000
  S   S477      1.0  0.64744  0.20146  0.52739  1.0000
  S   S478      1.0  0.70674  0.26115  0.91147  1.0000
  H   H2840     1.0  0.59977  0.20412  0.86909  1.0000
  H   H2841     1.0  0.54401  0.25116  0.74298  1.0000
  H   H2842     1.0  0.57563  0.15687  0.54625  1.0000
  H   H2843     1.0  0.63924  0.12034  0.52955  1.0000
  H   H2844     1.0  0.60403  0.18142  0.79232  1.0000
  H   H2845     1.0  0.64806  0.24724  0.87769  1.0000
  H   H2846     1.0  0.60071  0.26652  0.87458  1.0000
  C   C1665     1.0  0.66162  0.29420  0.50658  1.0000
  H   H2847     1.0  0.61318  0.24507  0.87951  1.0000
  C   C1666     1.0  0.60565  0.10937  0.54437  1.0000
  H   H2848     1.0  0.61972  0.28213  0.91899  1.0000
  N   N120      1.0  0.63182  0.15124  0.79380  1.0000
  H   H2849     1.0  0.51426  0.28935  0.83944  1.0000
  N   N121      1.0  0.73854  0.25483  0.49949  1.0000
  C   C1667     1.0  0.60977  0.28854  0.91091  1.0000
  H   H2850     1.0  0.60431  0.15785  0.91263  1.0000
  H   H2851     1.0  0.62208  0.28270  0.87348  1.0000
  C   C1668     1.0  0.55762  0.28364  0.93499  1.0000
  C   C1669     1.0  0.64349  0.13529  0.78744  1.0000
  C   C1670     1.0  0.61650  0.18296  0.78299  1.0000
  H   H2852     1.0  0.65715  0.13276  0.81519  1.0000
  H   H2853     1.0  0.71221  0.22431  0.52240  1.0000
  N   N122      1.0  0.61491  0.26252  0.89536  1.0000
  H   H2854     1.0  0.59227  0.28373  0.89747  1.0000
  H   H2855     1.0  0.53732  0.27618  0.80390  1.0000
  H   H2856     1.0  0.59434  0.26871  0.91730  1.0000
  S   S479      1.0  0.50050  0.25825  0.86719  1.0000
  H   H2857     1.0  0.60857  0.15756  0.81305  1.0000
  C   C1671     1.0  0.62292  0.24702  0.90762  1.0000
  C   C1672     1.0  0.71547  0.19313  0.88638  1.0000
  H   H2858     1.0  0.61725  0.14936  0.50917  1.0000
  C   C1673     1.0  0.64200  0.15799  0.80328  1.0000
  S   S480      1.0  0.72799  0.29164  0.92312  1.0000
  Fe  Fe238     1.0  0.52903  0.25752  0.86467  1.0000
  C   C1674     1.0  0.64096  0.13167  0.77040  1.0000
  H   H2859     1.0  0.61376  0.29620  0.60960  1.0000
  Fe  Fe239     1.0  0.72999  0.27432  0.90466  1.0000
  H   H2860     1.0  0.62958  0.23588  0.90105  1.0000
  H   H2861     1.0  0.64520  0.23736  0.92058  1.0000
  S   S481      1.0  0.71427  0.15982  0.96478  1.0000
  C   C1675     1.0  0.62314  0.11590  0.56167  1.0000
  H   H2862     1.0  0.59894  0.29638  0.91900  1.0000
  H   H2863     1.0  0.55462  0.29768  0.93138  1.0000
  H   H2864     1.0  0.59558  0.31371  0.66834  1.0000
  H   H2865     1.0  0.63874  0.13610  0.55801  1.0000
  H   H2866     1.0  0.63383  0.16935  0.80883  1.0000
  H   H2867     1.0  0.63789  0.14200  0.82981  1.0000
  C   C1676     1.0  0.68041  0.18791  0.48740  1.0000
  S   S482      1.0  0.54515  0.24207  0.92357  1.0000
  H   H2868     1.0  0.64860  0.11854  0.76863  1.0000
  H   H2869     1.0  0.64389  0.25936  0.91062  1.0000
  H   H2870     1.0  0.62588  0.30695  0.61724  1.0000
  S   S483      1.0  0.74701  0.09982  0.49789  1.0000
  H   H2871     1.0  0.67763  0.22671  0.95887  1.0000
  H   H2872     1.0  0.63960  0.16824  0.76928  1.0000
  H   H2873     1.0  0.53852  0.27854  0.72416  1.0000
  S   S484      1.0  0.72553  0.17172  0.59587  1.0000
  C   C1677     1.0  0.51390  0.27362  0.70707  1.0000
  C   C1678     1.0  0.50429  0.29574  0.83144  1.0000
  H   H2874     1.0  0.70864  0.18396  0.51100  1.0000
  H   H2875     1.0  0.73163  0.18553  0.86199  1.0000
  H   H2876     1.0  0.73522  0.21731  0.91558  1.0000
  H   H2877     1.0  0.52114  0.30783  0.71214  1.0000
  C   C1679     1.0  0.68271  0.30157  0.92916  1.0000
  H   H2878     1.0  0.74509  0.14666  0.55444  1.0000
  H   H2879     1.0  0.72636  0.23045  0.53265  1.0000
  H   H2880     1.0  0.49709  0.29500  0.71862  1.0000
  H   H2881     1.0  0.73961  0.21550  0.87702  1.0000
  H   H2882     1.0  0.66909  0.31602  0.90080  1.0000
  C   C1680     1.0  0.64780  0.30635  0.49651  1.0000
  C   C1681     1.0  0.58098  0.30761  0.63123  1.0000
  S   S485      1.0  0.65016  0.30806  0.96693  1.0000
  Fe  Fe240     1.0  0.50369  0.23510  0.88873  1.0000
  H   H2883     1.0  0.73533  0.25816  0.57874  1.0000
  H   H2884     1.0  0.67063  0.18406  0.49925  1.0000
  C   C1682     1.0  0.73313  0.27310  0.48966  1.0000
  H   H2885     1.0  0.74006  0.29531  0.51348  1.0000
  N   N123      1.0  0.59962  0.30684  0.63269  1.0000
  H   H2886     1.0  0.49975  0.17777  0.74126  1.0000
  H   H2887     1.0  0.66906  0.29943  0.93354  1.0000
  H   H2888     1.0  0.70927  0.19533  0.86122  1.0000
  H   H2889     1.0  0.73376  0.25780  0.60651  1.0000
  H   H2890     1.0  0.74465  0.23102  0.89657  1.0000
  H   H2891     1.0  0.69149  0.17659  0.48655  1.0000
  C   C1683     1.0  0.74264  0.21747  0.90203  1.0000
  H   H2892     1.0  0.73770  0.26102  0.63240  1.0000
  H   H2893     1.0  0.74465  0.27901  0.48258  1.0000
  H   H2894     1.0  0.70262  0.31582  0.89434  1.0000
  H   H2895     1.0  0.68482  0.19908  0.48948  1.0000
  H   H2896     1.0  0.50310  0.30738  0.85957  1.0000
  H   H2897     1.0  0.63493  0.30946  0.50530  1.0000
  H   H2898     1.0  0.74358  0.23644  0.48234  1.0000
  H   H2899     1.0  0.73541  0.14072  0.57681  1.0000
  H   H2900     1.0  0.70773  0.27456  0.48290  1.0000
  C   C1684     1.0  0.69440  0.20139  0.97829  1.0000
  H   H2901     1.0  0.49981  0.20354  0.79125  1.0000
  H   H2902     1.0  0.73588  0.16072  0.88662  1.0000
  H   H2903     1.0  0.74322  0.15682  0.90697  1.0000
  H   H2904     1.0  0.65213  0.31835  0.48853  1.0000
  C   C1685     1.0  0.63959  0.23648  0.48300  1.0000
  C   C1686     1.0  0.74649  0.18227  0.89027  1.0000
  H   H2905     1.0  0.74594  0.20553  0.61196  1.0000
  H   H2906     1.0  0.74673  0.22663  0.58817  1.0000
  C   C1687     1.0  0.66081  0.14876  0.48157  1.0000
  Fe  Fe241     1.0  0.62955  0.25027  0.98121  1.0000
  H   H2907     1.0  0.73185  0.40553  0.02245  1.0000
  Fe  Fe242     1.0  0.68557  0.57438  0.25700  1.0000
  S   S486      1.0  0.69491  0.58556  0.22897  1.0000
  S   S487      1.0  0.69972  0.54674  0.26520  1.0000
  Fe  Fe243     1.0  0.65566  0.60593  0.26115  1.0000
  S   S488      1.0  0.66251  0.61924  0.23326  1.0000
  S   S489      1.0  0.63163  0.61762  0.27912  1.0000
  Fe  Fe244     1.0  0.66647  0.59278  0.22741  1.0000
  S   S490      1.0  0.65598  0.58802  0.20617  1.0000
  Fe  Fe245     1.0  0.69019  0.61080  0.23759  1.0000
  H   H2908     1.0  0.68457  0.33872  0.98722  1.0000
  S   S491      1.0  0.65723  0.57994  0.25486  1.0000
  S   S492      1.0  0.68331  0.59918  0.26604  1.0000
  H   H2909     1.0  0.60375  0.37622  0.00207  1.0000
  S   S493      1.0  0.72137  0.34602  0.02817  1.0000
  H   H2910     1.0  0.68893  0.33082  0.05188  1.0000
  Fe  Fe246     1.0  0.71008  0.37448  0.02001  1.0000
  S   S494      1.0  0.70105  0.39027  0.04164  1.0000
  Fe  Fe247     1.0  0.70364  0.34110  0.01305  1.0000
  H   H2911     1.0  0.66313  0.34426  0.04625  1.0000
  H   H2912     1.0  0.71377  0.42285  0.20892  1.0000
  H   H2913     1.0  0.74104  0.42956  0.40566  1.0000
  H   H2914     1.0  0.56826  0.54300  0.18937  1.0000
  H   H2915     1.0  0.73754  0.45965  0.14829  1.0000
  H   H2916     1.0  0.64485  0.47031  0.06702  1.0000
  H   H2917     1.0  0.74113  0.35372  0.12423  1.0000
  H   H2918     1.0  0.70157  0.35180  0.07040  1.0000
  N   N124      1.0  0.67268  0.46145  0.05720  1.0000
  C   C1688     1.0  0.62750  0.35057  0.98424  1.0000
  H   H2919     1.0  0.67448  0.47427  0.02987  1.0000
  H   H2920     1.0  0.74555  0.54748  0.14823  1.0000
  C   C1689     1.0  0.66603  0.34619  0.36180  1.0000
  H   H2921     1.0  0.65548  0.45065  0.09306  1.0000
  C   C1690     1.0  0.73103  0.59016  0.27340  1.0000
  Fe  Fe248     1.0  0.69800  0.46721  0.10911  1.0000
  S   S495      1.0  0.71403  0.48009  0.08474  1.0000
  S   S496      1.0  0.66890  0.47197  0.11064  1.0000
  Fe  Fe249     1.0  0.71183  0.36995  0.98285  1.0000
  H   H2922     1.0  0.71147  0.32111  0.07255  1.0000
  S   S497      1.0  0.71109  0.62668  0.22607  1.0000
  S   S498      1.0  0.53058  0.61232  0.21652  1.0000
  S   S499      1.0  0.71352  0.44030  0.10741  1.0000
  S   S500      1.0  0.71291  0.47197  0.12702  1.0000
  Fe  Fe250     1.0  0.62760  0.48342  0.20313  1.0000
  S   S501      1.0  0.60990  0.48557  0.22908  1.0000
  S   S502      1.0  0.61858  0.47302  0.18430  1.0000
  Fe  Fe251     1.0  0.65441  0.49967  0.20995  1.0000
  S   S503      1.0  0.63893  0.50370  0.23619  1.0000
  S   S504      1.0  0.68006  0.50855  0.20218  1.0000
  Fe  Fe252     1.0  0.63475  0.47662  0.23954  1.0000
  S   S505      1.0  0.63696  0.45990  0.26590  1.0000
  Fe  Fe253     1.0  0.61559  0.51242  0.22343  1.0000
  S   S506      1.0  0.59344  0.53413  0.23123  1.0000
  S   S507      1.0  0.65205  0.47187  0.21409  1.0000
  S   S508      1.0  0.63147  0.51099  0.19665  1.0000
  Fe  Fe254     1.0  0.71105  0.39012  0.28380  1.0000
  S   S509      1.0  0.73440  0.40114  0.26784  1.0000
  S   S510      1.0  0.69050  0.38779  0.27036  1.0000
  Fe  Fe255     1.0  0.72216  0.38628  0.31821  1.0000
  H   H2923     1.0  0.68212  0.45391  0.24681  1.0000
  S   S511      1.0  0.71424  0.37827  0.34748  1.0000
  Fe  Fe256     1.0  0.72852  0.41710  0.28832  1.0000
  S   S512      1.0  0.72651  0.44601  0.28004  1.0000
  C   C1691     1.0  0.70032  0.32458  0.45133  1.0000
  H   H2924     1.0  0.64822  0.64436  0.25447  1.0000
  S   S513      1.0  0.70425  0.40730  0.30330  1.0000
  S   S514      1.0  0.72697  0.36818  0.29981  1.0000
  C   C1692     1.0  0.68965  0.46393  0.06025  1.0000
  H   H2925     1.0  0.70303  0.35406  0.14532  1.0000
  H   H2926     1.0  0.71986  0.33927  0.40962  1.0000
  C   C1693     1.0  0.74559  0.45075  0.15684  1.0000
  H   H2927     1.0  0.58463  0.49785  0.14285  1.0000
  H   H2928     1.0  0.64386  0.50206  0.05848  1.0000
  H   H2929     1.0  0.55610  0.58259  0.26335  1.0000
  C   C1694     1.0  0.68866  0.44814  0.03010  1.0000
  H   H2930     1.0  0.67888  0.44193  0.09149  1.0000
  C   C1695     1.0  0.71571  0.35584  0.35639  1.0000
  C   C1696     1.0  0.70714  0.35041  0.37356  1.0000
  C   C1697     1.0  0.72518  0.34336  0.34652  1.0000
  H   H2931     1.0  0.69991  0.35998  0.38135  1.0000
  C   C1698     1.0  0.72568  0.32560  0.35359  1.0000
  S   S515      1.0  0.74240  0.42487  0.14208  1.0000
  H   H2932     1.0  0.68888  0.45048  0.01593  1.0000
  C   C1699     1.0  0.58728  0.49981  0.15499  1.0000
  C   C1700     1.0  0.65074  0.43925  0.26686  1.0000
  C   C1701     1.0  0.65724  0.43152  0.25223  1.0000
  C   C1702     1.0  0.66893  0.41531  0.25344  1.0000
  C   C1703     1.0  0.67448  0.40710  0.26913  1.0000
  C   C1704     1.0  0.66762  0.41468  0.28375  1.0000
  C   C1705     1.0  0.65564  0.43058  0.28269  1.0000
  H   H2933     1.0  0.65322  0.43799  0.24006  1.0000
  H   H2934     1.0  0.67403  0.40938  0.24213  1.0000
  H   H2935     1.0  0.67142  0.40823  0.29597  1.0000
  H   H2936     1.0  0.65036  0.43631  0.29411  1.0000
  H   H2937     1.0  0.73159  0.60411  0.27121  1.0000
  C   C1706     1.0  0.65560  0.47200  0.13147  1.0000
  C   C1707     1.0  0.63872  0.46856  0.13441  1.0000
  C   C1708     1.0  0.62765  0.46855  0.15078  1.0000
  C   C1709     1.0  0.63319  0.47248  0.16420  1.0000
  C   C1710     1.0  0.65003  0.47611  0.16131  1.0000
  C   C1711     1.0  0.66133  0.47568  0.14496  1.0000
  H   H2938     1.0  0.63424  0.46570  0.12405  1.0000
  H   H2939     1.0  0.61472  0.46560  0.15301  1.0000
  H   H2940     1.0  0.65436  0.47918  0.17164  1.0000
  H   H2941     1.0  0.67429  0.47854  0.14272  1.0000
  C   C1712     1.0  0.57140  0.57897  0.19067  1.0000
  C   C1713     1.0  0.56067  0.57317  0.20646  1.0000
  C   C1714     1.0  0.56752  0.55914  0.21860  1.0000
  C   C1715     1.0  0.58512  0.55063  0.21497  1.0000
  C   C1716     1.0  0.59584  0.55612  0.19900  1.0000
  C   C1717     1.0  0.58894  0.57023  0.18682  1.0000
  C   C1718     1.0  0.65671  0.33101  0.07384  1.0000
  H   H2942     1.0  0.55916  0.55491  0.23090  1.0000
  H   H2943     1.0  0.60954  0.54982  0.19624  1.0000
  H   H2944     1.0  0.59731  0.57470  0.17463  1.0000
  C   C1719     1.0  0.65744  0.47510  0.06369  1.0000
  C   C1720     1.0  0.56274  0.55316  0.16382  1.0000
  H   H2945     1.0  0.73225  0.34735  0.33348  1.0000
  C   C1721     1.0  0.63009  0.32517  0.01952  1.0000
  H   H2946     1.0  0.70103  0.45788  0.25292  1.0000
  H   H2947     1.0  0.66510  0.39316  0.32483  1.0000
  H   H2948     1.0  0.63024  0.35833  0.01501  1.0000
  C   C1722     1.0  0.68388  0.34196  0.31358  1.0000
  C   C1723     1.0  0.73945  0.38448  0.38043  1.0000
  H   H2949     1.0  0.71913  0.56053  0.31225  1.0000
  S   S516      1.0  0.74337  0.60127  0.15541  1.0000
  C   C1724     1.0  0.66934  0.44388  0.06754  1.0000
  C   C1725     1.0  0.71373  0.40266  0.04705  1.0000
  C   C1726     1.0  0.72771  0.40906  0.03512  1.0000
  H   H2950     1.0  0.73647  0.51104  0.17101  1.0000
  C   C1727     1.0  0.73042  0.42580  0.05550  1.0000
  C   C1728     1.0  0.71687  0.41887  0.06765  1.0000
  C   C1729     1.0  0.70862  0.40737  0.06345  1.0000
  H   H2951     1.0  0.72647  0.40678  0.39352  1.0000
  C   C1730     1.0  0.69489  0.44798  0.25081  1.0000
  H   H2952     1.0  0.71241  0.42269  0.08013  1.0000
  H   H2953     1.0  0.69791  0.40241  0.07282  1.0000
  H   H2954     1.0  0.64674  0.36412  0.33631  1.0000
  H   H2955     1.0  0.70762  0.60948  0.17351  1.0000
  C   C1731     1.0  0.73488  0.38658  0.10680  1.0000
  C   C1732     1.0  0.65424  0.34663  0.05868  1.0000
  C   C1733     1.0  0.60345  0.37245  0.01624  1.0000
  C   C1734     1.0  0.70278  0.33209  0.31495  1.0000
  C   C1735     1.0  0.72281  0.43098  0.20978  1.0000
  H   H2956     1.0  0.74528  0.40949  0.20796  1.0000
  H   H2957     1.0  0.66410  0.42805  0.09348  1.0000
  H   H2958     1.0  0.61895  0.52831  0.15515  1.0000
  H   H2959     1.0  0.70078  0.32850  0.39379  1.0000
  H   H2960     1.0  0.60394  0.54737  0.16114  1.0000
  C   C1736     1.0  0.67344  0.46140  0.03837  1.0000
  H   H2961     1.0  0.69464  0.36299  0.33115  1.0000
  C   C1737     1.0  0.66682  0.44127  0.08748  1.0000
  H   H2962     1.0  0.63740  0.37353  0.30936  1.0000
  H   H2963     1.0  0.50965  0.63747  0.25373  1.0000
  C   C1738     1.0  0.66271  0.56594  0.20503  1.0000
  C   C1739     1.0  0.65518  0.55892  0.19515  1.0000
  C   C1740     1.0  0.66059  0.54126  0.19421  1.0000
  C   C1741     1.0  0.67386  0.53073  0.20276  1.0000
  C   C1742     1.0  0.68157  0.53780  0.21240  1.0000
  C   C1743     1.0  0.67576  0.55529  0.21380  1.0000
  H   H2964     1.0  0.64508  0.56709  0.18834  1.0000
  H   H2965     1.0  0.65470  0.53588  0.18661  1.0000
  H   H2966     1.0  0.69176  0.52972  0.21912  1.0000
  H   H2967     1.0  0.68143  0.56047  0.22169  1.0000
  C   C1744     1.0  0.71209  0.54241  0.28146  1.0000
  C   C1745     1.0  0.71006  0.55447  0.29188  1.0000
  C   C1746     1.0  0.72062  0.55109  0.30429  1.0000
  H   H2968     1.0  0.65174  0.35103  0.36236  1.0000
  H   H2969     1.0  0.70781  0.32737  0.47418  1.0000
  C   C1747     1.0  0.72437  0.52675  0.28378  1.0000
  H   H2970     1.0  0.70033  0.56638  0.29039  1.0000
  C   C1748     1.0  0.73416  0.61050  0.17389  1.0000
  C   C1749     1.0  0.71603  0.61273  0.18032  1.0000
  C   C1750     1.0  0.65506  0.35698  0.32618  1.0000
  H   H2971     1.0  0.73162  0.34301  0.45741  1.0000
  H   H2972     1.0  0.72220  0.59420  0.24938  1.0000
  S   S517      1.0  0.69053  0.36910  0.00696  1.0000
  C   C1751     1.0  0.71955  0.62254  0.20504  1.0000
  H   H2973     1.0  0.74439  0.51128  0.29796  1.0000
  H   H2974     1.0  0.68619  0.37302  0.31205  1.0000
  H   H2975     1.0  0.71509  0.34131  0.12957  1.0000
  H   H2976     1.0  0.70272  0.31968  0.32463  1.0000
  C   C1752     1.0  0.70878  0.61840  0.19607  1.0000
  H   H2977     1.0  0.69486  0.61936  0.20136  1.0000
  C   C1753     1.0  0.59766  0.33449  0.02803  1.0000
  H   H2978     1.0  0.72601  0.51739  0.27571  1.0000
  C   C1754     1.0  0.59601  0.52263  0.17487  1.0000
  H   H2979     1.0  0.70014  0.45215  0.05921  1.0000
  C   C1755     1.0  0.57473  0.51635  0.16020  1.0000
  H   H2980     1.0  0.70471  0.51462  0.14706  1.0000
  H   H2981     1.0  0.65834  0.37964  0.30452  1.0000
  H   H2982     1.0  0.56099  0.51450  0.16206  1.0000
  H   H2983     1.0  0.55392  0.56465  0.16868  1.0000
  C   C1756     1.0  0.50339  0.63156  0.26700  1.0000
  H   H2984     1.0  0.68690  0.43452  0.03542  1.0000
  H   H2985     1.0  0.57622  0.52683  0.14852  1.0000
  C   C1757     1.0  0.74632  0.46758  0.28328  1.0000
  S   S518      1.0  0.56303  0.59702  0.17567  1.0000
  H   H2986     1.0  0.58431  0.51315  0.21082  1.0000
  H   H2987     1.0  0.55635  0.55034  0.15440  1.0000
  H   H2988     1.0  0.56085  0.52130  0.21296  1.0000
  C   C1758     1.0  0.72748  0.34181  0.43243  1.0000
  C   C1759     1.0  0.54281  0.65036  0.25149  1.0000
  C   C1760     1.0  0.57181  0.51049  0.20959  1.0000
  H   H2989     1.0  0.73103  0.37624  0.10258  1.0000
  H   H2990     1.0  0.73034  0.52706  0.14455  1.0000
  H   H2991     1.0  0.57530  0.55725  0.15717  1.0000
  S   S519      1.0  0.51731  0.63225  0.18009  1.0000
  H   H2992     1.0  0.67659  0.33217  0.31276  1.0000
  C   C1761     1.0  0.57281  0.50693  0.19143  1.0000
  C   C1762     1.0  0.56464  0.53791  0.17944  1.0000
  C   C1763     1.0  0.68226  0.36720  0.32608  1.0000
  S   S520      1.0  0.73925  0.50839  0.09893  1.0000
  S   S521      1.0  0.73007  0.37833  0.99504  1.0000
  H   H2993     1.0  0.54698  0.57933  0.20926  1.0000
  H   H2994     1.0  0.55991  0.50385  0.19166  1.0000
  H   H2995     1.0  0.56939  0.49870  0.21957  1.0000
  N   N125      1.0  0.67928  0.49148  0.28754  1.0000
  C   C1764     1.0  0.69116  0.50145  0.29126  1.0000
  C   C1765     1.0  0.68558  0.48967  0.26877  1.0000
  C   C1766     1.0  0.68167  0.47368  0.29913  1.0000
  C   C1767     1.0  0.66051  0.50125  0.29137  1.0000
  C   C1768     1.0  0.68860  0.50315  0.31036  1.0000
  C   C1769     1.0  0.68544  0.50690  0.25529  1.0000
  C   C1770     1.0  0.67140  0.46079  0.29707  1.0000
  C   C1771     1.0  0.64725  0.49771  0.28222  1.0000
  H   H2996     1.0  0.70525  0.49550  0.28709  1.0000
  H   H2997     1.0  0.68936  0.51499  0.28364  1.0000
  H   H2998     1.0  0.67787  0.48220  0.26485  1.0000
  H   H2999     1.0  0.69931  0.48197  0.26679  1.0000
  H   H3000     1.0  0.69585  0.46729  0.29725  1.0000
  H   H3001     1.0  0.67754  0.47463  0.31309  1.0000
  H   H3002     1.0  0.65510  0.49872  0.30562  1.0000
  H   H3003     1.0  0.66008  0.51555  0.28753  1.0000
  H   H3004     1.0  0.67466  0.50790  0.31609  1.0000
  H   H3005     1.0  0.69396  0.49071  0.31852  1.0000
  H   H3006     1.0  0.69614  0.51280  0.31089  1.0000
  H   H3007     1.0  0.69658  0.51293  0.25499  1.0000
  H   H3008     1.0  0.68705  0.50418  0.24212  1.0000
  H   H3009     1.0  0.67295  0.51643  0.25763  1.0000
  H   H3010     1.0  0.65705  0.46491  0.30165  1.0000
  H   H3011     1.0  0.67548  0.44795  0.30539  1.0000
  H   H3012     1.0  0.67420  0.45849  0.28365  1.0000
  H   H3013     1.0  0.63437  0.49763  0.29137  1.0000
  H   H3014     1.0  0.65083  0.48521  0.27779  1.0000
  H   H3015     1.0  0.64464  0.50851  0.27108  1.0000
  N   N126      1.0  0.59828  0.58570  0.23846  1.0000
  C   C1772     1.0  0.59293  0.59386  0.22113  1.0000
  C   C1773     1.0  0.58342  0.57744  0.25008  1.0000
  C   C1774     1.0  0.61469  0.57189  0.23541  1.0000
  C   C1775     1.0  0.60172  0.59998  0.24539  1.0000
  C   C1776     1.0  0.60758  0.59977  0.20596  1.0000
  C   C1777     1.0  0.56562  0.58995  0.25389  1.0000
  C   C1778     1.0  0.61912  0.55769  0.25119  1.0000
  C   C1779     1.0  0.60451  0.59574  0.26429  1.0000
  H   H3016     1.0  0.58750  0.58469  0.21675  1.0000
  H   H3017     1.0  0.58212  0.60548  0.22219  1.0000
  H   H3018     1.0  0.58657  0.57032  0.26284  1.0000
  H   H3019     1.0  0.58124  0.56722  0.24429  1.0000
  H   H3020     1.0  0.61387  0.56468  0.22561  1.0000
  H   H3021     1.0  0.62642  0.57795  0.22982  1.0000
  H   H3022     1.0  0.61369  0.60467  0.23727  1.0000
  H   H3023     1.0  0.59111  0.61180  0.24410  1.0000
  H   H3024     1.0  0.60164  0.60673  0.19447  1.0000
  H   H3025     1.0  0.61424  0.60878  0.20905  1.0000
  H   H3026     1.0  0.61754  0.58851  0.20190  1.0000
  H   H3027     1.0  0.69038  0.52975  0.15958  1.0000
  H   H3028     1.0  0.56665  0.60057  0.25978  1.0000
  H   H3029     1.0  0.55993  0.59546  0.24204  1.0000
  H   H3030     1.0  0.61952  0.56303  0.26236  1.0000
  H   H3031     1.0  0.63239  0.54978  0.24728  1.0000
  H   H3032     1.0  0.60982  0.54860  0.25526  1.0000
  H   H3033     1.0  0.61865  0.59103  0.26478  1.0000
  H   H3034     1.0  0.59689  0.58636  0.27330  1.0000
  H   H3035     1.0  0.74654  0.42572  0.02985  1.0000
  H   H3036     1.0  0.58988  0.37151  0.02335  1.0000
  H   H3037     1.0  0.68181  0.36686  0.07515  1.0000
  C   C1780     1.0  0.67072  0.38247  0.33466  1.0000
  H   H3038     1.0  0.70157  0.42537  0.23937  1.0000
  C   C1781     1.0  0.73336  0.39306  0.39654  1.0000
  Fe  Fe257     1.0  0.54276  0.61760  0.18822  1.0000
  Fe  Fe258     1.0  0.73033  0.44634  0.12262  1.0000
  H   H3039     1.0  0.71037  0.33995  0.31847  1.0000
  H   H3040     1.0  0.73108  0.39895  0.09774  1.0000
  C   C1782     1.0  0.68801  0.32007  0.06331  1.0000
  H   H3041     1.0  0.73470  0.34548  0.14658  1.0000
  C   C1783     1.0  0.54605  0.64649  0.26837  1.0000
  H   H3042     1.0  0.69502  0.48317  0.03540  1.0000
  H   H3043     1.0  0.65748  0.44101  0.06478  1.0000
  H   H3044     1.0  0.73564  0.45117  0.22511  1.0000
  S   S522      1.0  0.74021  0.44145  0.05980  1.0000
  H   H3045     1.0  0.72124  0.48594  0.21335  1.0000
  N   N127      1.0  0.73079  0.37361  0.13986  1.0000
  C   C1784     1.0  0.65399  0.49285  0.05126  1.0000
  C   C1785     1.0  0.71769  0.37595  0.15649  1.0000
  C   C1786     1.0  0.73087  0.35635  0.13589  1.0000
  C   C1787     1.0  0.61686  0.35562  0.02108  1.0000
  H   H3046     1.0  0.71187  0.47640  0.04729  1.0000
  C   C1788     1.0  0.71835  0.39124  0.16437  1.0000
  H   H3047     1.0  0.72697  0.57240  0.25973  1.0000
  H   H3048     1.0  0.74401  0.37048  0.38545  1.0000
  H   H3049     1.0  0.71110  0.39098  0.12589  1.0000
  H   H3050     1.0  0.73110  0.38972  0.16821  1.0000
  H   H3051     1.0  0.71887  0.36391  0.16670  1.0000
  H   H3052     1.0  0.70400  0.37821  0.15442  1.0000
  H   H3053     1.0  0.65900  0.47779  0.07603  1.0000
  Fe  Fe259     1.0  0.74013  0.34964  0.00257  1.0000
  C   C1789     1.0  0.73054  0.56888  0.13342  1.0000
  H   H3054     1.0  0.64637  0.33471  0.08503  1.0000
  H   H3055     1.0  0.70824  0.36417  0.12252  1.0000
  C   C1790     1.0  0.72548  0.38852  0.12553  1.0000
  H   H3056     1.0  0.59996  0.35097  0.99579  1.0000
  H   H3057     1.0  0.55389  0.63404  0.27310  1.0000
  H   H3058     1.0  0.71554  0.40388  0.15535  1.0000
  C   C1791     1.0  0.61285  0.34247  0.99782  1.0000
  C   C1792     1.0  0.70348  0.32831  0.43314  1.0000
  H   H3059     1.0  0.58198  0.65115  0.25998  1.0000
  H   H3060     1.0  0.72787  0.40086  0.12743  1.0000
  C   C1793     1.0  0.67878  0.32733  0.99001  1.0000
  H   H3061     1.0  0.58605  0.34492  0.02561  1.0000
  C   C1794     1.0  0.74486  0.61515  0.18259  1.0000
  C   C1795     1.0  0.60479  0.53430  0.15856  1.0000
  C   C1796     1.0  0.71015  0.33026  0.46013  1.0000
  N   N128      1.0  0.71289  0.44523  0.21968  1.0000
  H   H3062     1.0  0.72754  0.38497  0.37539  1.0000
  C   C1797     1.0  0.69679  0.45387  0.21200  1.0000
  C   C1798     1.0  0.70763  0.43666  0.23846  1.0000
  C   C1799     1.0  0.72490  0.45758  0.21780  1.0000
  H   H3063     1.0  0.72961  0.56084  0.23747  1.0000
  C   C1800     1.0  0.70038  0.46315  0.19272  1.0000
  H   H3064     1.0  0.67231  0.35618  0.36370  1.0000
  Fe  Fe260     1.0  0.73035  0.48292  0.10254  1.0000
  H   H3065     1.0  0.72840  0.43655  0.19612  1.0000
  N   N129      1.0  0.67461  0.32561  0.07862  1.0000
  H   H3066     1.0  0.68796  0.46372  0.21916  1.0000
  H   H3067     1.0  0.68855  0.44418  0.21322  1.0000
  H   H3068     1.0  0.64858  0.49180  0.04026  1.0000
  H   H3069     1.0  0.63925  0.35027  0.98925  1.0000
  H   H3070     1.0  0.61283  0.32999  0.99430  1.0000
  C   C1801     1.0  0.74251  0.56179  0.22871  1.0000
  H   H3071     1.0  0.59782  0.33307  0.04204  1.0000
  H   H3072     1.0  0.69187  0.43944  0.26376  1.0000
  S   S523      1.0  0.74567  0.32714  0.10462  1.0000
  H   H3073     1.0  0.68765  0.46994  0.18884  1.0000
  H   H3074     1.0  0.70827  0.47327  0.19053  1.0000
  H   H3075     1.0  0.70678  0.45389  0.18387  1.0000
  H   H3076     1.0  0.66006  0.37912  0.34567  1.0000
  S   S524      1.0  0.55205  0.63513  0.23813  1.0000
  H   H3077     1.0  0.65553  0.35876  0.06185  1.0000
  H   H3078     1.0  0.58532  0.48794  0.16498  1.0000
  H   H3079     1.0  0.69231  0.49123  0.05506  1.0000
  H   H3080     1.0  0.65604  0.36065  0.29801  1.0000
  N   N130      1.0  0.71822  0.54686  0.15998  1.0000
  C   C1802     1.0  0.70076  0.55923  0.16298  1.0000
  C   C1803     1.0  0.71719  0.53504  0.14864  1.0000
  C   C1804     1.0  0.73283  0.55662  0.15098  1.0000
  C   C1805     1.0  0.72206  0.53660  0.17737  1.0000
  C   C1806     1.0  0.70020  0.57419  0.17195  1.0000
  C   C1807     1.0  0.70415  0.52261  0.15664  1.0000
  H   H3081     1.0  0.68955  0.33499  0.34657  1.0000
  H   H3082     1.0  0.70746  0.51338  0.16853  1.0000
  H   H3083     1.0  0.65829  0.32328  0.11419  1.0000
  H   H3084     1.0  0.69043  0.55213  0.17125  1.0000
  H   H3085     1.0  0.68850  0.33411  0.09379  1.0000
  H   H3086     1.0  0.71322  0.54274  0.13631  1.0000
  H   H3087     1.0  0.73489  0.56448  0.15955  1.0000
  H   H3088     1.0  0.71831  0.57893  0.13453  1.0000
  H   H3089     1.0  0.72433  0.54523  0.18505  1.0000
  H   H3090     1.0  0.71054  0.53106  0.18535  1.0000
  H   H3091     1.0  0.68659  0.58199  0.17388  1.0000
  H   H3092     1.0  0.70360  0.56938  0.18500  1.0000
  H   H3093     1.0  0.70879  0.58324  0.16388  1.0000
  Fe  Fe261     1.0  0.50590  0.62910  0.20872  1.0000
  H   H3094     1.0  0.69580  0.32403  0.42633  1.0000
  H   H3095     1.0  0.59968  0.64067  0.29112  1.0000
  H   H3096     1.0  0.72378  0.38594  0.40629  1.0000
  C   C1808     1.0  0.73829  0.41826  0.21718  1.0000
  H   H3097     1.0  0.66577  0.49874  0.04623  1.0000
  H   H3098     1.0  0.73365  0.40972  0.22963  1.0000
  H   H3099     1.0  0.59992  0.60780  0.26975  1.0000
  C   C1809     1.0  0.71318  0.35413  0.13319  1.0000
  C   C1810     1.0  0.73209  0.58455  0.25620  1.0000
  H   H3100     1.0  0.70213  0.47860  0.22609  1.0000
  H   H3101     1.0  0.64063  0.34897  0.05652  1.0000
  H   H3102     1.0  0.74134  0.58201  0.28053  1.0000
  C   C1811     1.0  0.73817  0.52140  0.17685  1.0000
  C   C1812     1.0  0.70763  0.33259  0.38064  1.0000
  H   H3103     1.0  0.67086  0.32731  0.34564  1.0000
  N   N131      1.0  0.67407  0.35173  0.32797  1.0000
  C   C1813     1.0  0.71660  0.47519  0.22362  1.0000
  S   S525      1.0  0.55137  0.64169  0.18917  1.0000
  C   C1814     1.0  0.73748  0.62160  0.19793  1.0000
  C   C1815     1.0  0.73301  0.53551  0.30654  1.0000
  H   H3104     1.0  0.73190  0.46067  0.20407  1.0000
  H   H3105     1.0  0.73435  0.47733  0.28405  1.0000
  H   H3106     1.0  0.67920  0.38820  0.33975  1.0000
  H   H3107     1.0  0.73184  0.41035  0.35503  1.0000
  C   C1816     1.0  0.71704  0.33694  0.42369  1.0000
  H   H3108     1.0  0.71942  0.43133  0.24447  1.0000
  H   H3109     1.0  0.66090  0.45883  0.03685  1.0000
  H   H3110     1.0  0.70172  0.44943  0.03143  1.0000
  H   H3111     1.0  0.73983  0.51530  0.19039  1.0000
  H   H3112     1.0  0.58264  0.49461  0.19049  1.0000
  H   H3113     1.0  0.59703  0.52757  0.18613  1.0000
  C   C1817     1.0  0.73480  0.52327  0.29634  1.0000
  Fe  Fe262     1.0  0.53763  0.63718  0.21702  1.0000
  C   C1818     1.0  0.65174  0.36835  0.30847  1.0000
  C   C1819     1.0  0.67891  0.33984  0.08500  1.0000
  H   H3114     1.0  0.66696  0.34645  0.09309  1.0000
  H   H3115     1.0  0.73106  0.56157  0.12331  1.0000
  C   C1820     1.0  0.67558  0.33933  0.34511  1.0000
  H   H3116     1.0  0.68036  0.43334  0.06368  1.0000
  N   N132      1.0  0.61435  0.33947  0.01659  1.0000
  H   H3117     1.0  0.72077  0.47535  0.23567  1.0000
  N   N133      1.0  0.57729  0.52126  0.17608  1.0000
  H   H3118     1.0  0.55110  0.53538  0.18505  1.0000
  H   H3119     1.0  0.60689  0.38331  0.02002  1.0000
  C   C1821     1.0  0.68716  0.35411  0.07109  1.0000
  H   H3120     1.0  0.59955  0.53583  0.14677  1.0000
  H   H3121     1.0  0.60478  0.50956  0.17625  1.0000
  H   H3122     1.0  0.71810  0.58880  0.28200  1.0000
  C   C1822     1.0  0.69730  0.47969  0.04883  1.0000
  C   C1823     1.0  0.73599  0.42058  0.03933  1.0000
  H   H3123     1.0  0.70801  0.39177  0.17636  1.0000
  H   H3124     1.0  0.60126  0.50099  0.15225  1.0000
  H   H3125     1.0  0.68471  0.35599  0.05784  1.0000
  H   H3126     1.0  0.74655  0.35666  0.16787  1.0000
  H   H3127     1.0  0.68812  0.46528  0.07392  1.0000
  Fe  Fe263     1.0  0.73050  0.45329  0.08410  1.0000
  H   H3128     1.0  0.61610  0.35373  0.03531  1.0000
  H   H3129     1.0  0.64934  0.34520  0.32826  1.0000
  H   H3130     1.0  0.58783  0.63753  0.20959  1.0000
  H   H3131     1.0  0.69608  0.56514  0.15057  1.0000
  S   S526      1.0  0.72370  0.34169  0.98844  1.0000
  H   H3132     1.0  0.64248  0.32967  0.01259  1.0000
  C   C1824     1.0  0.62456  0.64028  0.27314  1.0000
  H   H3133     1.0  0.68492  0.35096  0.30063  1.0000
  C   C1825     1.0  0.60794  0.64838  0.28111  1.0000
  C   C1826     1.0  0.71685  0.32015  0.37062  1.0000
  H   H3134     1.0  0.66744  0.33528  0.37315  1.0000
  C   C1827     1.0  0.72379  0.33890  0.45064  1.0000
  H   H3135     1.0  0.63206  0.32834  0.04534  1.0000
  S   S527      1.0  0.74596  0.39800  0.30529  1.0000
  H   H3136     1.0  0.51410  0.62193  0.27260  1.0000
  C   C1828     1.0  0.74438  0.41043  0.35869  1.0000
  H   H3137     1.0  0.74165  0.57591  0.12873  1.0000
  H   H3138     1.0  0.73905  0.58952  0.22098  1.0000
  H   H3139     1.0  0.74072  0.41881  0.36856  1.0000
  H   H3140     1.0  0.74098  0.56123  0.21559  1.0000
  H   H3141     1.0  0.70986  0.32872  0.30219  1.0000
  H   H3142     1.0  0.58422  0.64311  0.24097  1.0000
  H   H3143     1.0  0.74441  0.39211  0.40295  1.0000
  H   H3144     1.0  0.74450  0.61079  0.23477  1.0000
  H   H3145     1.0  0.74572  0.62507  0.20473  1.0000
  H   H3146     1.0  0.60541  0.64279  0.21573  1.0000
  C   C1829     1.0  0.74622  0.45100  0.28107  1.0000
  H   H3147     1.0  0.50668  0.65074  0.27901  1.0000
  H   H3148     1.0  0.60254  0.64984  0.24524  1.0000
  C   C1830     1.0  0.59623  0.64738  0.20664  1.0000
  H   H3149     1.0  0.60391  0.64702  0.19322  1.0000
  C   C1831     1.0  0.63518  0.65033  0.26027  1.0000
  S   S528      1.0  0.74600  0.35006  0.42047  1.0000
  S   S529      1.0  0.74660  0.53205  0.32161  1.0000
  H   H3150     1.0  0.58906  0.31983  0.01316  1.0000
  H   H3151     1.0  0.65321  0.31983  0.07054  1.0000
  H   H3152     1.0  0.66013  0.36507  0.93069  1.0000
  H   H3153     1.0  0.50828  0.36239  0.79328  1.0000
  H   H3154     1.0  0.68020  0.35230  0.93756  1.0000
  H   H3155     1.0  0.61676  0.32187  0.58870  1.0000
  H   H3156     1.0  0.66917  0.33425  0.96612  1.0000
  H   H3157     1.0  0.62874  0.35369  0.92514  1.0000
  H   H3158     1.0  0.64036  0.33042  0.51620  1.0000
  C   C1832     1.0  0.72515  0.32249  0.54217  1.0000
  H   H3159     1.0  0.57548  0.32224  0.65988  1.0000
  C   C1833     1.0  0.68412  0.32078  0.92658  1.0000
  H   H3160     1.0  0.59470  0.33476  0.63128  1.0000
  C   C1834     1.0  0.50392  0.33166  0.83962  1.0000
  C   C1835     1.0  0.67009  0.32474  0.97802  1.0000
  C   C1836     1.0  0.73203  0.33699  0.53186  1.0000
  S   S530      1.0  0.70656  0.38174  0.95585  1.0000
  H   H3161     1.0  0.68112  0.32381  0.93979  1.0000
  C   C1837     1.0  0.50383  0.35188  0.80401  1.0000
  H   H3162     1.0  0.67370  0.33703  0.65099  1.0000
  H   H3163     1.0  0.58894  0.33640  0.66100  1.0000
  C   C1838     1.0  0.74171  0.33649  0.51489  1.0000
  N   N134      1.0  0.67265  0.33386  0.91515  1.0000
  C   C1839     1.0  0.51483  0.33802  0.76065  1.0000
  H   H3164     1.0  0.64961  0.32269  0.92757  1.0000
  H   H3165     1.0  0.69778  0.33766  0.88193  1.0000
  C   C1840     1.0  0.72477  0.34927  0.91306  1.0000
  C   C1841     1.0  0.72246  0.36742  0.90906  1.0000
  C   C1842     1.0  0.71693  0.37709  0.92231  1.0000
  C   C1843     1.0  0.71357  0.36876  0.93978  1.0000
  C   C1844     1.0  0.71543  0.35057  0.94387  1.0000
  C   C1845     1.0  0.72114  0.34082  0.93052  1.0000
  H   H3166     1.0  0.63507  0.34234  0.90719  1.0000
  C   C1846     1.0  0.64081  0.32468  0.52999  1.0000
  H   H3167     1.0  0.71213  0.34406  0.95723  1.0000
  H   H3168     1.0  0.64436  0.33397  0.53598  1.0000
  C   C1847     1.0  0.52012  0.33910  0.80975  1.0000
  C   C1848     1.0  0.58930  0.32349  0.65828  1.0000
  H   H3169     1.0  0.53368  0.35139  0.74171  1.0000
  C   C1849     1.0  0.54509  0.32437  0.74999  1.0000
  C   C1850     1.0  0.67850  0.35103  0.91107  1.0000
  H   H3170     1.0  0.52798  0.33421  0.79787  1.0000
  C   C1851     1.0  0.67445  0.36050  0.92640  1.0000
  C   C1852     1.0  0.66386  0.32900  0.65467  1.0000
  H   H3171     1.0  0.61096  0.33554  0.60424  1.0000
  C   C1853     1.0  0.65378  0.32701  0.67161  1.0000
  C   C1854     1.0  0.53140  0.33909  0.74998  1.0000
  H   H3172     1.0  0.64490  0.36016  0.90702  1.0000
  H   H3173     1.0  0.50639  0.34455  0.83993  1.0000
  H   H3174     1.0  0.71532  0.39111  0.91900  1.0000
  H   H3175     1.0  0.66592  0.33802  0.88993  1.0000
  H   H3176     1.0  0.66725  0.32754  0.50211  1.0000
  H   H3177     1.0  0.74260  0.32633  0.95891  1.0000
  H   H3178     1.0  0.52809  0.34699  0.81292  1.0000
  H   H3179     1.0  0.72498  0.37408  0.89562  1.0000
  S   S531      1.0  0.73084  0.33801  0.89566  1.0000
  C   C1855     1.0  0.65381  0.33536  0.92477  1.0000
  H   H3180     1.0  0.65215  0.33808  0.93798  1.0000
  H   H3181     1.0  0.55786  0.32540  0.74183  1.0000
  H   H3182     1.0  0.71769  0.32299  0.55522  1.0000
  C   C1856     1.0  0.67425  0.32817  0.89836  1.0000
  H   H3183     1.0  0.68051  0.37222  0.92212  1.0000
  H   H3184     1.0  0.69293  0.34924  0.90618  1.0000
  H   H3185     1.0  0.65596  0.33346  0.68091  1.0000
  H   H3186     1.0  0.72243  0.32685  0.93372  1.0000
  C   C1857     1.0  0.63998  0.34860  0.91532  1.0000
  H   H3187     1.0  0.72982  0.34865  0.53703  1.0000
  H   H3188     1.0  0.53899  0.32407  0.83505  1.0000
  H   H3189     1.0  0.67297  0.36022  0.90016  1.0000
  H   H3190     1.0  0.59434  0.32652  0.59967  1.0000
  H   H3191     1.0  0.69821  0.32152  0.92156  1.0000
  H   H3192     1.0  0.62711  0.32358  0.53672  1.0000
  N   N135      1.0  0.51650  0.32420  0.82473  1.0000
  H   H3193     1.0  0.68827  0.33731  0.51116  1.0000
  C   C1858     1.0  0.51199  0.32209  0.77132  1.0000
  H   H3194     1.0  0.63213  0.34335  0.97339  1.0000
  S   S532      1.0  0.67459  0.32342  0.62146  1.0000
  H   H3195     1.0  0.61372  0.32313  0.63962  1.0000
  C   C1859     1.0  0.59996  0.32243  0.63971  1.0000
  C   C1860     1.0  0.66140  0.32060  0.64254  1.0000
  C   C1861     1.0  0.60811  0.32390  0.60139  1.0000
  C   C1862     1.0  0.69299  0.32527  0.88717  1.0000
  S   S533      1.0  0.49821  0.35689  0.76086  1.0000
  H   H3196     1.0  0.57449  0.32134  0.62683  1.0000
  C   C1863     1.0  0.68491  0.32481  0.51909  1.0000
  H   H3197     1.0  0.67608  0.32754  0.53142  1.0000
  H   H3198     1.0  0.51680  0.32084  0.86222  1.0000
  H   H3199     1.0  0.69282  0.31993  0.87583  1.0000
  C   C1864     1.0  0.50453  0.32091  0.85815  1.0000
  H   H3200     1.0  0.49927  0.32115  0.77962  1.0000
  H   H3201     1.0  0.62224  0.36417  0.97825  1.0000
  C   C1865     1.0  0.74450  0.32137  0.50835  1.0000
  Fe  Fe264     1.0  0.54878  0.74132  0.25657  1.0000
  S   S534      1.0  0.57199  0.73895  0.26835  1.0000
  S   S535      1.0  0.54069  0.76444  0.23636  1.0000
  Fe  Fe265     1.0  0.53915  0.70818  0.27964  1.0000
  S   S536      1.0  0.56163  0.70275  0.29331  1.0000
  N   N136      1.0  0.51963  0.80697  0.28123  1.0000
  Fe  Fe266     1.0  0.55402  0.73129  0.29373  1.0000
  S   S537      1.0  0.55429  0.74012  0.31787  1.0000
  Fe  Fe267     1.0  0.57733  0.71078  0.26666  1.0000
  S   S538      1.0  0.60492  0.69859  0.25525  1.0000
  S   S539      1.0  0.53030  0.73607  0.28208  1.0000
  S   S540      1.0  0.55539  0.71375  0.25287  1.0000
  Fe  Fe268     1.0  0.54982  0.81718  0.14223  1.0000
  S   S541      1.0  0.56134  0.82780  0.11466  1.0000
  S   S542      1.0  0.52629  0.83348  0.15626  1.0000
  Fe  Fe269     1.0  0.57636  0.78362  0.14321  1.0000
  S   S543      1.0  0.59003  0.79135  0.11554  1.0000
  S   S544      1.0  0.58560  0.75874  0.16117  1.0000
  Fe  Fe270     1.0  0.58754  0.81732  0.12248  1.0000
  S   S545      1.0  0.60889  0.83342  0.11442  1.0000
  Fe  Fe271     1.0  0.56246  0.80110  0.11038  1.0000
  S   S546      1.0  0.55502  0.79901  0.08582  1.0000
  S   S547      1.0  0.57591  0.80880  0.15038  1.0000
  S   S548      1.0  0.54908  0.79122  0.13753  1.0000
  H   H3202     1.0  0.68000  0.90140  0.29158  1.0000
  S   S549      1.0  0.73531  0.88696  0.28057  1.0000
  C   C1866     1.0  0.68853  0.93870  0.23846  1.0000
  H   H3203     1.0  0.49921  0.80712  0.32503  1.0000
  H   H3204     1.0  0.54219  0.93744  0.16719  1.0000
  H   H3205     1.0  0.50180  0.77256  0.09957  1.0000
  Fe  Fe272     1.0  0.68854  0.89077  0.15757  1.0000
  S   S550      1.0  0.68757  0.86429  0.17487  1.0000
  S   S551      1.0  0.71393  0.89672  0.13988  1.0000
  Fe  Fe273     1.0  0.65089  0.90547  0.17165  1.0000
  S   S552      1.0  0.64676  0.88070  0.19025  1.0000
  S   S553      1.0  0.62878  0.92878  0.17257  1.0000
  Fe  Fe274     1.0  0.67318  0.87930  0.19578  1.0000
  S   S554      1.0  0.67694  0.87338  0.22358  1.0000
  Fe  Fe275     1.0  0.66112  0.86757  0.16793  1.0000
  S   S555      1.0  0.64867  0.84496  0.16834  1.0000
  S   S556      1.0  0.67613  0.90528  0.17915  1.0000
  S   S557      1.0  0.66336  0.89276  0.14867  1.0000
  H   H3206     1.0  0.51428  0.95681  0.16996  1.0000
  H   H3207     1.0  0.61479  0.69546  0.19152  1.0000
  C   C1867     1.0  0.55169  0.70708  0.10456  1.0000
  C   C1868     1.0  0.52631  0.70606  0.09373  1.0000
  H   H3208     1.0  0.53646  0.70103  0.13137  1.0000
  C   C1869     1.0  0.55531  0.74094  0.07863  1.0000
  H   H3209     1.0  0.67433  0.94997  0.27064  1.0000
  H   H3210     1.0  0.67394  0.94285  0.24054  1.0000
  H   H3211     1.0  0.62866  0.96310  0.21412  1.0000
  H   H3212     1.0  0.61456  0.67453  0.18727  1.0000
  H   H3213     1.0  0.52022  0.75666  0.30847  1.0000
  C   C1870     1.0  0.52297  0.82527  0.27631  1.0000
  S   S558      1.0  0.50468  0.91555  0.24018  1.0000
  H   H3214     1.0  0.69498  0.93058  0.14863  1.0000
  Fe  Fe276     1.0  0.53432  0.91002  0.23164  1.0000
  S   S559      1.0  0.63444  0.96541  0.25467  1.0000
  H   H3215     1.0  0.51690  0.98308  0.21789  1.0000
  C   C1871     1.0  0.57546  0.94950  0.22440  1.0000
  S   S560      1.0  0.55131  0.85085  0.21672  1.0000
  C   C1872     1.0  0.57593  0.96018  0.24986  1.0000
  C   C1873     1.0  0.58215  0.95957  0.23224  1.0000
  S   S561      1.0  0.52054  0.68990  0.28667  1.0000
  H   H3216     1.0  0.58031  0.94924  0.21072  1.0000
  H   H3217     1.0  0.50041  0.73734  0.30939  1.0000
  H   H3218     1.0  0.62448  0.87630  0.27871  1.0000
  H   H3219     1.0  0.54656  0.77464  0.26815  1.0000
  H   H3220     1.0  0.61285  0.87290  0.26405  1.0000
  H   H3221     1.0  0.50268  0.79262  0.30209  1.0000
  C   C1874     1.0  0.52407  0.73005  0.10826  1.0000
  N   N137      1.0  0.51189  0.96333  0.19507  1.0000
  H   H3222     1.0  0.61244  0.94068  0.25655  1.0000
  H   H3223     1.0  0.59764  0.90856  0.18025  1.0000
  H   H3224     1.0  0.61393  0.73949  0.31322  1.0000
  H   H3225     1.0  0.58732  0.92104  0.16249  1.0000
  C   C1875     1.0  0.58004  0.69539  0.21190  1.0000
  C   C1876     1.0  0.62862  0.70506  0.31322  1.0000
  H   H3226     1.0  0.73986  0.95056  0.14814  1.0000
  H   H3227     1.0  0.58571  0.70035  0.19808  1.0000
  H   H3228     1.0  0.54167  0.65562  0.29226  1.0000
  C   C1877     1.0  0.63705  0.94343  0.17956  1.0000
  C   C1878     1.0  0.62741  0.95087  0.19380  1.0000
  C   C1879     1.0  0.63579  0.95858  0.20236  1.0000
  H   H3229     1.0  0.50933  0.77632  0.20621  1.0000
  C   C1880     1.0  0.66289  0.95288  0.18144  1.0000
  C   C1881     1.0  0.65451  0.94518  0.17293  1.0000
  H   H3230     1.0  0.61392  0.94944  0.19902  1.0000
  S   S562      1.0  0.65235  0.97864  0.28851  1.0000
  H   H3231     1.0  0.67664  0.95343  0.17669  1.0000
  H   H3232     1.0  0.66184  0.93983  0.16163  1.0000
  C   C1882     1.0  0.72852  0.88536  0.22793  1.0000
  C   C1883     1.0  0.71668  0.87965  0.24296  1.0000
  C   C1884     1.0  0.70093  0.87576  0.24160  1.0000
  C   C1885     1.0  0.69698  0.87756  0.22521  1.0000
  C   C1886     1.0  0.70892  0.88303  0.21022  1.0000
  C   C1887     1.0  0.72464  0.88680  0.21161  1.0000
  H   H3233     1.0  0.71964  0.87819  0.25562  1.0000
  H   H3234     1.0  0.69183  0.87133  0.25324  1.0000
  H   H3235     1.0  0.70614  0.88418  0.19752  1.0000
  H   H3236     1.0  0.53999  0.98081  0.18628  1.0000
  C   C1888     1.0  0.72709  0.94095  0.31012  1.0000
  C   C1889     1.0  0.71647  0.95730  0.31170  1.0000
  C   C1890     1.0  0.71529  0.96452  0.32610  1.0000
  C   C1891     1.0  0.72473  0.95554  0.33910  1.0000
  H   H3237     1.0  0.64479  0.68166  0.30217  1.0000
  H   H3238     1.0  0.55561  0.71331  0.20775  1.0000
  H   H3239     1.0  0.70915  0.96448  0.30169  1.0000
  C   C1892     1.0  0.69411  0.92502  0.22680  1.0000
  H   H3240     1.0  0.52824  0.82827  0.28649  1.0000
  H   H3241     1.0  0.64498  0.93051  0.23012  1.0000
  C   C1893     1.0  0.61874  0.83813  0.12963  1.0000
  C   C1894     1.0  0.61346  0.83244  0.14753  1.0000
  C   C1895     1.0  0.62259  0.83497  0.15920  1.0000
  C   C1896     1.0  0.63667  0.84378  0.15318  1.0000
  C   C1897     1.0  0.64139  0.85033  0.13537  1.0000
  C   C1898     1.0  0.63253  0.84738  0.12363  1.0000
  H   H3242     1.0  0.60259  0.82577  0.15240  1.0000
  H   H3243     1.0  0.61877  0.83004  0.17298  1.0000
  H   H3244     1.0  0.65227  0.85708  0.13057  1.0000
  H   H3245     1.0  0.63664  0.85197  0.10980  1.0000
  C   C1899     1.0  0.53246  0.83821  0.17359  1.0000
  C   C1900     1.0  0.52513  0.85408  0.17893  1.0000
  C   C1901     1.0  0.53075  0.85797  0.19238  1.0000
  C   C1902     1.0  0.54358  0.84592  0.20051  1.0000
  C   C1903     1.0  0.55049  0.82989  0.19551  1.0000
  C   C1904     1.0  0.54482  0.82602  0.18216  1.0000
  H   H3246     1.0  0.67058  0.97649  0.31563  1.0000
  H   H3247     1.0  0.53631  0.95756  0.20465  1.0000
  H   H3248     1.0  0.56018  0.82044  0.20197  1.0000
  H   H3249     1.0  0.54970  0.81339  0.17881  1.0000
  C   C1905     1.0  0.53892  0.78974  0.08173  1.0000
  C   C1906     1.0  0.54038  0.78836  0.06454  1.0000
  C   C1907     1.0  0.52850  0.78098  0.06003  1.0000
  H   H3250     1.0  0.52245  0.83551  0.11838  1.0000
  C   C1908     1.0  0.55997  0.69919  0.21276  1.0000
  C   C1909     1.0  0.50620  0.78598  0.27140  1.0000
  H   H3251     1.0  0.55100  0.79281  0.05457  1.0000
  H   H3252     1.0  0.53017  0.77975  0.04666  1.0000
  H   H3253     1.0  0.72064  0.94689  0.23110  1.0000
  Fe  Fe277     1.0  0.50374  0.90483  0.21733  1.0000
  C   C1910     1.0  0.61227  0.67622  0.26261  1.0000
  C   C1911     1.0  0.53600  0.82983  0.25921  1.0000
  H   H3254     1.0  0.74073  0.92970  0.14482  1.0000
  C   C1912     1.0  0.62903  0.66822  0.25499  1.0000
  C   C1913     1.0  0.50391  0.80998  0.20370  1.0000
  C   C1914     1.0  0.63963  0.70534  0.27346  1.0000
  H   H3255     1.0  0.63732  0.67585  0.24493  1.0000
  C   C1915     1.0  0.55377  0.76271  0.21573  1.0000
  C   C1916     1.0  0.55012  0.77572  0.20143  1.0000
  C   C1917     1.0  0.55982  0.77431  0.18473  1.0000
  C   C1918     1.0  0.57345  0.76004  0.18222  1.0000
  C   C1919     1.0  0.57740  0.74708  0.19655  1.0000
  C   C1920     1.0  0.56756  0.74843  0.21333  1.0000
  H   H3256     1.0  0.53976  0.78692  0.20326  1.0000
  H   H3257     1.0  0.55664  0.78422  0.17374  1.0000
  H   H3258     1.0  0.58805  0.73608  0.19469  1.0000
  H   H3259     1.0  0.57072  0.73851  0.22437  1.0000
  C   C1921     1.0  0.58527  0.91220  0.17539  1.0000
  H   H3260     1.0  0.61462  0.90531  0.20343  1.0000
  H   H3261     1.0  0.51542  0.86348  0.17244  1.0000
  C   C1922     1.0  0.59949  0.68390  0.31894  1.0000
  C   C1923     1.0  0.52625  0.67887  0.25602  1.0000
  H   H3262     1.0  0.59802  0.91787  0.24975  1.0000
  H   H3263     1.0  0.51870  0.69147  0.25121  1.0000
  C   C1924     1.0  0.53408  0.74969  0.32960  1.0000
  C   C1925     1.0  0.53283  0.75027  0.34700  1.0000
  H   H3264     1.0  0.63132  0.92381  0.25798  1.0000
  C   C1926     1.0  0.51932  0.75680  0.32194  1.0000
  H   H3265     1.0  0.54420  0.74495  0.35299  1.0000
  S   S563      1.0  0.58367  0.97294  0.26030  1.0000
  H   H3266     1.0  0.50196  0.72530  0.08988  1.0000
  C   C1927     1.0  0.60919  0.69271  0.30125  1.0000
  C   C1928     1.0  0.73124  0.92114  0.11763  1.0000
  C   C1929     1.0  0.71699  0.91833  0.13135  1.0000
  C   C1930     1.0  0.70604  0.93260  0.13808  1.0000
  C   C1931     1.0  0.70933  0.94956  0.13093  1.0000
  H   H3267     1.0  0.49747  0.66825  0.24937  1.0000
  C   C1932     1.0  0.50203  0.78336  0.19563  1.0000
  H   H3268     1.0  0.51581  0.74084  0.10054  1.0000
  H   H3269     1.0  0.65505  0.68993  0.31459  1.0000
  C   C1933     1.0  0.52496  0.78399  0.09449  1.0000
  H   H3270     1.0  0.63208  0.67733  0.19572  1.0000
  H   H3271     1.0  0.61985  0.68250  0.29619  1.0000
  C   C1934     1.0  0.53289  0.66654  0.24528  1.0000
  H   H3272     1.0  0.72807  0.92269  0.19222  1.0000
  C   C1935     1.0  0.62345  0.71658  0.28300  1.0000
  C   C1936     1.0  0.64221  0.68767  0.31364  1.0000
  H   H3273     1.0  0.63726  0.69264  0.27277  1.0000
  Fe  Fe278     1.0  0.50760  0.88739  0.25405  1.0000
  H   H3274     1.0  0.51560  0.77510  0.27746  1.0000
  H   H3275     1.0  0.65822  0.90919  0.23722  1.0000
  S   S564      1.0  0.66497  0.96635  0.20839  1.0000
  S   S565      1.0  0.72898  0.93326  0.29104  1.0000
  H   H3276     1.0  0.55853  0.68900  0.12790  1.0000
  C   C1937     1.0  0.60802  0.67602  0.21523  1.0000
  H   H3277     1.0  0.54817  0.75164  0.08553  1.0000
  N   N138      1.0  0.50576  0.83994  0.09954  1.0000
  C   C1938     1.0  0.65369  0.95908  0.19647  1.0000
  H   H3278     1.0  0.70861  0.92149  0.22290  1.0000
  C   C1939     1.0  0.54677  0.69446  0.12188  1.0000
  N   N139      1.0  0.53640  0.71825  0.09668  1.0000
  H   H3279     1.0  0.53527  0.69620  0.08639  1.0000
  H   H3280     1.0  0.52444  0.75126  0.12020  1.0000
  H   H3281     1.0  0.54112  0.85887  0.07390  1.0000
  H   H3282     1.0  0.59369  0.71695  0.32152  1.0000
  H   H3283     1.0  0.59200  0.96696  0.22461  1.0000
  C   C1940     1.0  0.54323  0.72862  0.07911  1.0000
  H   H3284     1.0  0.70683  0.97698  0.32726  1.0000
  C   C1941     1.0  0.53237  0.73810  0.11899  1.0000
  N   N140      1.0  0.59081  0.88047  0.17040  1.0000
  C   C1942     1.0  0.58050  0.86678  0.17144  1.0000
  C   C1943     1.0  0.60268  0.87316  0.18344  1.0000
  C   C1944     1.0  0.60162  0.88390  0.15217  1.0000
  C   C1945     1.0  0.56989  0.86993  0.15700  1.0000
  C   C1946     1.0  0.59350  0.86741  0.20245  1.0000
  C   C1947     1.0  0.61819  0.89145  0.14968  1.0000
  H   H3285     1.0  0.58934  0.85379  0.17133  1.0000
  H   H3286     1.0  0.57085  0.86526  0.18393  1.0000
  H   H3287     1.0  0.61082  0.88235  0.18356  1.0000
  H   H3288     1.0  0.61240  0.86160  0.17969  1.0000
  H   H3289     1.0  0.60651  0.87161  0.14709  1.0000
  H   H3290     1.0  0.59339  0.89277  0.14304  1.0000
  H   H3291     1.0  0.56293  0.85898  0.15951  1.0000
  H   H3292     1.0  0.55967  0.88198  0.15694  1.0000
  H   H3293     1.0  0.58847  0.85537  0.20414  1.0000
  H   H3294     1.0  0.60330  0.86424  0.21095  1.0000
  H   H3295     1.0  0.58269  0.87769  0.20719  1.0000
  H   H3296     1.0  0.61544  0.90393  0.15404  1.0000
  H   H3297     1.0  0.62423  0.89396  0.13561  1.0000
  H   H3298     1.0  0.62830  0.88198  0.15624  1.0000
  H   H3299     1.0  0.59085  0.74735  0.31442  1.0000
  H   H3300     1.0  0.51044  0.83483  0.27540  1.0000
  H   H3301     1.0  0.70609  0.94743  0.18987  1.0000
  C   C1948     1.0  0.51109  0.71466  0.08398  1.0000
  H   H3302     1.0  0.51047  0.80160  0.21436  1.0000
  H   H3303     1.0  0.50880  0.82475  0.31163  1.0000
  H   H3304     1.0  0.60654  0.89292  0.27220  1.0000
  C   C1949     1.0  0.72356  0.95228  0.11706  1.0000
  C   C1950     1.0  0.68483  0.91859  0.26627  1.0000
  H   H3305     1.0  0.69506  0.94439  0.27711  1.0000
  H   H3306     1.0  0.55055  0.71974  0.06998  1.0000
  H   H3307     1.0  0.59896  0.91953  0.21651  1.0000
  H   H3308     1.0  0.72887  0.97516  0.44198  1.0000
  C   C1951     1.0  0.68882  0.94776  0.26552  1.0000
  H   H3309     1.0  0.58876  0.67235  0.28172  1.0000
  H   H3310     1.0  0.59779  0.67103  0.31778  1.0000
  H   H3311     1.0  0.53065  0.66967  0.23212  1.0000
  H   H3312     1.0  0.52233  0.80314  0.31652  1.0000
  H   H3313     1.0  0.51270  0.85290  0.07259  1.0000
  H   H3314     1.0  0.53667  0.85268  0.09696  1.0000
  H   H3315     1.0  0.52247  0.87099  0.08602  1.0000
  H   H3316     1.0  0.50555  0.83246  0.21294  1.0000
  C   C1952     1.0  0.50552  0.67227  0.14435  1.0000
  H   H3317     1.0  0.61327  0.72047  0.27478  1.0000
  H   H3318     1.0  0.70055  0.96059  0.13577  1.0000
  H   H3319     1.0  0.56259  0.78420  0.27172  1.0000
  H   H3320     1.0  0.54416  0.93597  0.18894  1.0000
  H   H3321     1.0  0.74504  0.94001  0.09939  1.0000
  H   H3322     1.0  0.51593  0.71959  0.06996  1.0000
  Fe  Fe279     1.0  0.60898  0.98367  0.25057  1.0000
  C   C1953     1.0  0.72885  0.92960  0.17842  1.0000
  C   C1954     1.0  0.61766  0.68116  0.19626  1.0000
  H   H3323     1.0  0.50952  0.78711  0.16691  1.0000
  H   H3324     1.0  0.74431  0.91892  0.32228  1.0000
  H   H3325     1.0  0.73904  0.89733  0.16734  1.0000
  S   S566      1.0  0.50126  0.76483  0.06537  1.0000
  C   C1955     1.0  0.60175  0.66631  0.27581  1.0000
  H   H3326     1.0  0.52363  0.78510  0.10782  1.0000
  H   H3327     1.0  0.68886  0.93053  0.21468  1.0000
  H   H3328     1.0  0.57048  0.66349  0.21258  1.0000
  H   H3329     1.0  0.50082  0.81398  0.26427  1.0000
  H   H3330     1.0  0.65134  0.70356  0.27919  1.0000
  H   H3331     1.0  0.50324  0.96794  0.23161  1.0000
  H   H3332     1.0  0.60993  0.92122  0.27150  1.0000
  H   H3333     1.0  0.73387  0.89070  0.19996  1.0000
  S   S567      1.0  0.52005  0.68255  0.16684  1.0000
  C   C1956     1.0  0.51461  0.77511  0.07252  1.0000
  H   H3334     1.0  0.54238  0.68325  0.11986  1.0000
  H   H3335     1.0  0.58267  0.70392  0.21952  1.0000
  H   H3336     1.0  0.68871  0.91314  0.23301  1.0000
  H   H3337     1.0  0.61527  0.66306  0.22055  1.0000
  C   C1957     1.0  0.51912  0.84560  0.08366  1.0000
  H   H3338     1.0  0.62783  0.72870  0.28261  1.0000
  H   H3339     1.0  0.59375  0.90010  0.21439  1.0000
  H   H3340     1.0  0.56745  0.73412  0.08355  1.0000
  C   C1958     1.0  0.54901  0.78721  0.26924  1.0000
  H   H3341     1.0  0.54920  0.79631  0.25657  1.0000
  C   C1959     1.0  0.69266  0.96572  0.25555  1.0000
  C   C1960     1.0  0.60283  0.73999  0.30709  1.0000
  H   H3342     1.0  0.55634  0.69213  0.20445  1.0000
  N   N141      1.0  0.63376  0.77173  0.15781  1.0000
  C   C1961     1.0  0.63641  0.75386  0.15381  1.0000
  C   C1962     1.0  0.62460  0.78447  0.14423  1.0000
  C   C1963     1.0  0.62220  0.77169  0.17570  1.0000
  C   C1964     1.0  0.65160  0.77512  0.15739  1.0000
  C   C1965     1.0  0.64322  0.73834  0.16758  1.0000
  C   C1966     1.0  0.63508  0.78602  0.12534  1.0000
  C   C1967     1.0  0.61223  0.78942  0.18017  1.0000
  C   C1968     1.0  0.65272  0.79375  0.15793  1.0000
  H   H3343     1.0  0.62387  0.75156  0.15194  1.0000
  H   H3344     1.0  0.64592  0.75266  0.14135  1.0000
  H   H3345     1.0  0.62084  0.79778  0.14688  1.0000
  H   H3346     1.0  0.61186  0.78105  0.14454  1.0000
  H   H3347     1.0  0.61180  0.76402  0.17768  1.0000
  H   H3348     1.0  0.62996  0.76511  0.18601  1.0000
  H   H3349     1.0  0.65716  0.76660  0.16860  1.0000
  H   H3350     1.0  0.66143  0.77127  0.14588  1.0000
  H   H3351     1.0  0.65615  0.73902  0.16975  1.0000
  H   H3352     1.0  0.63362  0.73715  0.18011  1.0000
  H   H3353     1.0  0.64506  0.72612  0.16283  1.0000
  H   H3354     1.0  0.63693  0.77401  0.12028  1.0000
  H   H3355     1.0  0.62749  0.79658  0.11682  1.0000
  H   H3356     1.0  0.64791  0.78967  0.12387  1.0000
  H   H3357     1.0  0.62085  0.79884  0.17771  1.0000
  H   H3358     1.0  0.60605  0.78751  0.19422  1.0000
  H   H3359     1.0  0.60133  0.79504  0.17301  1.0000
  H   H3360     1.0  0.65038  0.79565  0.17151  1.0000
  H   H3361     1.0  0.64390  0.80404  0.15063  1.0000
  H   H3362     1.0  0.66609  0.79610  0.15133  1.0000
  H   H3363     1.0  0.51604  0.75780  0.37031  1.0000
  H   H3364     1.0  0.52537  0.87041  0.19620  1.0000
  H   H3365     1.0  0.61064  0.93119  0.23297  1.0000
  H   H3366     1.0  0.50582  0.72757  0.33656  1.0000
  H   H3367     1.0  0.56001  0.71495  0.10700  1.0000
  C   C1969     1.0  0.72639  0.93719  0.24142  1.0000
  C   C1970     1.0  0.55644  0.94036  0.25169  1.0000
  H   H3368     1.0  0.71771  0.92254  0.26652  1.0000
  C   C1971     1.0  0.52923  0.67483  0.27303  1.0000
  H   H3369     1.0  0.52827  0.83400  0.07915  1.0000
  C   C1972     1.0  0.53607  0.79397  0.28494  1.0000
  C   C1973     1.0  0.51538  0.82826  0.11334  1.0000
  Fe  Fe280     1.0  0.74662  0.90801  0.28496  1.0000
  H   H3370     1.0  0.64555  0.89708  0.21801  1.0000
  H   H3371     1.0  0.56069  0.69911  0.09526  1.0000
  H   H3372     1.0  0.54358  0.79934  0.29157  1.0000
  H   H3373     1.0  0.53247  0.78216  0.29423  1.0000
  H   H3374     1.0  0.67805  0.92345  0.29310  1.0000
  C   C1974     1.0  0.50662  0.68586  0.15164  1.0000
  C   C1975     1.0  0.73496  0.93890  0.33786  1.0000
  H   H3375     1.0  0.63262  0.91786  0.21213  1.0000
  C   C1976     1.0  0.53902  0.94495  0.17774  1.0000
  H   H3376     1.0  0.66139  0.91973  0.21498  1.0000
  H   H3377     1.0  0.57586  0.91963  0.18487  1.0000
  H   H3378     1.0  0.51479  0.81236  0.19252  1.0000
  N   N142      1.0  0.62329  0.90401  0.23809  1.0000
  C   C1977     1.0  0.61233  0.89520  0.23153  1.0000
  C   C1978     1.0  0.63117  0.89080  0.25227  1.0000
  C   C1979     1.0  0.63791  0.90880  0.22319  1.0000
  C   C1980     1.0  0.61169  0.92006  0.24420  1.0000
  C   C1981     1.0  0.60457  0.90580  0.21556  1.0000
  C   C1982     1.0  0.61782  0.88293  0.26763  1.0000
  C   C1983     1.0  0.65120  0.91753  0.22699  1.0000
  C   C1984     1.0  0.61705  0.92636  0.25833  1.0000
  H   H3379     1.0  0.62012  0.88258  0.22814  1.0000
  H   H3380     1.0  0.60085  0.89195  0.24183  1.0000
  H   H3381     1.0  0.63953  0.89613  0.25784  1.0000
  H   H3382     1.0  0.64036  0.87974  0.24680  1.0000
  H   H3383     1.0  0.51462  0.72278  0.11797  1.0000
  C   C1985     1.0  0.56271  0.93971  0.23409  1.0000
  C   C1986     1.0  0.57783  0.89665  0.17445  1.0000
  H   H3384     1.0  0.56812  0.89370  0.18668  1.0000
  H   H3385     1.0  0.57847  0.87004  0.14391  1.0000
  S   S568      1.0  0.55540  0.92677  0.22350  1.0000
  C   C1987     1.0  0.71380  0.92573  0.25375  1.0000
  C   C1988     1.0  0.68580  0.91318  0.28578  1.0000
  Fe  Fe281     1.0  0.53407  0.87498  0.22438  1.0000
  H   H3386     1.0  0.56948  0.90182  0.16447  1.0000
  H   H3387     1.0  0.58928  0.72358  0.30017  1.0000
  C   C1989     1.0  0.58425  0.66553  0.20747  1.0000
  H   H3388     1.0  0.68512  0.97135  0.24501  1.0000
  Fe  Fe282     1.0  0.64569  0.97961  0.22852  1.0000
  H   H3389     1.0  0.60481  0.74761  0.29358  1.0000
  H   H3390     1.0  0.70790  0.98168  0.41336  1.0000
  C   C1990     1.0  0.73437  0.93800  0.11039  1.0000
  H   H3391     1.0  0.72785  0.95831  0.42037  1.0000
  C   C1991     1.0  0.51641  0.96922  0.22355  1.0000
  N   N143      1.0  0.61567  0.70867  0.30138  1.0000
  H   H3392     1.0  0.53624  0.84390  0.25681  1.0000
  H   H3393     1.0  0.53213  0.82782  0.24773  1.0000
  H   H3394     1.0  0.69348  0.95034  0.23040  1.0000
  S   S569      1.0  0.72452  0.96547  0.35634  1.0000
  C   C1992     1.0  0.50391  0.81860  0.12925  1.0000
  C   C1993     1.0  0.73989  0.96295  0.41999  1.0000
  H   H3395     1.0  0.69946  0.90983  0.28795  1.0000
  H   H3396     1.0  0.72299  0.95830  0.17715  1.0000
  C   C1994     1.0  0.56295  0.95063  0.25949  1.0000
  N   N144      1.0  0.69433  0.93299  0.25571  1.0000
  H   H3397     1.0  0.55798  0.95110  0.27311  1.0000
  C   C1995     1.0  0.58123  0.67150  0.23692  1.0000
  H   H3398     1.0  0.71729  0.91292  0.24972  1.0000
  H   H3399     1.0  0.51308  0.65937  0.14800  1.0000
  H   H3400     1.0  0.61032  0.68477  0.22280  1.0000
  C   C1996     1.0  0.51688  0.75755  0.35681  1.0000
  H   H3401     1.0  0.52025  0.69854  0.10632  1.0000
  H   H3402     1.0  0.67057  0.92228  0.26573  1.0000
  H   H3403     1.0  0.60686  0.68165  0.32947  1.0000
  H   H3404     1.0  0.68996  0.90651  0.26087  1.0000
  H   H3405     1.0  0.54605  0.73977  0.11346  1.0000
  C   C1997     1.0  0.50204  0.76450  0.34929  1.0000
  C   C1998     1.0  0.53036  0.85769  0.08556  1.0000
  C   C1999     1.0  0.51576  0.78363  0.17841  1.0000
  S   S570      1.0  0.53286  0.90147  0.20762  1.0000
  S   S571      1.0  0.72649  0.97345  0.10606  1.0000
  H   H3406     1.0  0.54660  0.93296  0.25932  1.0000
  H   H3407     1.0  0.64293  0.71229  0.25976  1.0000
  H   H3408     1.0  0.68821  0.97483  0.26475  1.0000
  H   H3409     1.0  0.51579  0.68950  0.33108  1.0000
  H   H3410     1.0  0.73943  0.94216  0.20169  1.0000
  H   H3411     1.0  0.52471  0.79264  0.17670  1.0000
  H   H3412     1.0  0.52584  0.81809  0.10773  1.0000
  H   H3413     1.0  0.70679  0.96561  0.25054  1.0000
  C   C2000     1.0  0.52206  0.95790  0.20956  1.0000
  H   H3414     1.0  0.73778  0.92876  0.23456  1.0000
  C   C2001     1.0  0.51191  0.98193  0.18579  1.0000
  C   C2002     1.0  0.51230  0.80349  0.26720  1.0000
  H   H3415     1.0  0.62142  0.70496  0.32692  1.0000
  S   S572      1.0  0.53722  0.88288  0.24779  1.0000
  H   H3416     1.0  0.74472  0.97165  0.28129  1.0000
  H   H3417     1.0  0.73157  0.94386  0.24897  1.0000
  H   H3418     1.0  0.55957  0.74731  0.06488  1.0000
  H   H3419     1.0  0.52180  0.80388  0.25464  1.0000
  H   H3420     1.0  0.53219  0.73709  0.07308  1.0000
  C   C2003     1.0  0.73620  0.93161  0.32334  1.0000
  C   C2004     1.0  0.50335  0.76423  0.33176  1.0000
  H   H3421     1.0  0.60000  0.69606  0.29210  1.0000
  C   C2005     1.0  0.50279  0.71435  0.33972  1.0000
  H   H3422     1.0  0.54962  0.82281  0.26008  1.0000
  C   C2006     1.0  0.71637  0.94762  0.17780  1.0000
  H   H3423     1.0  0.54619  0.95578  0.17302  1.0000
  C   C2007     1.0  0.50551  0.80595  0.29757  1.0000
  C   C2008     1.0  0.53919  0.65868  0.27918  1.0000
  H   H3424     1.0  0.51118  0.86643  0.11511  1.0000
  C   C2009     1.0  0.73575  0.97912  0.42833  1.0000
  N   N145      1.0  0.58857  0.67662  0.21776  1.0000
  H   H3425     1.0  0.63608  0.71577  0.30990  1.0000
  Fe  Fe283     1.0  0.52475  0.65588  0.18380  1.0000
  H   H3426     1.0  0.50511  0.78275  0.25919  1.0000
  C   C2010     1.0  0.59973  0.72172  0.30774  1.0000
  C   C2011     1.0  0.51888  0.95104  0.18244  1.0000
  H   H3427     1.0  0.70987  0.95095  0.16645  1.0000
  C   C2012     1.0  0.51261  0.77688  0.08982  1.0000
  H   H3428     1.0  0.50451  0.81707  0.09075  1.0000
  H   H3429     1.0  0.72263  0.92193  0.17284  1.0000
  H   H3430     1.0  0.55232  0.69638  0.22617  1.0000
  H   H3431     1.0  0.52579  0.96456  0.23260  1.0000
  H   H3432     1.0  0.51912  0.70879  0.31470  1.0000
  H   H3433     1.0  0.53036  0.70256  0.33234  1.0000
  H   H3434     1.0  0.53144  0.73060  0.13257  1.0000
  H   H3435     1.0  0.52120  0.94428  0.21633  1.0000
  H   H3436     1.0  0.50424  0.70936  0.35350  1.0000
  H   H3437     1.0  0.63834  0.67805  0.32557  1.0000
  H   H3438     1.0  0.58452  0.67256  0.19373  1.0000
  H   H3439     1.0  0.51363  0.93881  0.18768  1.0000
  H   H3440     1.0  0.58609  0.69158  0.32269  1.0000
  C   C2013     1.0  0.51767  0.70306  0.32878  1.0000
  H   H3441     1.0  0.58349  0.68047  0.24422  1.0000
  H   H3442     1.0  0.56679  0.67276  0.23940  1.0000
  S   S573      1.0  0.51167  0.65364  0.21207  1.0000
  H   H3443     1.0  0.52405  0.77040  0.17836  1.0000
  H   H3444     1.0  0.73971  0.91023  0.11232  1.0000
  S   S574      1.0  0.50493  0.87737  0.23161  1.0000
  H   H3445     1.0  0.50334  0.70476  0.08467  1.0000
  H   H3446     1.0  0.49786  0.71314  0.15215  1.0000
  H   H3447     1.0  0.74216  0.93176  0.34796  1.0000
  H   H3448     1.0  0.50031  0.80752  0.12605  1.0000
  H   H3449     1.0  0.51150  0.81305  0.13978  1.0000
  C   C2014     1.0  0.50948  0.81056  0.31342  1.0000
  H   H3450     1.0  0.60401  0.98423  0.32972  1.0000
  H   H3451     1.0  0.49723  0.85422  0.13212  1.0000
  C   C2015     1.0  0.49800  0.86309  0.11922  1.0000
  H   H3452     1.0  0.50529  0.98506  0.17451  1.0000
  H   H3453     1.0  0.53505  0.98502  0.16482  1.0000
  C   C2016     1.0  0.49710  0.70260  0.14649  1.0000
  C   C2017     1.0  0.58816  0.65281  0.24595  1.0000
  H   H3454     1.0  0.77779  0.06995  0.20541  1.0000
  C   C2018     1.0  0.80444  0.31765  0.40330  1.0000
  H   H3455     1.0  0.83041  0.06809  0.00267  1.0000
  H   H3456     1.0  0.79478  0.12258  0.36057  1.0000
  C   C2019     1.0  0.88217  0.20807  0.47699  1.0000
  C   C2020     1.0  0.90988  0.25909  0.99644  1.0000
  C   C2021     1.0  0.74918  0.07906  0.32215  1.0000
  S   S575      1.0  0.81088  0.00958  0.20261  1.0000
  H   H3457     1.0  0.78844  0.30143  0.00934  1.0000
  C   C2022     1.0  0.75959  0.19359  0.41975  1.0000
  H   H3458     1.0  0.87328  0.23960  0.04037  1.0000
  C   C2023     1.0  0.76069  0.30009  0.41912  1.0000
  H   H3459     1.0  0.77320  0.24052  0.46640  1.0000
  S   S576      1.0  0.83497  0.18550  0.01498  1.0000
  C   C2024     1.0  0.77291  0.19872  0.01040  1.0000
  H   H3460     1.0  0.82526  0.08459  0.35835  1.0000
  H   H3461     1.0  0.81172  0.10041  0.21866  1.0000
  H   H3462     1.0  0.83949  0.09828  0.35855  1.0000
  H   H3463     1.0  0.84743  0.17473  0.47019  1.0000
  H   H3464     1.0  0.83981  0.27951  0.46185  1.0000
  H   H3465     1.0  0.83329  0.99318  0.13554  1.0000
  H   H3466     1.0  0.78720  0.09441  0.01290  1.0000
  H   H3467     1.0  0.88585  0.28728  0.03711  1.0000
  C   C2025     1.0  0.82932  0.29215  0.03438  1.0000
  H   H3468     1.0  0.81140  0.05232  0.99759  1.0000
  H   H3469     1.0  0.93680  0.25336  0.98218  1.0000
  S   S577      1.0  0.76464  0.13992  0.41440  1.0000
  C   C2026     1.0  0.82544  0.09761  0.36042  1.0000
  Fe  Fe284     1.0  0.82419  0.09939  0.28799  1.0000
  S   S578      1.0  0.80828  0.12673  0.28768  1.0000
  S   S579      1.0  0.84504  0.09307  0.26465  1.0000
  Fe  Fe285     1.0  0.80516  0.08568  0.32346  1.0000
  H   H3470     1.0  0.76511  0.26481  0.10398  1.0000
  C   C2027     1.0  0.77199  0.22439  0.43361  1.0000
  Fe  Fe286     1.0  0.81173  0.12261  0.31538  1.0000
  S   S580      1.0  0.81108  0.14505  0.32817  1.0000
  S   S581      1.0  0.80073  0.08682  0.29686  1.0000
  S   S582      1.0  0.82984  0.09646  0.31469  1.0000
  Fe  Fe287     1.0  0.85947  0.19659  0.41453  1.0000
  S   S583      1.0  0.83136  0.20651  0.42578  1.0000
  S   S584      1.0  0.87913  0.20893  0.42073  1.0000
  Fe  Fe288     1.0  0.84971  0.17462  0.39353  1.0000
  S   S585      1.0  0.82101  0.18339  0.40302  1.0000
  S   S586      1.0  0.85882  0.15461  0.37605  1.0000
  Fe  Fe289     1.0  0.82666  0.20983  0.39891  1.0000
  S   S587      1.0  0.80661  0.23190  0.38804  1.0000
  Fe  Fe290     1.0  0.82813  0.17917  0.42897  1.0000
  S   S588      1.0  0.80993  0.16670  0.45168  1.0000
  S   S589      1.0  0.85512  0.20183  0.38697  1.0000
  S   S590      1.0  0.85671  0.16855  0.42008  1.0000
  H   H3471     1.0  0.77862  0.17432  0.12585  1.0000
  H   H3472     1.0  0.81946  0.11199  0.38110  1.0000
  H   H3473     1.0  0.91616  0.25764  0.03047  1.0000
  C   C2028     1.0  0.83080  0.09421  0.48092  1.0000
  C   C2029     1.0  0.83555  0.04613  0.20061  1.0000
  Fe  Fe291     1.0  0.84712  0.24597  0.00081  1.0000
  C   C2030     1.0  0.78765  0.23420  0.40439  1.0000
  C   C2031     1.0  0.78693  0.22260  0.42041  1.0000
  H   H3474     1.0  0.75844  0.99237  0.31272  1.0000
  H   H3475     1.0  0.77813  0.99409  0.28554  1.0000
  H   H3476     1.0  0.82622  0.30249  0.02355  1.0000
  C   C2032     1.0  0.77306  0.24741  0.40145  1.0000
  H   H3477     1.0  0.79761  0.21179  0.42254  1.0000
  H   H3478     1.0  0.86284  0.29105  0.00388  1.0000
  H   H3479     1.0  0.78034  0.18004  0.40266  1.0000
  H   H3480     1.0  0.77337  0.25619  0.38895  1.0000
  C   C2033     1.0  0.82410  0.14619  0.34249  1.0000
  C   C2034     1.0  0.84051  0.13531  0.34353  1.0000
  C   C2035     1.0  0.85072  0.13751  0.35447  1.0000
  C   C2036     1.0  0.84462  0.15059  0.36444  1.0000
  C   C2037     1.0  0.82809  0.16129  0.36355  1.0000
  C   C2038     1.0  0.81799  0.15915  0.35253  1.0000
  H   H3481     1.0  0.84555  0.12554  0.33554  1.0000
  H   H3482     1.0  0.86360  0.12934  0.35485  1.0000
  H   H3483     1.0  0.82336  0.17155  0.37090  1.0000
  H   H3484     1.0  0.80549  0.16777  0.35147  1.0000
  C   C2039     1.0  0.77756  0.14563  0.42578  1.0000
  C   C2040     1.0  0.76992  0.15135  0.44142  1.0000
  C   C2041     1.0  0.77997  0.15745  0.44968  1.0000
  C   C2042     1.0  0.79776  0.15736  0.44255  1.0000
  C   C2043     1.0  0.80565  0.15045  0.42759  1.0000
  C   C2044     1.0  0.79547  0.14499  0.41895  1.0000
  H   H3485     1.0  0.79594  0.03704  0.24527  1.0000
  N   N146      1.0  0.79624  0.10158  0.38321  1.0000
  H   H3486     1.0  0.81959  0.14960  0.42246  1.0000
  H   H3487     1.0  0.80150  0.14038  0.40696  1.0000
  H   H3488     1.0  0.88849  0.21960  0.04352  1.0000
  H   H3489     1.0  0.78141  0.18341  0.14272  1.0000
  C   C2045     1.0  0.87906  0.19334  0.45521  1.0000
  C   C2046     1.0  0.87960  0.20860  0.44258  1.0000
  C   C2047     1.0  0.88143  0.22362  0.44723  1.0000
  C   C2048     1.0  0.88241  0.22345  0.46445  1.0000
  H   H3490     1.0  0.85593  0.08051  0.98977  1.0000
  H   H3491     1.0  0.87804  0.18162  0.45168  1.0000
  H   H3492     1.0  0.88205  0.23544  0.43749  1.0000
  H   H3493     1.0  0.78381  0.10260  0.23698  1.0000
  C   C2049     1.0  0.79116  0.06207  0.20636  1.0000
  C   C2050     1.0  0.79124  0.05039  0.24790  1.0000
  H   H3494     1.0  0.79105  0.12960  0.38045  1.0000
  H   H3495     1.0  0.80487  0.27754  0.42065  1.0000
  H   H3496     1.0  0.83541  0.07657  0.20654  1.0000
  H   H3497     1.0  0.83351  0.09904  0.22143  1.0000
  H   H3498     1.0  0.79348  0.09135  0.36208  1.0000
  C   C2051     1.0  0.76856  0.12368  0.37472  1.0000
  H   H3499     1.0  0.78677  0.04895  0.26223  1.0000
  H   H3500     1.0  0.76048  0.12136  0.38799  1.0000
  H   H3501     1.0  0.79675  0.14729  0.01287  1.0000
  C   C2052     1.0  0.80570  0.06127  0.24199  1.0000
  C   C2053     1.0  0.84654  0.00844  0.16105  1.0000
  H   H3502     1.0  0.75167  0.18330  0.42371  1.0000
  H   H3503     1.0  0.76656  0.08498  0.37274  1.0000
  H   H3504     1.0  0.76459  0.13771  0.36911  1.0000
  C   C2054     1.0  0.87712  0.28526  0.00205  1.0000
  C   C2055     1.0  0.77648  0.22215  0.02364  1.0000
  H   H3505     1.0  0.83298  0.03915  0.22841  1.0000
  H   H3506     1.0  0.82878  0.05492  0.19039  1.0000
  C   C2056     1.0  0.83800  0.26157  0.04632  1.0000
  C   C2057     1.0  0.83717  0.26574  0.06248  1.0000
  H   H3507     1.0  0.83875  0.03283  0.19779  1.0000
  H   H3508     1.0  0.83900  0.06686  0.22780  1.0000
  H   H3509     1.0  0.81309  0.15989  0.02759  1.0000
  H   H3510     1.0  0.84135  0.24813  0.04488  1.0000
  H   H3511     1.0  0.84003  0.25546  0.07342  1.0000
  C   C2058     1.0  0.77326  0.08336  0.38368  1.0000
  H   H3512     1.0  0.84049  0.09743  0.99904  1.0000
  C   C2059     1.0  0.82414  0.04592  0.21903  1.0000
  C   C2060     1.0  0.75413  0.27573  0.10414  1.0000
  C   C2061     1.0  0.82401  0.17631  0.00410  1.0000
  C   C2062     1.0  0.81388  0.16389  0.01368  1.0000
  C   C2063     1.0  0.80457  0.15678  0.00538  1.0000
  H   H3513     1.0  0.84828  0.04979  0.19976  1.0000
  C   C2064     1.0  0.82227  0.09218  0.22542  1.0000
  C   C2065     1.0  0.86358  0.04204  0.24400  1.0000
  C   C2066     1.0  0.87240  0.05593  0.23753  1.0000
  C   C2067     1.0  0.86654  0.07119  0.24425  1.0000
  C   C2068     1.0  0.85191  0.07281  0.25782  1.0000
  C   C2069     1.0  0.84314  0.05878  0.26476  1.0000
  C   C2070     1.0  0.84894  0.04338  0.25778  1.0000
  H   H3514     1.0  0.88375  0.05502  0.22701  1.0000
  H   H3515     1.0  0.87344  0.08186  0.23883  1.0000
  H   H3516     1.0  0.83186  0.05987  0.27533  1.0000
  H   H3517     1.0  0.84216  0.03262  0.26303  1.0000
  H   H3518     1.0  0.81989  0.10771  0.35016  1.0000
  H   H3519     1.0  0.80880  0.07983  0.19885  1.0000
  C   C2071     1.0  0.77231  0.31699  0.39089  1.0000
  C   C2072     1.0  0.80177  0.07307  0.21139  1.0000
  H   H3520     1.0  0.79218  0.08357  0.21731  1.0000
  H   H3521     1.0  0.75657  0.04650  0.39830  1.0000
  C   C2073     1.0  0.78985  0.00165  0.16527  1.0000
  C   C2074     1.0  0.79650  0.00933  0.17540  1.0000
  C   C2075     1.0  0.80313  0.99928  0.19002  1.0000
  S   S591      1.0  0.83037  0.23335  0.99115  1.0000
  H   H3522     1.0  0.80092  0.21341  0.99531  1.0000
  H   H3523     1.0  0.78516  0.00947  0.15382  1.0000
  H   H3524     1.0  0.79670  0.02309  0.17177  1.0000
  C   C2076     1.0  0.75405  0.24812  0.99942  1.0000
  S   S592      1.0  0.76358  0.12789  0.01686  1.0000
  N   N147      1.0  0.86912  0.19453  0.32585  1.0000
  C   C2077     1.0  0.87492  0.19105  0.34302  1.0000
  C   C2078     1.0  0.85404  0.21001  0.32590  1.0000
  C   C2079     1.0  0.88439  0.19917  0.31166  1.0000
  C   C2080     1.0  0.86415  0.17832  0.32401  1.0000
  C   C2081     1.0  0.89116  0.17640  0.34548  1.0000
  S   S593      1.0  0.75687  0.02003  0.13520  1.0000
  C   C2082     1.0  0.88134  0.20385  0.29287  1.0000
  C   C2083     1.0  0.85103  0.18064  0.31201  1.0000
  H   H3525     1.0  0.87770  0.20306  0.34533  1.0000
  H   H3526     1.0  0.86424  0.18727  0.35402  1.0000
  H   H3527     1.0  0.84897  0.21365  0.31369  1.0000
  H   H3528     1.0  0.85857  0.22177  0.32655  1.0000
  H   H3529     1.0  0.88885  0.21030  0.31395  1.0000
  H   H3530     1.0  0.89590  0.18816  0.31169  1.0000
  H   H3531     1.0  0.87610  0.16876  0.31962  1.0000
  H   H3532     1.0  0.85791  0.17171  0.33693  1.0000
  H   H3533     1.0  0.89250  0.17367  0.35931  1.0000
  H   H3534     1.0  0.88979  0.16404  0.34283  1.0000
  H   H3535     1.0  0.90351  0.18029  0.33754  1.0000
  H   H3536     1.0  0.79957  0.25827  0.05724  1.0000
  C   C2084     1.0  0.79881  0.04684  0.31993  1.0000
  H   H3537     1.0  0.88029  0.26615  0.04646  1.0000
  H   H3538     1.0  0.87028  0.21497  0.29078  1.0000
  H   H3539     1.0  0.87958  0.19238  0.28877  1.0000
  H   H3540     1.0  0.89329  0.20786  0.28399  1.0000
  H   H3541     1.0  0.85431  0.16905  0.30590  1.0000
  H   H3542     1.0  0.85101  0.19212  0.30129  1.0000
  H   H3543     1.0  0.83747  0.18060  0.31976  1.0000
  H   H3544     1.0  0.80136  0.07523  0.37911  1.0000
  Fe  Fe292     1.0  0.78520  0.11361  0.29867  1.0000
  C   C2085     1.0  0.75040  0.18574  0.38893  1.0000
  C   C2086     1.0  0.74988  0.07259  0.27682  1.0000
  S   S594      1.0  0.87142  0.02389  0.23366  1.0000
  H   H3545     1.0  0.75129  0.10401  0.34857  1.0000
  H   H3546     1.0  0.74785  0.06801  0.22972  1.0000
  H   H3547     1.0  0.74708  0.31021  0.39057  1.0000
  H   H3548     1.0  0.82266  0.08920  0.38783  1.0000
  C   C2087     1.0  0.76036  0.01363  0.21400  1.0000
  S   S595      1.0  0.80072  0.06293  0.34515  1.0000
  C   C2088     1.0  0.83407  0.27480  0.03220  1.0000
  C   C2089     1.0  0.75727  0.07236  0.03580  1.0000
  C   C2090     1.0  0.80732  0.11769  0.46950  1.0000
  S   S596      1.0  0.81572  0.31048  0.45053  1.0000
  H   H3549     1.0  0.81394  0.30666  0.39825  1.0000
  H   H3550     1.0  0.77444  0.06943  0.39015  1.0000
  H   H3551     1.0  0.78390  0.26619  0.03332  1.0000
  H   H3552     1.0  0.76698  0.19634  0.00032  1.0000
  H   H3553     1.0  0.76237  0.31609  0.06642  1.0000
  Fe  Fe293     1.0  0.76370  0.99108  0.13902  1.0000
  C   C2091     1.0  0.81600  0.10021  0.37899  1.0000
  H   H3554     1.0  0.81457  0.11888  0.45581  1.0000
  N   N148      1.0  0.80997  0.08864  0.99298  1.0000
  H   H3555     1.0  0.76452  0.09112  0.39309  1.0000
  H   H3556     1.0  0.76544  0.11637  0.36633  1.0000
  S   S597      1.0  0.76753  0.99106  0.11046  1.0000
  H   H3557     1.0  0.77043  0.18835  0.03858  1.0000
  C   C2092     1.0  0.82492  0.18145  0.98614  1.0000
  C   C2093     1.0  0.84327  0.12679  0.45887  1.0000
  H   H3558     1.0  0.82179  0.22531  0.45731  1.0000
  C   C2094     1.0  0.79834  0.06057  0.99620  1.0000
  H   H3559     1.0  0.74977  0.19883  0.03212  1.0000
  C   C2095     1.0  0.76087  0.29563  0.43876  1.0000
  H   H3560     1.0  0.76595  0.30041  0.37607  1.0000
  C   C2096     1.0  0.79181  0.08772  0.37649  1.0000
  N   N149      1.0  0.81467  0.06350  0.22305  1.0000
  C   C2097     1.0  0.75680  0.28042  0.05321  1.0000
  C   C2098     1.0  0.76393  0.25108  0.47249  1.0000
  Fe  Fe294     1.0  0.88103  0.22321  0.98475  1.0000
  C   C2099     1.0  0.85489  0.28659  0.47677  1.0000
  H   H3561     1.0  0.74723  0.06743  0.31847  1.0000
  C   C2100     1.0  0.78963  0.03964  0.31172  1.0000
  H   H3562     1.0  0.75580  0.07632  0.26287  1.0000
  N   N150      1.0  0.77315  0.28807  0.04654  1.0000
  H   H3563     1.0  0.84128  0.23314  0.45497  1.0000
  C   C2101     1.0  0.76879  0.30763  0.04104  1.0000
  C   C2102     1.0  0.78509  0.27995  0.03170  1.0000
  H   H3564     1.0  0.80454  0.26239  0.40815  1.0000
  H   H3565     1.0  0.81124  0.05041  0.31304  1.0000
  C   C2103     1.0  0.75275  0.00192  0.39651  1.0000
  C   C2104     1.0  0.78316  0.28927  0.01297  1.0000
  H   H3566     1.0  0.77191  0.25845  0.47614  1.0000
  H   H3567     1.0  0.75750  0.17192  0.39053  1.0000
  H   H3568     1.0  0.89551  0.23211  0.01318  1.0000
  S   S598      1.0  0.76071  0.02895  0.30926  1.0000
  H   H3569     1.0  0.75360  0.20174  0.14518  1.0000
  H   H3570     1.0  0.80459  0.21892  0.02372  1.0000
  C   C2105     1.0  0.86313  0.99500  0.15550  1.0000
  H   H3571     1.0  0.76622  0.03968  0.18310  1.0000
  H   H3572     1.0  0.76679  0.00387  0.20573  1.0000
  C   C2106     1.0  0.83162  0.12515  0.47731  1.0000
  C   C2107     1.0  0.78306  0.28402  0.06114  1.0000
  C   C2108     1.0  0.82883  0.07889  0.99122  1.0000
  H   H3573     1.0  0.75235  0.22418  0.99333  1.0000
  Fe  Fe295     1.0  0.77013  0.14261  0.98946  1.0000
  C   C2109     1.0  0.76461  0.05377  0.06861  1.0000
  C   C2110     1.0  0.75982  0.31210  0.38182  1.0000
  H   H3574     1.0  0.83388  0.09221  0.46726  1.0000
  H   H3575     1.0  0.79122  0.28080  0.00377  1.0000
  H   H3576     1.0  0.80144  0.20007  0.35388  1.0000
  C   C2111     1.0  0.79051  0.26460  0.06768  1.0000
  C   C2112     1.0  0.79255  0.20359  0.36592  1.0000
  H   H3577     1.0  0.77466  0.28887  0.07270  1.0000
  H   H3578     1.0  0.81812  0.09124  0.23971  1.0000
  H   H3579     1.0  0.81505  0.03704  0.22079  1.0000
  H   H3580     1.0  0.76510  0.22091  0.03474  1.0000
  C   C2113     1.0  0.75492  0.21672  0.38237  1.0000
  N   N151      1.0  0.77341  0.21775  0.00772  1.0000
  H   H3581     1.0  0.76960  0.29378  0.10508  1.0000
  H   H3582     1.0  0.78792  0.21790  0.36311  1.0000
  H   H3583     1.0  0.76639  0.02528  0.20939  1.0000
  C   C2114     1.0  0.77329  0.03564  0.32036  1.0000
  C   C2115     1.0  0.75638  0.19458  0.13447  1.0000
  S   S599      1.0  0.86338  0.22048  0.01144  1.0000
  Fe  Fe296     1.0  0.83114  0.99406  0.21867  1.0000
  C   C2116     1.0  0.89126  0.27314  0.04075  1.0000
  H   H3584     1.0  0.87503  0.25864  0.00463  1.0000
  H   H3585     1.0  0.84318  0.00716  0.17539  1.0000
  H   H3586     1.0  0.80009  0.09974  0.03418  1.0000
  C   C2117     1.0  0.78848  0.28774  0.40058  1.0000
  Fe  Fe297     1.0  0.75150  0.11226  0.00537  1.0000
  C   C2118     1.0  0.83804  0.20790  0.34093  1.0000
  H   H3587     1.0  0.78341  0.17939  0.37296  1.0000
  H   H3588     1.0  0.88366  0.23511  0.46792  1.0000
  H   H3589     1.0  0.76160  0.20381  0.12271  1.0000
  C   C2119     1.0  0.79966  0.99022  0.29773  1.0000
  H   H3590     1.0  0.79430  0.29091  0.05726  1.0000
  C   C2120     1.0  0.83381  0.18033  0.47620  1.0000
  H   H3591     1.0  0.75448  0.01209  0.40260  1.0000
  H   H3592     1.0  0.77154  0.21520  0.44589  1.0000
  H   H3593     1.0  0.76715  0.16813  0.14800  1.0000
  H   H3594     1.0  0.79827  0.26365  0.07765  1.0000
  C   C2121     1.0  0.89902  0.23864  0.02211  1.0000
  H   H3595     1.0  0.93039  0.30539  0.47997  1.0000
  C   C2122     1.0  0.92927  0.24966  0.99559  1.0000
  H   H3596     1.0  0.79712  0.05928  0.19316  1.0000
  C   C2123     1.0  0.78843  0.11965  0.37451  1.0000
  S   S600      1.0  0.83034  0.28805  0.08532  1.0000
  H   H3597     1.0  0.79922  0.07403  0.24563  1.0000
  H   H3598     1.0  0.81556  0.05531  0.25041  1.0000
  H   H3599     1.0  0.77022  0.04765  0.35870  1.0000
  H   H3600     1.0  0.77958  0.05719  0.24212  1.0000
  H   H3601     1.0  0.78929  0.04979  0.21557  1.0000
  C   C2124     1.0  0.82857  0.07413  0.22041  1.0000
  C   C2125     1.0  0.77274  0.11139  0.26104  1.0000
  C   C2126     1.0  0.76899  0.07019  0.06144  1.0000
  C   C2127     1.0  0.79051  0.09983  0.40267  1.0000
  H   H3602     1.0  0.79663  0.10836  0.40734  1.0000
  S   S601      1.0  0.75363  0.08310  0.01470  1.0000
  C   C2128     1.0  0.83235  0.30687  0.46247  1.0000
  C   C2129     1.0  0.79444  0.10580  0.47115  1.0000
  H   H3603     1.0  0.77621  0.10471  0.40664  1.0000
  S   S602      1.0  0.83430  0.27049  0.01172  1.0000
  C   C2130     1.0  0.83449  0.22214  0.46164  1.0000
  S   S603      1.0  0.75830  0.12292  0.29161  1.0000
  H   H3604     1.0  0.82198  0.09233  0.02376  1.0000
  C   C2131     1.0  0.90476  0.26648  0.02525  1.0000
  C   C2132     1.0  0.79462  0.08120  0.41350  1.0000
  H   H3605     1.0  0.80737  0.07334  0.40827  1.0000
  H   H3606     1.0  0.79490  0.08196  0.42694  1.0000
  C   C2133     1.0  0.83213  0.28311  0.06471  1.0000
  C   C2134     1.0  0.84214  0.29000  0.46655  1.0000
  H   H3607     1.0  0.81622  0.11456  0.98627  1.0000
  H   H3608     1.0  0.75606  0.15200  0.44667  1.0000
  H   H3609     1.0  0.89818  0.27190  0.05146  1.0000
  S   S604      1.0  0.85923  0.99656  0.20796  1.0000
  H   H3610     1.0  0.84926  0.02174  0.15566  1.0000
  H   H3611     1.0  0.76814  0.09235  0.04021  1.0000
  H   H3612     1.0  0.78412  0.07400  0.41463  1.0000
  C   C2135     1.0  0.75587  0.11139  0.23978  1.0000
  H   H3613     1.0  0.79020  0.23541  0.99145  1.0000
  H   H3614     1.0  0.83422  0.19518  0.34302  1.0000
  S   S605      1.0  0.78742  0.11130  0.32623  1.0000
  H   H3615     1.0  0.79233  0.05445  0.98884  1.0000
  H   H3616     1.0  0.78954  0.06039  0.00918  1.0000
  H   H3617     1.0  0.79147  0.30343  0.42676  1.0000
  H   H3618     1.0  0.84058  0.20952  0.35326  1.0000
  H   H3619     1.0  0.76948  0.29243  0.01092  1.0000
  H   H3620     1.0  0.75094  0.10992  0.32640  1.0000
  C   C2136     1.0  0.77192  0.10787  0.24518  1.0000
  H   H3621     1.0  0.83555  0.13363  0.44866  1.0000
  H   H3622     1.0  0.80063  0.20000  0.37603  1.0000
  H   H3623     1.0  0.77382  0.16287  0.46116  1.0000
  H   H3624     1.0  0.82658  0.21827  0.33789  1.0000
  C   C2137     1.0  0.82844  0.29629  0.05048  1.0000
  H   H3625     1.0  0.76061  0.17780  0.02759  1.0000
  H   H3626     1.0  0.82677  0.16930  0.48096  1.0000
  H   H3627     1.0  0.77188  0.19634  0.35884  1.0000
  H   H3628     1.0  0.80885  0.11283  0.01441  1.0000
  H   H3629     1.0  0.78526  0.10869  0.26499  1.0000
  H   H3630     1.0  0.78113  0.31289  0.03660  1.0000
  H   H3631     1.0  0.91259  0.23194  0.02369  1.0000
  Fe  Fe298     1.0  0.75810  0.02024  0.10701  1.0000
  H   H3632     1.0  0.85294  0.13494  0.45789  1.0000
  C   C2138     1.0  0.77738  0.19354  0.37080  1.0000
  Fe  Fe299     1.0  0.81291  0.31391  0.09011  1.0000
  C   C2139     1.0  0.79958  0.07931  0.98629  1.0000
  H   H3633     1.0  0.79767  0.19867  0.02718  1.0000
  S   S606      1.0  0.91047  0.21905  0.98204  1.0000
  H   H3634     1.0  0.79149  0.21032  0.04425  1.0000
  H   H3635     1.0  0.75371  0.03564  0.34402  1.0000
  H   H3636     1.0  0.74884  0.28527  0.06505  1.0000
  H   H3637     1.0  0.79928  0.13084  0.47077  1.0000
  H   H3638     1.0  0.76081  0.06534  0.28359  1.0000
  H   H3639     1.0  0.79494  0.03776  0.29851  1.0000
  H   H3640     1.0  0.76020  0.26606  0.05746  1.0000
  H   H3641     1.0  0.80256  0.07555  0.01983  1.0000
  H   H3642     1.0  0.82494  0.30975  0.05185  1.0000
  H   H3643     1.0  0.79959  0.29095  0.38982  1.0000
  C   C2140     1.0  0.76655  0.03805  0.33749  1.0000
  H   H3644     1.0  0.75668  0.01506  0.18107  1.0000
  H   H3645     1.0  0.82793  0.18939  0.46560  1.0000
  C   C2141     1.0  0.87971  0.26613  0.01182  1.0000
  C   C2142     1.0  0.74707  0.10169  0.09376  1.0000
  H   H3646     1.0  0.75262  0.18875  0.10524  1.0000
  H   H3647     1.0  0.87021  0.26578  0.02429  1.0000
  H   H3648     1.0  0.76793  0.19082  0.42960  1.0000
  H   H3649     1.0  0.76218  0.31165  0.02977  1.0000
  H   H3650     1.0  0.76330  0.07744  0.32248  1.0000
  S   S607      1.0  0.79387  0.31818  0.11524  1.0000
  C   C2143     1.0  0.75667  0.29211  0.10479  1.0000
  C   C2144     1.0  0.80573  0.16174  0.98736  1.0000
  H   H3651     1.0  0.80683  0.99834  0.28635  1.0000
  C   C2145     1.0  0.88063  0.19302  0.47223  1.0000
  Fe  Fe300     1.0  0.85867  0.00171  0.23420  1.0000
  H   H3652     1.0  0.89199  0.23751  0.05038  1.0000
  H   H3653     1.0  0.86796  0.99957  0.14135  1.0000
  C   C2146     1.0  0.76279  0.19067  0.02823  1.0000
  H   H3654     1.0  0.77993  0.25717  0.07415  1.0000
  H   H3655     1.0  0.75702  0.25959  0.46222  1.0000
  H   H3656     1.0  0.78072  0.28170  0.39494  1.0000
  Fe  Fe301     1.0  0.84792  0.20809  0.99969  1.0000
  H   H3657     1.0  0.75112  0.27675  0.02928  1.0000
  H   H3658     1.0  0.75717  0.00602  0.38225  1.0000
  C   C2147     1.0  0.75666  0.31774  0.05486  1.0000
  H   H3659     1.0  0.79909  0.27932  0.03174  1.0000
  S   S608      1.0  0.83013  0.00098  0.24421  1.0000
  S   S609      1.0  0.77019  0.04250  0.08885  1.0000
  C   C2148     1.0  0.79622  0.27320  0.41449  1.0000
  H   H3660     1.0  0.86253  0.27358  0.47963  1.0000
  H   H3661     1.0  0.76388  0.25238  0.98786  1.0000
  H   H3662     1.0  0.78064  0.20235  0.40035  1.0000
  N   N152      1.0  0.77742  0.30396  0.40664  1.0000
  H   H3663     1.0  0.75471  0.25346  0.01055  1.0000
  H   H3664     1.0  0.78576  0.26766  0.42445  1.0000
  C   C2149     1.0  0.76501  0.07960  0.04531  1.0000
  H   H3665     1.0  0.90449  0.25405  0.98761  1.0000
  H   H3666     1.0  0.78636  0.19069  0.00849  1.0000
  S   S610      1.0  0.75556  0.10559  0.22026  1.0000
  H   H3667     1.0  0.74842  0.05129  0.24826  1.0000
  N   N153      1.0  0.89818  0.25773  0.01433  1.0000
  S   S611      1.0  0.75936  0.09751  0.44700  1.0000
  H   H3668     1.0  0.87316  0.99649  0.16219  1.0000
  C   C2150     1.0  0.77585  0.04501  0.34578  1.0000
  H   H3669     1.0  0.77542  0.07570  0.06847  1.0000
  H   H3670     1.0  0.77731  0.23609  0.02118  1.0000
  H   H3671     1.0  0.75532  0.06167  0.17682  1.0000
  C   C2151     1.0  0.79169  0.04997  0.33675  1.0000
  H   H3672     1.0  0.75636  0.28935  0.41597  1.0000
  C   C2152     1.0  0.77178  0.19326  0.40178  1.0000
  C   C2153     1.0  0.75744  0.11866  0.27158  1.0000
  H   H3673     1.0  0.79234  0.99903  0.30679  1.0000
  C   C2154     1.0  0.78821  0.22197  0.99278  1.0000
  C   C2155     1.0  0.88739  0.23395  0.04012  1.0000
  C   C2156     1.0  0.77162  0.17907  0.13798  1.0000
  H   H3674     1.0  0.84312  0.21053  0.45707  1.0000
  H   H3675     1.0  0.85083  0.11404  0.45593  1.0000
  C   C2157     1.0  0.75793  0.24910  0.41462  1.0000
  H   H3676     1.0  0.83498  0.00777  0.15630  1.0000
  C   C2158     1.0  0.84310  0.08957  0.98895  1.0000
  H   H3677     1.0  0.75371  0.04560  0.16602  1.0000
  H   H3678     1.0  0.78464  0.11272  0.46286  1.0000
  H   H3679     1.0  0.90981  0.27812  0.01698  1.0000
  H   H3680     1.0  0.74865  0.29097  0.44596  1.0000
  H   H3681     1.0  0.76400  0.22472  0.38336  1.0000
  H   H3682     1.0  0.80131  0.09377  0.46619  1.0000
  H   H3683     1.0  0.74859  0.18497  0.36233  1.0000
  C   C2159     1.0  0.75587  0.22817  0.00403  1.0000
  C   C2160     1.0  0.75743  0.23752  0.43068  1.0000
  H   H3684     1.0  0.88350  0.29329  0.00689  1.0000
  N   N154      1.0  0.76313  0.19761  0.38624  1.0000
  C   C2161     1.0  0.75630  0.04676  0.05942  1.0000
  H   H3685     1.0  0.93064  0.23532  0.99806  1.0000
  C   C2162     1.0  0.80152  0.08894  0.01179  1.0000
  C   C2163     1.0  0.75294  0.05590  0.04293  1.0000
  C   C2164     1.0  0.79356  0.21197  0.02990  1.0000
  H   H3686     1.0  0.77215  0.28542  0.44224  1.0000
  C   C2165     1.0  0.80879  0.09916  0.02121  1.0000
  H   H3687     1.0  0.76074  0.30747  0.44342  1.0000
  H   H3688     1.0  0.75329  0.22093  0.36857  1.0000
  H   H3689     1.0  0.76327  0.00762  0.22715  1.0000
  H   H3690     1.0  0.75448  0.08802  0.09541  1.0000
  C   C2166     1.0  0.75419  0.04785  0.17889  1.0000
  H   H3691     1.0  0.75481  0.16824  0.11986  1.0000
  H   H3692     1.0  0.75112  0.20648  0.42069  1.0000
  C   C2167     1.0  0.80817  0.10708  0.98275  1.0000
  H   H3693     1.0  0.75697  0.11016  0.08957  1.0000
  H   H3694     1.0  0.75291  0.03409  0.06476  1.0000
  H   H3695     1.0  0.74964  0.31153  0.41777  1.0000
  H   H3696     1.0  0.76163  0.98948  0.40062  1.0000
  H   H3697     1.0  0.80581  0.20749  0.47535  1.0000
  C   C2168     1.0  0.78749  0.31216  0.41487  1.0000
  H   H3698     1.0  0.79444  0.11433  0.98605  1.0000
  H   H3699     1.0  0.78411  0.31931  0.38066  1.0000
  H   H3700     1.0  0.78585  0.08683  0.98635  1.0000
  H   H3701     1.0  0.93552  0.25327  0.00462  1.0000
  H   H3702     1.0  0.88202  0.28613  0.98783  1.0000
  C   C2169     1.0  0.84855  0.31703  0.47843  1.0000
  H   H3703     1.0  0.76953  0.99490  0.33470  1.0000
  H   H3704     1.0  0.91031  0.27291  0.99022  1.0000
  H   H3705     1.0  0.74739  0.99047  0.17817  1.0000
  H   H3706     1.0  0.82379  0.13838  0.47872  1.0000
  H   H3707     1.0  0.75571  0.13395  0.48109  1.0000
  C   C2170     1.0  0.83229  0.22025  0.48138  1.0000
  Fe  Fe302     1.0  0.85066  0.23512  0.96642  1.0000
  H   H3708     1.0  0.77499  0.25274  0.50419  1.0000
  S   S612      1.0  0.84405  0.24413  0.93991  1.0000
  S   S613      1.0  0.99438  0.21612  0.86609  1.0000
  H   H3709     1.0  0.80989  0.07835  0.49106  1.0000
  C   C2171     1.0  0.75403  0.11542  0.50531  1.0000
  H   H3710     1.0  0.75247  0.18665  0.87638  1.0000
  C   C2172     1.0  0.81600  0.17402  0.97780  1.0000
  Fe  Fe303     1.0  0.97450  0.13093  0.73725  1.0000
  H   H3711     1.0  0.91620  0.24886  0.66748  1.0000
  S   S614      1.0  0.96257  0.14455  0.71357  1.0000
  Fe  Fe304     1.0  0.97783  0.13758  0.77183  1.0000
  S   S615      1.0  0.96348  0.15790  0.78804  1.0000
  H   H3712     1.0  0.93315  0.20948  0.60605  1.0000
  S   S616      1.0  0.96184  0.12184  0.76497  1.0000
  Fe  Fe305     1.0  0.98038  0.24022  0.85088  1.0000
  S   S617      1.0  0.97069  0.22588  0.83588  1.0000
  C   C2173     1.0  0.99108  0.25558  0.88825  1.0000
  Fe  Fe306     1.0  0.96868  0.21698  0.88559  1.0000
  S   S618      1.0  0.95882  0.19990  0.87358  1.0000
  S   S619      1.0  0.97007  0.21399  0.91379  1.0000
  Fe  Fe307     1.0  0.98293  0.20170  0.85246  1.0000
  C   C2174     1.0  0.82318  0.07847  0.49263  1.0000
  Fe  Fe308     1.0  0.94737  0.22523  0.85785  1.0000
  S   S620      1.0  0.92054  0.22912  0.85225  1.0000
  H   H3713     1.0  0.98995  0.15510  0.59705  1.0000
  S   S621      1.0  0.95549  0.24226  0.87122  1.0000
  S   S622      1.0  0.92479  0.23536  0.54699  1.0000
  N   N155      1.0  0.79634  0.30756  0.52622  1.0000
  S   S623      1.0  0.77306  0.14884  0.57625  1.0000
  H   H3714     1.0  0.90889  0.30962  0.49368  1.0000
  Fe  Fe309     1.0  0.77447  0.19671  0.55403  1.0000
  S   S624      1.0  0.79710  0.17478  0.54939  1.0000
  S   S625      1.0  0.77719  0.22360  0.53943  1.0000
  Fe  Fe310     1.0  0.77686  0.16062  0.54755  1.0000
  S   S626      1.0  0.78068  0.15087  0.52245  1.0000
  Fe  Fe311     1.0  0.79103  0.16558  0.57846  1.0000
  S   S627      1.0  0.81377  0.15737  0.59310  1.0000
  S   S628      1.0  0.75466  0.18353  0.55030  1.0000
  S   S629      1.0  0.76947  0.18861  0.58306  1.0000
  Fe  Fe312     1.0  0.86921  0.17455  0.69237  1.0000
  S   S630      1.0  0.84015  0.18612  0.69819  1.0000
  S   S631      1.0  0.88183  0.15282  0.71194  1.0000
  Fe  Fe313     1.0  0.87547  0.20053  0.65913  1.0000
  S   S632      1.0  0.84755  0.21466  0.66247  1.0000
  S   S633      1.0  0.89434  0.21039  0.63540  1.0000
  Fe  Fe314     1.0  0.84895  0.21172  0.69037  1.0000
  S   S634      1.0  0.83756  0.23490  0.70345  1.0000
  Fe  Fe315     1.0  0.84097  0.18801  0.66959  1.0000
  S   S635      1.0  0.81763  0.18644  0.65864  1.0000
  S   S636      1.0  0.87767  0.20016  0.68631  1.0000
  S   S637      1.0  0.86925  0.17395  0.66455  1.0000
  Fe  Fe316     1.0  0.86117  0.24534  0.54180  1.0000
  S   S638      1.0  0.83758  0.24328  0.56317  1.0000
  N   N156      1.0  0.97600  0.28156  0.78604  1.0000
  S   S639      1.0  0.87826  0.26433  0.53888  1.0000
  Fe  Fe317     1.0  0.96395  0.24808  0.64409  1.0000
  S   S640      1.0  0.95781  0.22281  0.66029  1.0000
  H   H3715     1.0  0.93935  0.25253  0.67512  1.0000
  H   H3716     1.0  0.82399  0.12293  0.51385  1.0000
  Fe  Fe318     1.0  0.75204  0.17287  0.57886  1.0000
  S   S641      1.0  0.88351  0.22265  0.53946  1.0000
  H   H3717     1.0  0.90533  0.22570  0.68978  1.0000
  C   C2175     1.0  0.94581  0.30268  0.53951  1.0000
  C   C2176     1.0  0.79409  0.25830  0.93274  1.0000
  C   C2177     1.0  0.92826  0.24711  0.56130  1.0000
  C   C2178     1.0  0.91558  0.26100  0.56686  1.0000
  C   C2179     1.0  0.91959  0.27127  0.57659  1.0000
  H   H3718     1.0  0.90288  0.26419  0.56321  1.0000
  H   H3719     1.0  0.90997  0.28243  0.58021  1.0000
  C   C2180     1.0  0.91185  0.21394  0.64239  1.0000
  C   C2181     1.0  0.91725  0.20327  0.65733  1.0000
  C   C2182     1.0  0.93129  0.20609  0.66300  1.0000
  C   C2183     1.0  0.94006  0.21947  0.65355  1.0000
  C   C2184     1.0  0.93485  0.22995  0.63840  1.0000
  C   C2185     1.0  0.92067  0.22726  0.63288  1.0000
  H   H3720     1.0  0.91086  0.19257  0.66428  1.0000
  H   H3721     1.0  0.93543  0.19784  0.67459  1.0000
  H   H3722     1.0  0.94199  0.23984  0.63063  1.0000
  H   H3723     1.0  0.91662  0.23545  0.62121  1.0000
  S   S642      1.0  0.76230  0.27080  0.95156  1.0000
  C   C2186     1.0  0.85504  0.25766  0.73341  1.0000
  C   C2187     1.0  0.84567  0.25452  0.72232  1.0000
  C   C2188     1.0  0.84926  0.23820  0.71773  1.0000
  C   C2189     1.0  0.86204  0.22489  0.72459  1.0000
  C   C2190     1.0  0.87130  0.22800  0.73581  1.0000
  C   C2191     1.0  0.80561  0.29066  0.76355  1.0000
  H   H3724     1.0  0.83577  0.26484  0.71707  1.0000
  H   H3725     1.0  0.86478  0.21221  0.72123  1.0000
  H   H3726     1.0  0.88140  0.21780  0.74075  1.0000
  C   C2192     1.0  0.81472  0.16560  0.61129  1.0000
  C   C2193     1.0  0.80112  0.17818  0.61804  1.0000
  C   C2194     1.0  0.80226  0.18438  0.63250  1.0000
  C   C2195     1.0  0.81710  0.17824  0.64030  1.0000
  C   C2196     1.0  0.83072  0.16562  0.63356  1.0000
  C   C2197     1.0  0.82953  0.15936  0.61914  1.0000
  H   H3727     1.0  0.78962  0.18285  0.61227  1.0000
  H   H3728     1.0  0.79152  0.19389  0.63780  1.0000
  H   H3729     1.0  0.84200  0.16040  0.63970  1.0000
  H   H3730     1.0  0.84003  0.14945  0.61418  1.0000
  C   C2198     1.0  0.79455  0.22867  0.54547  1.0000
  C   C2199     1.0  0.80188  0.21775  0.55926  1.0000
  C   C2200     1.0  0.81536  0.22204  0.56453  1.0000
  C   C2201     1.0  0.82193  0.23697  0.55564  1.0000
  C   C2202     1.0  0.81539  0.24728  0.54116  1.0000
  C   C2203     1.0  0.80140  0.24340  0.53629  1.0000
  H   H3731     1.0  0.79716  0.20603  0.56602  1.0000
  H   H3732     1.0  0.82067  0.21369  0.57544  1.0000
  H   H3733     1.0  0.82103  0.25834  0.53388  1.0000
  H   H3734     1.0  0.79622  0.25157  0.52523  1.0000
  C   C2204     1.0  0.76829  0.13820  0.51711  1.0000
  C   C2205     1.0  0.76496  0.14216  0.50017  1.0000
  C   C2206     1.0  0.75774  0.13094  0.49432  1.0000
  C   C2207     1.0  0.90066  0.24836  0.70230  1.0000
  H   H3735     1.0  0.98358  0.19750  0.60335  1.0000
  C   C2208     1.0  0.76399  0.12302  0.52833  1.0000
  H   H3736     1.0  0.76855  0.15371  0.49135  1.0000
  H   H3737     1.0  0.81974  0.31279  0.92007  1.0000
  H   H3738     1.0  0.99489  0.19833  0.68455  1.0000
  H   H3739     1.0  0.97255  0.25557  0.92223  1.0000
  H   H3740     1.0  0.92280  0.15829  0.79301  1.0000
  C   C2209     1.0  0.92220  0.31264  0.49016  1.0000
  C   C2210     1.0  0.80792  0.30777  0.53826  1.0000
  S   S643      1.0  0.98920  0.14775  0.74408  1.0000
  C   C2211     1.0  0.88968  0.16692  0.75713  1.0000
  N   N157      1.0  0.81160  0.25939  0.78190  1.0000
  H   H3741     1.0  0.94781  0.31249  0.69694  1.0000
  H   H3742     1.0  0.84484  0.09830  0.97597  1.0000
  H   H3743     1.0  0.89074  0.19238  0.75952  1.0000
  C   C2212     1.0  0.75253  0.20737  0.62172  1.0000
  H   H3744     1.0  0.92531  0.14989  0.75699  1.0000
  H   H3745     1.0  0.78650  0.28359  0.53781  1.0000
  H   H3746     1.0  0.92568  0.20990  0.57921  1.0000
  H   H3747     1.0  0.76862  0.22906  0.57972  1.0000
  H   H3748     1.0  0.94099  0.15836  0.76258  1.0000
  H   H3749     1.0  0.89263  0.24707  0.65595  1.0000
  C   C2213     1.0  0.96400  0.31060  0.67161  1.0000
  H   H3750     1.0  0.95960  0.16969  0.58907  1.0000
  C   C2214     1.0  0.93609  0.26744  0.58133  1.0000
  C   C2215     1.0  0.78698  0.31311  0.96313  1.0000
  H   H3751     1.0  0.99565  0.27263  0.91583  1.0000
  H   H3752     1.0  0.95085  0.17307  0.73608  1.0000
  C   C2216     1.0  0.94842  0.25294  0.57661  1.0000
  C   C2217     1.0  0.80329  0.31718  0.96704  1.0000
  C   C2218     1.0  0.75581  0.23556  0.58662  1.0000
  C   C2219     1.0  0.91848  0.27822  0.82474  1.0000
  C   C2220     1.0  0.97524  0.26300  0.79504  1.0000
  N   N158      1.0  0.95169  0.18489  0.60921  1.0000
  H   H3753     1.0  0.87817  0.26529  0.66392  1.0000
  H   H3754     1.0  0.77661  0.31358  0.97514  1.0000
  H   H3755     1.0  0.92752  0.26329  0.84802  1.0000
  H   H3756     1.0  0.94747  0.21358  0.97537  1.0000
  C   C2221     1.0  0.92087  0.15075  0.78415  1.0000
  C   C2222     1.0  0.94014  0.14649  0.71338  1.0000
  C   C2223     1.0  0.93288  0.15845  0.69995  1.0000
  C   C2224     1.0  0.91502  0.16058  0.69948  1.0000
  C   C2225     1.0  0.90429  0.15061  0.71232  1.0000
  C   C2226     1.0  0.91157  0.13860  0.72574  1.0000
  C   C2227     1.0  0.92942  0.13658  0.72632  1.0000
  H   H3757     1.0  0.94110  0.16612  0.68987  1.0000
  H   H3758     1.0  0.90957  0.16974  0.68906  1.0000
  H   H3759     1.0  0.90338  0.13076  0.73565  1.0000
  H   H3760     1.0  0.93493  0.12719  0.73663  1.0000
  C   C2228     1.0  0.97395  0.16391  0.80187  1.0000
  H   H3761     1.0  0.90432  0.25031  0.71400  1.0000
  H   H3762     1.0  0.76512  0.31670  0.55172  1.0000
  H   H3763     1.0  0.80701  0.29030  0.48835  1.0000
  C   C2229     1.0  0.97239  0.18195  0.82258  1.0000
  C   C2230     1.0  0.96464  0.17695  0.81124  1.0000
  H   H3764     1.0  0.90119  0.26229  0.79895  1.0000
  H   H3765     1.0  0.85239  0.27038  0.73654  1.0000
  H   H3766     1.0  0.96496  0.19185  0.82988  1.0000
  H   H3767     1.0  0.95130  0.18311  0.80988  1.0000
  C   C2231     1.0  0.82154  0.25288  0.94248  1.0000
  C   C2232     1.0  0.81232  0.25246  0.93008  1.0000
  H   H3768     1.0  0.81908  0.24716  0.91867  1.0000
  H   H3769     1.0  0.96739  0.31229  0.75983  1.0000
  C   C2233     1.0  0.92596  0.21811  0.96224  1.0000
  C   C2234     1.0  0.94374  0.21524  0.96301  1.0000
  C   C2235     1.0  0.95681  0.21414  0.94800  1.0000
  C   C2236     1.0  0.95243  0.21591  0.93187  1.0000
  C   C2237     1.0  0.93459  0.21904  0.93085  1.0000
  C   C2238     1.0  0.92133  0.22012  0.94608  1.0000
  S   S644      1.0  0.97379  0.29231  0.61717  1.0000
  H   H3770     1.0  0.97049  0.21162  0.94897  1.0000
  H   H3771     1.0  0.93107  0.22039  0.91845  1.0000
  H   H3772     1.0  0.90762  0.22233  0.94536  1.0000
  S   S645      1.0  0.94169  0.28250  0.59071  1.0000
  C   C2239     1.0  0.99550  0.16972  0.69162  1.0000
  H   H3773     1.0  0.92032  0.17119  0.73340  1.0000
  C   C2240     1.0  0.92660  0.15891  0.76478  1.0000
  C   C2241     1.0  0.94098  0.18446  0.73147  1.0000
  Fe  Fe319     1.0  0.90081  0.24214  0.53431  1.0000
  C   C2242     1.0  0.91799  0.27148  0.68748  1.0000
  H   H3774     1.0  0.91289  0.19336  0.73369  1.0000
  C   C2243     1.0  0.92266  0.18929  0.76700  1.0000
  C   C2244     1.0  0.94456  0.24294  0.56650  1.0000
  H   H3775     1.0  0.83737  0.23305  0.76446  1.0000
  S   S646      1.0  0.94263  0.27128  0.63881  1.0000
  Fe  Fe320     1.0  0.87585  0.27493  0.75959  1.0000
  H   H3776     1.0  0.87536  0.16851  0.76266  1.0000
  H   H3777     1.0  0.92424  0.21667  0.76248  1.0000
  H   H3778     1.0  0.93706  0.24963  0.69853  1.0000
  H   H3779     1.0  0.82280  0.07771  0.50658  1.0000
  H   H3780     1.0  0.88645  0.28871  0.67844  1.0000
  S   S647      1.0  0.82111  0.30814  0.79268  1.0000
  C   C2245     1.0  0.90655  0.26268  0.80982  1.0000
  S   S648      1.0  0.89726  0.29043  0.75248  1.0000
  H   H3781     1.0  0.94315  0.19637  0.73438  1.0000
  H   H3782     1.0  0.93420  0.31604  0.77164  1.0000
  H   H3783     1.0  0.79467  0.23345  0.59583  1.0000
  S   S649      1.0  0.85906  0.25097  0.51390  1.0000
  H   H3784     1.0  0.96575  0.18029  0.63041  1.0000
  H   H3785     1.0  0.81103  0.10782  0.52734  1.0000
  H   H3786     1.0  0.94819  0.29307  0.79261  1.0000
  H   H3787     1.0  0.91263  0.21289  0.74831  1.0000
  H   H3788     1.0  0.95376  0.15360  0.63600  1.0000
  C   C2246     1.0  0.80515  0.20835  0.48894  1.0000
  C   C2247     1.0  0.93313  0.19730  0.58522  1.0000
  C   C2248     1.0  0.88854  0.25377  0.66718  1.0000
  H   H3789     1.0  0.94705  0.31524  0.53043  1.0000
  H   H3790     1.0  0.92922  0.13763  0.78703  1.0000
  H   H3791     1.0  0.90711  0.14885  0.78732  1.0000
  C   C2249     1.0  0.78734  0.24662  0.59104  1.0000
  H   H3792     1.0  0.78620  0.27667  0.78052  1.0000
  H   H3793     1.0  0.92344  0.18892  0.59179  1.0000
  H   H3794     1.0  0.76046  0.29537  0.55815  1.0000
  H   H3795     1.0  0.94338  0.18615  0.71708  1.0000
  N   N159      1.0  0.87077  0.24319  0.88464  1.0000
  C   C2250     1.0  0.88163  0.23721  0.89869  1.0000
  C   C2251     1.0  0.87746  0.25848  0.87222  1.0000
  C   C2252     1.0  0.87359  0.22829  0.87543  1.0000
  C   C2253     1.0  0.85176  0.24797  0.89332  1.0000
  C   C2254     1.0  0.87953  0.21958  0.91100  1.0000
  C   C2255     1.0  0.87513  0.27473  0.87993  1.0000
  C   C2256     1.0  0.86940  0.23271  0.85704  1.0000
  C   C2257     1.0  0.83826  0.25662  0.88147  1.0000
  H   H3796     1.0  0.89595  0.23606  0.89283  1.0000
  H   H3797     1.0  0.87849  0.24687  0.90728  1.0000
  H   H3798     1.0  0.87124  0.26293  0.86068  1.0000
  H   H3799     1.0  0.89172  0.25459  0.86678  1.0000
  H   H3800     1.0  0.88762  0.22139  0.87383  1.0000
  H   H3801     1.0  0.86581  0.21837  0.88342  1.0000
  H   H3802     1.0  0.84704  0.23622  0.90164  1.0000
  H   H3803     1.0  0.85012  0.25649  0.90275  1.0000
  H   H3804     1.0  0.86569  0.21921  0.91754  1.0000
  H   H3805     1.0  0.88502  0.20851  0.90415  1.0000
  H   H3806     1.0  0.88705  0.21746  0.92144  1.0000
  H   H3807     1.0  0.86110  0.27989  0.88502  1.0000
  H   H3808     1.0  0.88290  0.27222  0.89019  1.0000
  H   H3809     1.0  0.88008  0.28515  0.86943  1.0000
  H   H3810     1.0  0.87085  0.22038  0.85263  1.0000
  H   H3811     1.0  0.87895  0.23995  0.84750  1.0000
  H   H3812     1.0  0.85587  0.23997  0.85650  1.0000
  H   H3813     1.0  0.83246  0.24672  0.87866  1.0000
  H   H3814     1.0  0.84345  0.26488  0.86916  1.0000
  H   H3815     1.0  0.82735  0.26562  0.88823  1.0000
  Fe  Fe321     1.0  0.95843  0.27487  0.61155  1.0000
  H   H3816     1.0  0.79509  0.25608  0.59155  1.0000
  C   C2258     1.0  0.82037  0.20847  0.51141  1.0000
  H   H3817     1.0  0.98801  0.23543  0.92581  1.0000
  H   H3818     1.0  0.79018  0.29925  0.96199  1.0000
  S   S650      1.0  0.97892  0.25051  0.61658  1.0000
  C   C2259     1.0  0.83703  0.20832  0.51789  1.0000
  C   C2260     1.0  0.79377  0.19533  0.50056  1.0000
  C   C2261     1.0  0.75697  0.11167  0.52241  1.0000
  C   C2262     1.0  0.94181  0.28949  0.53085  1.0000
  H   H3819     1.0  0.81119  0.22098  0.51311  1.0000
  H   H3820     1.0  0.81408  0.19815  0.52077  1.0000
  H   H3821     1.0  0.81953  0.30411  0.50569  1.0000
  H   H3822     1.0  0.97441  0.18275  0.58789  1.0000
  H   H3823     1.0  0.83131  0.09999  0.51346  1.0000
  H   H3824     1.0  0.79465  0.24393  0.82590  1.0000
  S   S651      1.0  0.75652  0.25902  0.90888  1.0000
  H   H3825     1.0  0.89100  0.29571  0.70419  1.0000
  H   H3826     1.0  0.83350  0.20827  0.53205  1.0000
  H   H3827     1.0  0.84734  0.19656  0.51610  1.0000
  H   H3828     1.0  0.84253  0.22017  0.51159  1.0000
  N   N160      1.0  0.82313  0.20604  0.49294  1.0000
  H   H3829     1.0  0.79837  0.22265  0.96518  1.0000
  C   C2263     1.0  0.98738  0.18868  0.68427  1.0000
  H   H3830     1.0  0.76316  0.27513  0.49958  1.0000
  H   H3831     1.0  0.82830  0.27097  0.79110  1.0000
  Fe  Fe322     1.0  0.99277  0.26737  0.62478  1.0000
  C   C2264     1.0  0.98540  0.24942  0.92606  1.0000
  C   C2265     1.0  0.75099  0.31375  0.95653  1.0000
  C   C2266     1.0  0.95923  0.19115  0.62135  1.0000
  N   N161      1.0  0.75727  0.23782  0.60414  1.0000
  C   C2267     1.0  0.79914  0.25425  0.81498  1.0000
  H   H3832     1.0  0.82890  0.28427  0.53946  1.0000
  H   H3833     1.0  0.80277  0.28794  0.75185  1.0000
  C   C2268     1.0  0.96007  0.31461  0.68823  1.0000
  H   H3834     1.0  0.80708  0.29922  0.93618  1.0000
  C   C2269     1.0  0.76885  0.25055  0.60232  1.0000
  H   H3835     1.0  0.88480  0.27600  0.71812  1.0000
  H   H3836     1.0  0.96462  0.26890  0.88458  1.0000
  N   N162      1.0  0.85981  0.20560  0.60027  1.0000
  C   C2270     1.0  0.84002  0.21031  0.60550  1.0000
  C   C2271     1.0  0.86376  0.19923  0.58341  1.0000
  C   C2272     1.0  0.86682  0.22201  0.59734  1.0000
  C   C2273     1.0  0.86673  0.19208  0.61483  1.0000
  C   C2274     1.0  0.83274  0.21856  0.62171  1.0000
  C   C2275     1.0  0.85662  0.18291  0.58423  1.0000
  C   C2276     1.0  0.88659  0.22104  0.58975  1.0000
  C   C2277     1.0  0.88518  0.18066  0.61026  1.0000
  H   H3837     1.0  0.83432  0.21956  0.59476  1.0000
  H   H3838     1.0  0.83402  0.19866  0.60820  1.0000
  H   H3839     1.0  0.87799  0.19630  0.57793  1.0000
  H   H3840     1.0  0.85830  0.20966  0.57320  1.0000
  H   H3841     1.0  0.85970  0.23273  0.58850  1.0000
  H   H3842     1.0  0.86452  0.22656  0.60977  1.0000
  H   H3843     1.0  0.86685  0.19827  0.62565  1.0000
  H   H3844     1.0  0.85761  0.18289  0.62072  1.0000
  H   H3845     1.0  0.83546  0.23181  0.61948  1.0000
  H   H3846     1.0  0.81822  0.21985  0.62505  1.0000
  H   H3847     1.0  0.83784  0.21017  0.63310  1.0000
  H   H3848     1.0  0.84215  0.18593  0.58524  1.0000
  H   H3849     1.0  0.86238  0.17803  0.57195  1.0000
  H   H3850     1.0  0.86012  0.17221  0.59508  1.0000
  H   H3851     1.0  0.89470  0.21224  0.59886  1.0000
  H   H3852     1.0  0.88961  0.23413  0.58802  1.0000
  H   H3853     1.0  0.89068  0.21760  0.57672  1.0000
  H   H3854     1.0  0.89285  0.17993  0.62023  1.0000
  H   H3855     1.0  0.89316  0.18526  0.59752  1.0000
  H   H3856     1.0  0.88402  0.16707  0.61100  1.0000
  Fe  Fe323     1.0  0.88299  0.22970  0.51084  1.0000
  C   C2278     1.0  0.79624  0.30304  0.82262  1.0000
  C   C2279     1.0  0.89752  0.17886  0.76409  1.0000
  H   H3857     1.0  0.81964  0.29131  0.76140  1.0000
  S   S652      1.0  0.90240  0.24737  0.50523  1.0000
  H   H3858     1.0  0.92164  0.29012  0.82575  1.0000
  C   C2280     1.0  0.79819  0.29885  0.49711  1.0000
  H   H3859     1.0  0.90948  0.22061  0.71119  1.0000
  N   N163      1.0  0.92671  0.29593  0.52123  1.0000
  H   H3860     1.0  0.98966  0.16673  0.70576  1.0000
  C   C2281     1.0  0.81258  0.25961  0.95731  1.0000
  H   H3861     1.0  0.93725  0.18741  0.76492  1.0000
  S   S653      1.0  0.86607  0.24970  0.97516  1.0000
  Fe  Fe324     1.0  0.87605  0.31352  0.74636  1.0000
  H   H3862     1.0  0.96125  0.24999  0.57995  1.0000
  H   H3863     1.0  0.95450  0.23230  0.56217  1.0000
  H   H3864     1.0  0.80098  0.31609  0.54798  1.0000
  Fe  Fe325     1.0  0.95957  0.28633  0.64490  1.0000
  C   C2282     1.0  0.91706  0.24787  0.83632  1.0000
  C   C2283     1.0  0.92201  0.18167  0.73915  1.0000
  H   H3865     1.0  0.89327  0.17662  0.77850  1.0000
  H   H3866     1.0  0.99005  0.03684  0.79436  1.0000
  N   N164      1.0  0.91717  0.17722  0.75874  1.0000
  H   H3867     1.0  0.81979  0.26102  0.96635  1.0000
  H   H3868     1.0  0.91866  0.18606  0.78140  1.0000
  H   H3869     1.0  0.79549  0.31209  0.48902  1.0000
  H   H3870     1.0  0.95977  0.24475  0.79351  1.0000
  C   C2284     1.0  0.97453  0.28367  0.76737  1.0000
  C   C2285     1.0  0.91486  0.20889  0.76180  1.0000
  H   H3871     1.0  0.89106  0.17051  0.74277  1.0000
  C   C2286     1.0  0.92170  0.26311  0.83736  1.0000
  H   H3872     1.0  0.85493  0.24363  0.78571  1.0000
  C   C2287     1.0  0.97993  0.31324  0.66049  1.0000
  H   H3873     1.0  0.99066  0.30370  0.75416  1.0000
  C   C2288     1.0  0.86799  0.24445  0.74008  1.0000
  H   H3874     1.0  0.90601  0.23582  0.82173  1.0000
  C   C2289     1.0  0.90941  0.24767  0.82262  1.0000
  H   H3875     1.0  0.89555  0.15296  0.76089  1.0000
  H   H3876     1.0  0.90218  0.21263  0.77071  1.0000
  S   S654      1.0  0.88328  0.20696  0.49884  1.0000
  H   H3877     1.0  0.79947  0.28345  0.79119  1.0000
  H   H3878     1.0  0.94798  0.30232  0.81899  1.0000
  C   C2290     1.0  0.80004  0.27736  0.78009  1.0000
  H   H3879     1.0  0.80098  0.18165  0.50166  1.0000
  S   S655      1.0  0.88096  0.24828  0.75292  1.0000
  H   H3880     1.0  0.77077  0.25116  0.61531  1.0000
  C   C2291     1.0  0.96110  0.29414  0.79459  1.0000
  C   C2292     1.0  0.78966  0.29449  0.83952  1.0000
  S   S656      1.0  0.86870  0.27747  0.78767  1.0000
  C   C2293     1.0  0.91097  0.27797  0.81095  1.0000
  H   H3881     1.0  0.78704  0.25784  0.92314  1.0000
  H   H3882     1.0  0.94635  0.26697  0.68415  1.0000
  C   C2294     1.0  0.93608  0.25921  0.68620  1.0000
  H   H3883     1.0  0.92508  0.22956  0.69360  1.0000
  H   H3884     1.0  0.94605  0.30600  0.49976  1.0000
  H   H3885     1.0  0.93576  0.30484  0.55140  1.0000
  H   H3886     1.0  0.96241  0.30778  0.78854  1.0000
  C   C2295     1.0  0.79425  0.26474  0.96036  1.0000
  C   C2296     1.0  0.91086  0.23023  0.69876  1.0000
  H   H3887     1.0  0.78860  0.26606  0.81559  1.0000
  Fe  Fe326     1.0  0.87829  0.26815  0.51042  1.0000
  C   C2297     1.0  0.77133  0.30270  0.55310  1.0000
  C   C2298     1.0  0.97667  0.27220  0.88626  1.0000
  C   C2299     1.0  0.85809  0.30008  0.48279  1.0000
  H   H3888     1.0  0.81120  0.25677  0.81739  1.0000
  S   S657      1.0  0.97928  0.26269  0.65276  1.0000
  C   C2300     1.0  0.81291  0.10904  0.96278  1.0000
  C   C2301     1.0  0.90459  0.25935  0.67006  1.0000
  C   C2302     1.0  0.92321  0.28030  0.51660  1.0000
  H   H3889     1.0  0.90717  0.27070  0.65946  1.0000
  H   H3890     1.0  0.91622  0.27637  0.69961  1.0000
  H   H3891     1.0  0.81257  0.28472  0.51700  1.0000
  H   H3892     1.0  0.91908  0.28299  0.67662  1.0000
  H   H3893     1.0  0.82237  0.23064  0.75279  1.0000
  H   H3894     1.0  0.78945  0.24726  0.79559  1.0000
  H   H3895     1.0  0.87422  0.27264  0.69100  1.0000
  H   H3896     1.0  0.76246  0.26404  0.59697  1.0000
  H   H3897     1.0  0.76010  0.19443  0.62689  1.0000
  H   H3898     1.0  0.93468  0.26050  0.50075  1.0000
  H   H3899     1.0  0.88269  0.24474  0.67860  1.0000
  N   N165      1.0  0.90257  0.26382  0.68757  1.0000
  H   H3900     1.0  0.78588  0.29377  0.50200  1.0000
  S   S658      1.0  0.98537  0.07254  0.77887  1.0000
  H   H3901     1.0  0.98552  0.19006  0.67080  1.0000
  H   H3902     1.0  0.91309  0.31506  0.53724  1.0000
  H   H3903     1.0  0.81705  0.17784  0.96384  1.0000
  H   H3904     1.0  0.79748  0.22169  0.49006  1.0000
  H   H3905     1.0  0.94632  0.27799  0.49497  1.0000
  H   H3906     1.0  0.93956  0.27791  0.54124  1.0000
  C   C2303     1.0  0.97729  0.15813  0.60626  1.0000
  C   C2304     1.0  0.78505  0.26406  0.94805  1.0000
  H   H3907     1.0  0.88669  0.24707  0.70643  1.0000
  C   C2305     1.0  0.97733  0.30126  0.75541  1.0000
  H   H3908     1.0  0.76690  0.11955  0.54125  1.0000
  C   C2306     1.0  0.83430  0.18824  0.49162  1.0000
  H   H3909     1.0  0.93991  0.17066  0.64694  1.0000
  H   H3910     1.0  0.94241  0.19176  0.57438  1.0000
  H   H3911     1.0  0.93545  0.16613  0.61164  1.0000
  H   H3912     1.0  0.97109  0.29581  0.81714  1.0000
  Fe  Fe327     1.0  0.88820  0.29518  0.77972  1.0000
  H   H3913     1.0  0.99615  0.25227  0.87511  1.0000
  H   H3914     1.0  0.84828  0.18825  0.49118  1.0000
  C   C2307     1.0  0.80246  0.24814  0.79761  1.0000
  H   H3915     1.0  0.80054  0.30802  0.91561  1.0000
  S   S659      1.0  0.90748  0.29677  0.79503  1.0000
  C   C2308     1.0  0.95746  0.25745  0.79751  1.0000
  C   C2309     1.0  0.88619  0.27781  0.68999  1.0000
  H   H3916     1.0  0.93054  0.15495  0.64233  1.0000
  H   H3917     1.0  0.77082  0.22156  0.62465  1.0000
  H   H3918     1.0  0.77616  0.29862  0.84576  1.0000
  Fe  Fe328     1.0  0.84946  0.30138  0.77885  1.0000
  H   H3919     1.0  0.78529  0.20651  0.97500  1.0000
  C   C2310     1.0  0.81967  0.11074  0.51436  1.0000
  H   H3920     1.0  0.92486  0.18342  0.62282  1.0000
  H   H3921     1.0  0.98985  0.16158  0.68604  1.0000
  H   H3922     1.0  0.78729  0.26947  0.97208  1.0000
  S   S660      1.0  0.85524  0.29772  0.75116  1.0000
  H   H3923     1.0  0.75874  0.15577  0.88711  1.0000
  C   C2311     1.0  0.81372  0.29775  0.81432  1.0000
  H   H3924     1.0  0.74968  0.24886  0.56139  1.0000
  C   C2312     1.0  0.95954  0.29265  0.81425  1.0000
  C   C2313     1.0  0.88273  0.28591  0.70624  1.0000
  H   H3925     1.0  0.82509  0.09987  0.95840  1.0000
  H   H3926     1.0  0.97813  0.20552  0.62313  1.0000
  H   H3927     1.0  0.75404  0.30537  0.96892  1.0000
  H   H3928     1.0  0.99466  0.28271  0.80091  1.0000
  H   H3929     1.0  0.96600  0.21629  0.60660  1.0000
  S   S661      1.0  0.87376  0.29591  0.49595  1.0000
  C   C2314     1.0  0.99117  0.15595  0.80381  1.0000
  H   H3930     1.0  0.79790  0.30384  0.76511  1.0000
  H   H3931     1.0  0.83270  0.19099  0.97864  1.0000
  Fe  Fe329     1.0  0.75529  0.27795  0.92531  1.0000
  H   H3932     1.0  0.78772  0.31379  0.81594  1.0000
  C   C2315     1.0  0.97249  0.20325  0.61281  1.0000
  H   H3933     1.0  0.75581  0.20899  0.90206  1.0000
  H   H3934     1.0  0.97427  0.19243  0.69251  1.0000
  H   H3935     1.0  0.84580  0.21836  0.48372  1.0000
  H   H3936     1.0  0.94787  0.26662  0.79015  1.0000
  C   C2316     1.0  0.93920  0.26965  0.50608  1.0000
  C   C2317     1.0  0.91084  0.30353  0.53356  1.0000
  S   S662      1.0  0.86698  0.20869  0.97405  1.0000
  H   H3937     1.0  0.81955  0.29129  0.55993  1.0000
  H   H3938     1.0  0.98381  0.25043  0.93983  1.0000
  S   S663      1.0  0.94819  0.30379  0.66448  1.0000
  C   C2318     1.0  0.78636  0.21995  0.97490  1.0000
  C   C2319     1.0  0.76773  0.31631  0.94272  1.0000
  H   H3939     1.0  0.88945  0.29941  0.52312  1.0000
  H   H3940     1.0  0.81511  0.31463  0.95676  1.0000
  H   H3941     1.0  0.97582  0.30125  0.74213  1.0000
  H   H3942     1.0  0.77965  0.29904  0.56305  1.0000
  S   S664      1.0  0.76816  0.29668  0.90361  1.0000
  C   C2320     1.0  0.84099  0.24427  0.79252  1.0000
  H   H3943     1.0  0.80776  0.28031  0.55200  1.0000
  H   H3944     1.0  0.78223  0.19635  0.49479  1.0000
  H   H3945     1.0  0.77506  0.22941  0.97024  1.0000
  C   C2321     1.0  0.98952  0.17389  0.82469  1.0000
  C   C2322     1.0  0.80047  0.28037  0.84811  1.0000
  C   C2323     1.0  0.99316  0.28540  0.78716  1.0000
  H   H3946     1.0  0.95429  0.28494  0.52203  1.0000
  H   H3947     1.0  0.81919  0.31405  0.53088  1.0000
  H   H3948     1.0  0.79924  0.25310  0.76388  1.0000
  C   C2324     1.0  0.94286  0.20079  0.59789  1.0000
  H   H3949     1.0  0.94840  0.19821  0.63000  1.0000
  H   H3950     1.0  0.78676  0.24812  0.57720  1.0000
  H   H3951     1.0  0.98446  0.24479  0.89595  1.0000
  C   C2325     1.0  0.93178  0.30956  0.50544  1.0000
  C   C2326     1.0  0.76514  0.22028  0.61388  1.0000
  H   H3952     1.0  0.98096  0.28175  0.87442  1.0000
  C   C2327     1.0  0.94098  0.16280  0.63710  1.0000
  C   C2328     1.0  0.81796  0.27510  0.83982  1.0000
  C   C2329     1.0  0.82463  0.28386  0.82307  1.0000
  H   H3953     1.0  0.82635  0.26411  0.84633  1.0000
  H   H3954     1.0  0.83809  0.27968  0.81687  1.0000
  H   H3955     1.0  0.84084  0.24518  0.80603  1.0000
  S   S665      1.0  0.79244  0.26834  0.86872  1.0000
  H   H3956     1.0  0.86884  0.29297  0.70870  1.0000
  H   H3957     1.0  0.91833  0.27123  0.52861  1.0000
  C   C2330     1.0  0.82320  0.23397  0.76507  1.0000
  Fe  Fe330     1.0  0.76733  0.27892  0.88650  1.0000
  H   H3958     1.0  0.95850  0.29720  0.54394  1.0000
  H   H3959     1.0  0.83774  0.23179  0.79253  1.0000
  C   C2331     1.0  0.93777  0.17455  0.61952  1.0000
  C   C2332     1.0  0.81650  0.28984  0.54775  1.0000
  H   H3960     1.0  0.81789  0.22404  0.77582  1.0000
  H   H3961     1.0  0.83045  0.17862  0.50365  1.0000
  H   H3962     1.0  0.81494  0.12250  0.95677  1.0000
  H   H3963     1.0  0.97076  0.14677  0.60975  1.0000
  H   H3964     1.0  0.96131  0.28217  0.76660  1.0000
  C   C2333     1.0  0.80749  0.29860  0.51177  1.0000
  H   H3965     1.0  0.83273  0.07239  0.97981  1.0000
  Fe  Fe331     1.0  0.98601  0.10043  0.76581  1.0000
  C   C2334     1.0  0.80604  0.31093  0.92569  1.0000
  H   H3966     1.0  0.90840  0.29390  0.54590  1.0000
  H   H3967     1.0  0.83748  0.26535  0.77048  1.0000
  H   H3968     1.0  0.77656  0.21365  0.60523  1.0000
  H   H3969     1.0  0.74975  0.24268  0.52243  1.0000
  H   H3970     1.0  0.79996  0.10401  0.50465  1.0000
  H   H3971     1.0  0.95741  0.27967  0.82188  1.0000
  H   H3972     1.0  0.80632  0.30846  0.97933  1.0000
  C   C2335     1.0  0.96569  0.17449  0.59747  1.0000
  H   H3973     1.0  0.84096  0.12188  0.48633  1.0000
  C   C2336     1.0  0.81269  0.25258  0.76581  1.0000
  H   H3974     1.0  0.97310  0.27840  0.89777  1.0000
  C   C2337     1.0  0.78166  0.29794  0.53556  1.0000
  H   H3975     1.0  0.81903  0.26088  0.75398  1.0000
  H   H3976     1.0  0.95121  0.25517  0.81150  1.0000
  H   H3977     1.0  0.80968  0.23450  0.79973  1.0000
  C   C2338     1.0  0.82959  0.26081  0.78351  1.0000
  H   H3978     1.0  0.97865  0.26033  0.80809  1.0000
  S   S666      1.0  0.99702  0.10796  0.73742  1.0000
  S   S667      1.0  0.79529  0.15230  0.97623  1.0000
  H   H3979     1.0  0.99344  0.29945  0.78242  1.0000
  H   H3980     1.0  0.77447  0.30320  0.94003  1.0000
  H   H3981     1.0  0.78850  0.19833  0.51375  1.0000
  H   H3982     1.0  0.98540  0.25380  0.78783  1.0000
  C   C2339     1.0  0.80906  0.11330  0.50007  1.0000
  S   S668      1.0  0.99148  0.26417  0.83659  1.0000
  H   H3983     1.0  0.80193  0.10714  0.95778  1.0000
  H   H3984     1.0  0.76657  0.26506  0.52097  1.0000
  C   C2340     1.0  0.76377  0.26266  0.50907  1.0000
  H   H3985     1.0  0.80536  0.07824  0.97251  1.0000
  H   H3986     1.0  0.75629  0.18269  0.89772  1.0000
  H   H3987     1.0  0.75426  0.09965  0.53099  1.0000
  C   C2341     1.0  0.89341  0.30980  0.52706  1.0000
  H   H3988     1.0  0.74896  0.23899  0.63853  1.0000
  S   S669      1.0  0.76000  0.12558  0.97744  1.0000
  H   H3989     1.0  0.80040  0.12636  0.49984  1.0000
  H   H3990     1.0  0.98391  0.27318  0.76124  1.0000
  C   C2342     1.0  0.74923  0.25229  0.57400  1.0000
  H   H3991     1.0  0.77169  0.30034  0.52737  1.0000
  H   H3992     1.0  0.95253  0.20871  0.58960  1.0000
  H   H3993     1.0  0.88278  0.31383  0.53789  1.0000
  C   C2343     1.0  0.75098  0.24288  0.48807  1.0000
  H   H3994     1.0  0.91252  0.28373  0.50918  1.0000
  H   H3995     1.0  0.75897  0.23197  0.49597  1.0000
  H   H3996     1.0  0.82526  0.23316  0.48454  1.0000
  H   H3997     1.0  0.98305  0.31022  0.64763  1.0000
  H   H3998     1.0  0.94838  0.26152  0.51458  1.0000
  H   H3999     1.0  0.75761  0.26207  0.57113  1.0000
  H   H4000     1.0  0.98117  0.15982  0.61783  1.0000
  S   S670      1.0  0.86837  0.31944  0.77314  1.0000
  H   H4001     1.0  0.83190  0.06630  0.48917  1.0000
  H   H4002     1.0  0.84382  0.09288  0.48428  1.0000
  H   H4003     1.0  0.78687  0.10256  0.48452  1.0000
  H   H4004     1.0  0.88071  0.18101  0.48177  1.0000
  N   N166      1.0  0.81972  0.11209  0.48208  1.0000
  Fe  Fe332     1.0  0.78818  0.54688  0.15151  1.0000
  S   S671      1.0  0.76674  0.55491  0.17336  1.0000
  S   S672      1.0  0.78695  0.52183  0.14416  1.0000
  Fe  Fe333     1.0  0.80792  0.57538  0.15182  1.0000
  S   S673      1.0  0.78746  0.58528  0.17341  1.0000
  Fe  Fe334     1.0  0.78817  0.55707  0.18534  1.0000
  S   S674      1.0  0.78934  0.54439  0.21306  1.0000
  Fe  Fe335     1.0  0.76831  0.58211  0.15898  1.0000
  S   S675      1.0  0.80982  0.54714  0.16472  1.0000
  S   S676      1.0  0.78853  0.57419  0.13617  1.0000
  C   C2344     1.0  0.90887  0.63333  0.24886  1.0000
  C   C2345     1.0  0.75881  0.55243  0.26371  1.0000
  S   S677      1.0  0.98238  0.63341  0.28206  1.0000
  C   C2346     1.0  0.80446  0.48676  0.24214  1.0000
  C   C2347     1.0  0.76180  0.43846  0.27990  1.0000
  H   H4005     1.0  0.84911  0.34264  0.16207  1.0000
  H   H4006     1.0  0.79544  0.44749  0.44945  1.0000
  Fe  Fe336     1.0  0.76642  0.46840  0.35052  1.0000
  Fe  Fe337     1.0  0.96566  0.62969  0.26494  1.0000
  S   S678      1.0  0.94713  0.61034  0.27367  1.0000
  H   H4007     1.0  0.79351  0.38688  0.07826  1.0000
  H   H4008     1.0  0.80700  0.35434  0.23434  1.0000
  S   S679      1.0  0.75203  0.45031  0.37221  1.0000
  S   S680      1.0  0.79480  0.46092  0.33822  1.0000
  H   H4009     1.0  0.76991  0.51805  0.21764  1.0000
  H   H4010     1.0  0.79495  0.63854  0.18679  1.0000
  H   H4011     1.0  0.89367  0.55372  0.16057  1.0000
  H   H4012     1.0  0.83190  0.36954  0.16267  1.0000
  Fe  Fe338     1.0  0.78603  0.47434  0.31317  1.0000
  S   S681      1.0  0.79585  0.46276  0.28928  1.0000
  Fe  Fe339     1.0  0.79658  0.48761  0.33994  1.0000
  S   S682      1.0  0.81672  0.49239  0.35211  1.0000
  H   H4013     1.0  0.89634  0.51966  0.19440  1.0000
  C   C2348     1.0  0.77630  0.36544  0.03100  1.0000
  Fe  Fe340     1.0  0.86430  0.55315  0.24709  1.0000
  S   S683      1.0  0.88624  0.54678  0.22495  1.0000
  S   S684      1.0  0.84038  0.57303  0.24184  1.0000
  Fe  Fe341     1.0  0.88322  0.52858  0.27403  1.0000
  S   S685      1.0  0.90683  0.52028  0.25412  1.0000
  S   S686      1.0  0.88321  0.51837  0.30238  1.0000
  Fe  Fe342     1.0  0.90373  0.54886  0.24213  1.0000
  S   S687      1.0  0.92576  0.56421  0.23109  1.0000
  Fe  Fe343     1.0  0.88691  0.51908  0.23919  1.0000
  S   S688      1.0  0.88988  0.49523  0.22776  1.0000
  S   S689      1.0  0.88146  0.55715  0.26315  1.0000
  S   S690      1.0  0.86362  0.52548  0.26010  1.0000
  Fe  Fe344     1.0  0.78471  0.37506  0.44195  1.0000
  S   S691      1.0  0.78994  0.35393  0.42691  1.0000
  S   S692      1.0  0.79516  0.39902  0.42684  1.0000
  H   H4014     1.0  0.79840  0.57575  0.28382  1.0000
  H   H4015     1.0  0.90651  0.50374  0.18145  1.0000
  Fe  Fe345     1.0  0.76197  0.35230  0.43849  1.0000
  H   H4016     1.0  0.84406  0.56514  0.18254  1.0000
  C   C2349     1.0  0.79001  0.37364  0.18884  1.0000
  H   H4017     1.0  0.79474  0.61437  0.13945  1.0000
  Fe  Fe346     1.0  0.83296  0.45382  0.18628  1.0000
  S   S693      1.0  0.81481  0.44280  0.21011  1.0000
  S   S694      1.0  0.83886  0.47989  0.18685  1.0000
  Fe  Fe347     1.0  0.82914  0.42736  0.16550  1.0000
  S   S695      1.0  0.81064  0.41526  0.18805  1.0000
  S   S696      1.0  0.83669  0.41628  0.14061  1.0000
  Fe  Fe348     1.0  0.79839  0.44242  0.19157  1.0000
  S   S697      1.0  0.76962  0.45345  0.19413  1.0000
  Fe  Fe349     1.0  0.82911  0.41686  0.20396  1.0000
  S   S698      1.0  0.83756  0.39334  0.22352  1.0000
  S   S699      1.0  0.81548  0.45478  0.16791  1.0000
  S   S700      1.0  0.84878  0.42755  0.18131  1.0000
  H   H4018     1.0  0.82942  0.50361  0.26078  1.0000
  C   C2350     1.0  0.82535  0.40167  0.13678  1.0000
  C   C2351     1.0  0.80839  0.40011  0.14602  1.0000
  C   C2352     1.0  0.80019  0.38763  0.14350  1.0000
  C   C2353     1.0  0.80870  0.37664  0.13162  1.0000
  C   C2354     1.0  0.82535  0.37871  0.12178  1.0000
  C   C2355     1.0  0.83359  0.39121  0.12432  1.0000
  H   H4019     1.0  0.80164  0.40841  0.15526  1.0000
  H   H4020     1.0  0.79279  0.56545  0.32295  1.0000
  H   H4021     1.0  0.83213  0.37031  0.11263  1.0000
  H   H4022     1.0  0.84667  0.39238  0.11700  1.0000
  C   C2356     1.0  0.77859  0.34622  0.01143  1.0000
  C   C2357     1.0  0.82008  0.38629  0.23941  1.0000
  C   C2358     1.0  0.82369  0.37089  0.25149  1.0000
  C   C2359     1.0  0.83080  0.37132  0.17613  1.0000
  H   H4023     1.0  0.79981  0.40732  0.23054  1.0000
  H   H4024     1.0  0.83711  0.36387  0.25122  1.0000
  S   S701      1.0  0.76881  0.49431  0.35405  1.0000
  H   H4025     1.0  0.78546  0.37349  0.20297  1.0000
  H   H4026     1.0  0.90247  0.62448  0.26004  1.0000
  C   C2360     1.0  0.76684  0.42795  0.17885  1.0000
  C   C2361     1.0  0.76223  0.44565  0.17948  1.0000
  H   H4027     1.0  0.76395  0.40785  0.16715  1.0000
  H   H4028     1.0  0.83558  0.48510  0.10996  1.0000
  H   H4029     1.0  0.80399  0.53016  0.27599  1.0000
  H   H4030     1.0  0.77472  0.41903  0.18760  1.0000
  H   H4031     1.0  0.77205  0.60114  0.21368  1.0000
  C   C2362     1.0  0.87435  0.49046  0.21825  1.0000
  C   C2363     1.0  0.85826  0.50177  0.21648  1.0000
  C   C2364     1.0  0.84711  0.49808  0.20738  1.0000
  C   C2365     1.0  0.85164  0.48278  0.20057  1.0000
  C   C2366     1.0  0.86722  0.47105  0.20325  1.0000
  C   C2367     1.0  0.87858  0.47496  0.21189  1.0000
  H   H4032     1.0  0.85467  0.51358  0.22163  1.0000
  H   H4033     1.0  0.83509  0.50729  0.20532  1.0000
  H   H4034     1.0  0.87093  0.45931  0.19795  1.0000
  H   H4035     1.0  0.89093  0.46608  0.21330  1.0000
  H   H4036     1.0  0.87448  0.63365  0.26127  1.0000
  C   C2368     1.0  0.76418  0.43525  0.38683  1.0000
  Fe  Fe350     1.0  0.74975  0.38111  0.28589  1.0000
  C   C2369     1.0  0.76470  0.41502  0.41465  1.0000
  C   C2370     1.0  0.78309  0.41174  0.41101  1.0000
  C   C2371     1.0  0.79199  0.41981  0.39503  1.0000
  C   C2372     1.0  0.78257  0.43147  0.38295  1.0000
  C   C2373     1.0  0.78517  0.63436  0.18193  1.0000
  C   C2374     1.0  0.77846  0.37644  0.38268  1.0000
  H   H4037     1.0  0.80621  0.41716  0.39205  1.0000
  H   H4038     1.0  0.78957  0.43764  0.37073  1.0000
  C   C2375     1.0  0.83530  0.49890  0.33786  1.0000
  C   C2376     1.0  0.84772  0.50313  0.34473  1.0000
  C   C2377     1.0  0.86248  0.50886  0.33367  1.0000
  C   C2378     1.0  0.86481  0.51057  0.31568  1.0000
  C   C2379     1.0  0.85244  0.50620  0.30876  1.0000
  C   C2380     1.0  0.83773  0.50022  0.31989  1.0000
  H   H4039     1.0  0.84592  0.50205  0.35863  1.0000
  H   H4040     1.0  0.87206  0.51216  0.33906  1.0000
  H   H4041     1.0  0.85430  0.50733  0.29493  1.0000
  H   H4042     1.0  0.82825  0.49670  0.31464  1.0000
  C   C2381     1.0  0.94176  0.59741  0.26154  1.0000
  C   C2382     1.0  0.95053  0.59615  0.24449  1.0000
  C   C2383     1.0  0.94573  0.58570  0.23548  1.0000
  C   C2384     1.0  0.93186  0.57671  0.24319  1.0000
  C   C2385     1.0  0.92298  0.57815  0.26015  1.0000
  C   C2386     1.0  0.92796  0.58835  0.26926  1.0000
  H   H4043     1.0  0.96118  0.60302  0.23835  1.0000
  H   H4044     1.0  0.95290  0.58451  0.22249  1.0000
  H   H4045     1.0  0.91240  0.57124  0.26637  1.0000
  H   H4046     1.0  0.92109  0.58918  0.28244  1.0000
  C   C2387     1.0  0.80997  0.36432  0.26371  1.0000
  H   H4047     1.0  0.81107  0.41917  0.08910  1.0000
  N   N167      1.0  0.79279  0.41443  0.07572  1.0000
  C   C2388     1.0  0.78196  0.48849  0.20498  1.0000
  H   H4048     1.0  0.79386  0.38625  0.18233  1.0000
  Fe  Fe351     1.0  0.79988  0.34959  0.07106  1.0000
  H   H4049     1.0  0.85240  0.61505  0.12856  1.0000
  C   C2389     1.0  0.77723  0.45859  0.28473  1.0000
  C   C2390     1.0  0.80954  0.40909  0.08269  1.0000
  H   H4050     1.0  0.77735  0.47169  0.11820  1.0000
  H   H4051     1.0  0.80790  0.47232  0.24540  1.0000
  H   H4052     1.0  0.84844  0.37745  0.18991  1.0000
  H   H4053     1.0  0.76346  0.34766  0.15138  1.0000
  C   C2391     1.0  0.83364  0.33980  0.18901  1.0000
  Fe  Fe352     1.0  0.76266  0.50499  0.32744  1.0000
  H   H4054     1.0  0.77594  0.46663  0.38610  1.0000
  H   H4055     1.0  0.76042  0.40664  0.11204  1.0000
  C   C2392     1.0  0.83561  0.32040  0.46838  1.0000
  H   H4056     1.0  0.94837  0.63018  0.20480  1.0000
  H   H4057     1.0  0.82048  0.59401  0.17642  1.0000
  H   H4058     1.0  0.82543  0.61589  0.19047  1.0000
  C   C2393     1.0  0.80459  0.55177  0.22013  1.0000
  C   C2394     1.0  0.80770  0.56861  0.21327  1.0000
  C   C2395     1.0  0.81866  0.57511  0.22005  1.0000
  C   C2396     1.0  0.82703  0.56455  0.23330  1.0000
  C   C2397     1.0  0.82439  0.54749  0.23981  1.0000
  C   C2398     1.0  0.81290  0.54120  0.23345  1.0000
  H   H4059     1.0  0.80111  0.57692  0.20324  1.0000
  H   H4060     1.0  0.82070  0.58831  0.21498  1.0000
  H   H4061     1.0  0.83075  0.53931  0.25007  1.0000
  H   H4062     1.0  0.81048  0.52817  0.23880  1.0000
  C   C2399     1.0  0.77677  0.47393  0.23547  1.0000
  C   C2400     1.0  0.85789  0.52839  0.15038  1.0000
  H   H4063     1.0  0.79567  0.55295  0.27442  1.0000
  H   H4064     1.0  0.77484  0.63104  0.19344  1.0000
  C   C2401     1.0  0.77657  0.64888  0.16848  1.0000
  C   C2402     1.0  0.75586  0.52878  0.10925  1.0000
  H   H4065     1.0  0.86372  0.57445  0.17788  1.0000
  N   N168      1.0  0.89936  0.60067  0.18833  1.0000
  C   C2403     1.0  0.87984  0.60716  0.19410  1.0000
  C   C2404     1.0  0.90463  0.61036  0.16998  1.0000
  C   C2405     1.0  0.90872  0.60529  0.20008  1.0000
  C   C2406     1.0  0.90274  0.58120  0.18992  1.0000
  C   C2407     1.0  0.87192  0.60086  0.21342  1.0000
  H   H4066     1.0  0.84517  0.56709  0.29130  1.0000
  C   C2408     1.0  0.92897  0.60099  0.19583  1.0000
  C   C2409     1.0  0.91972  0.57275  0.17852  1.0000
  H   H4067     1.0  0.87657  0.62165  0.19148  1.0000
  H   H4068     1.0  0.87211  0.60325  0.18652  1.0000
  H   H4069     1.0  0.91884  0.60673  0.16463  1.0000
  H   H4070     1.0  0.90249  0.62458  0.16975  1.0000
  H   H4071     1.0  0.90458  0.61943  0.20029  1.0000
  H   H4072     1.0  0.90505  0.59838  0.21375  1.0000
  H   H4073     1.0  0.90306  0.57459  0.20367  1.0000
  H   H4074     1.0  0.89169  0.57743  0.18660  1.0000
  H   H4075     1.0  0.87585  0.60735  0.22204  1.0000
  H   H4076     1.0  0.85733  0.60447  0.21539  1.0000
  H   H4077     1.0  0.87541  0.58655  0.21759  1.0000
  H   H4078     1.0  0.74929  0.48871  0.13178  1.0000
  S   S702      1.0  0.79332  0.35681  0.46564  1.0000
  C   C2410     1.0  0.88449  0.54913  0.15520  1.0000
  H   H4079     1.0  0.93387  0.60637  0.20465  1.0000
  H   H4080     1.0  0.93474  0.60700  0.18248  1.0000
  H   H4081     1.0  0.93413  0.58678  0.19834  1.0000
  H   H4082     1.0  0.92526  0.56002  0.18619  1.0000
  H   H4083     1.0  0.93038  0.58021  0.17416  1.0000
  H   H4084     1.0  0.91668  0.56969  0.16708  1.0000
  H   H4085     1.0  0.75662  0.32296  0.37092  1.0000
  C   C2411     1.0  0.84662  0.61510  0.14214  1.0000
  H   H4086     1.0  0.86882  0.53129  0.13937  1.0000
  H   H4087     1.0  0.83793  0.40113  0.07594  1.0000
  H   H4088     1.0  0.83176  0.47087  0.39432  1.0000
  H   H4089     1.0  0.89316  0.54077  0.14610  1.0000
  H   H4090     1.0  0.80274  0.42604  0.04894  1.0000
  H   H4091     1.0  0.79450  0.49142  0.25301  1.0000
  C   C2412     1.0  0.79407  0.53808  0.32879  1.0000
  H   H4092     1.0  0.82666  0.39331  0.06393  1.0000
  C   C2413     1.0  0.77082  0.47248  0.39784  1.0000
  C   C2414     1.0  0.84939  0.62764  0.15009  1.0000
  H   H4093     1.0  0.79082  0.47602  0.20242  1.0000
  H   H4094     1.0  0.84840  0.55173  0.16086  1.0000
  C   C2415     1.0  0.76057  0.42159  0.16743  1.0000
  C   C2416     1.0  0.80994  0.47800  0.12331  1.0000
  C   C2417     1.0  0.79665  0.49177  0.09802  1.0000
  H   H4095     1.0  0.80687  0.49969  0.09140  1.0000
  C   C2418     1.0  0.79037  0.39942  0.06920  1.0000
  H   H4096     1.0  0.80559  0.44054  0.13013  1.0000
  N   N169      1.0  0.80452  0.47445  0.10814  1.0000
  C   C2419     1.0  0.83144  0.61569  0.17696  1.0000
  C   C2420     1.0  0.84911  0.37267  0.17798  1.0000
  C   C2421     1.0  0.82657  0.40471  0.06930  1.0000
  S   S703      1.0  0.83166  0.58832  0.14073  1.0000
  C   C2422     1.0  0.79241  0.44898  0.13099  1.0000
  H   H4097     1.0  0.85992  0.51413  0.15560  1.0000
  H   H4098     1.0  0.85426  0.38246  0.16683  1.0000
  C   C2423     1.0  0.84494  0.55393  0.29946  1.0000
  H   H4099     1.0  0.75463  0.33187  0.04907  1.0000
  H   H4100     1.0  0.84702  0.53234  0.17655  1.0000
  H   H4101     1.0  0.79617  0.48479  0.07333  1.0000
  H   H4102     1.0  0.75268  0.55034  0.23244  1.0000
  H   H4103     1.0  0.80907  0.39726  0.09319  1.0000
  C   C2424     1.0  0.81033  0.57294  0.28954  1.0000
  H   H4104     1.0  0.88533  0.57218  0.13456  1.0000
  H   H4105     1.0  0.77919  0.39172  0.10398  1.0000
  H   H4106     1.0  0.87411  0.51183  0.18278  1.0000
  C   C2425     1.0  0.86867  0.54587  0.18616  1.0000
  H   H4107     1.0  0.80160  0.32871  0.39249  1.0000
  H   H4108     1.0  0.75286  0.53824  0.09780  1.0000
  C   C2426     1.0  0.76855  0.35889  0.02087  1.0000
  H   H4109     1.0  0.82612  0.47060  0.30127  1.0000
  C   C2427     1.0  0.75502  0.60045  0.23993  1.0000
  Fe  Fe353     1.0  0.80061  0.34495  0.10925  1.0000
  H   H4110     1.0  0.77122  0.54410  0.11553  1.0000
  C   C2428     1.0  0.79502  0.55522  0.31521  1.0000
  H   H4111     1.0  0.78285  0.44049  0.13276  1.0000
  H   H4112     1.0  0.85372  0.56663  0.19951  1.0000
  C   C2429     1.0  0.79255  0.37321  0.26410  1.0000
  C   C2430     1.0  0.85684  0.56406  0.18610  1.0000
  H   H4113     1.0  0.92299  0.62998  0.24984  1.0000
  H   H4114     1.0  0.88136  0.61615  0.15844  1.0000
  H   H4115     1.0  0.81259  0.37509  0.20778  1.0000
  H   H4116     1.0  0.83256  0.36067  0.21069  1.0000
  N   N170      1.0  0.82226  0.35764  0.18941  1.0000
  C   C2431     1.0  0.75008  0.51293  0.11339  1.0000
  C   C2432     1.0  0.81970  0.36146  0.20729  1.0000
  H   H4117     1.0  0.80863  0.60064  0.28689  1.0000
  C   C2433     1.0  0.80489  0.35793  0.18503  1.0000
  H   H4118     1.0  0.74790  0.47917  0.24323  1.0000
  H   H4119     1.0  0.79750  0.34767  0.22010  1.0000
  H   H4120     1.0  0.83250  0.44721  0.30398  1.0000
  C   C2434     1.0  0.79409  0.35928  0.03173  1.0000
  C   C2435     1.0  0.79617  0.49348  0.41017  1.0000
  H   H4121     1.0  0.84451  0.46996  0.24288  1.0000
  H   H4122     1.0  0.82249  0.38436  0.17655  1.0000
  H   H4123     1.0  0.80656  0.35784  0.17098  1.0000
  H   H4124     1.0  0.79977  0.34594  0.19198  1.0000
  H   H4125     1.0  0.76175  0.48397  0.28745  1.0000
  H   H4126     1.0  0.74880  0.35763  0.36266  1.0000
  H   H4127     1.0  0.76893  0.48792  0.20289  1.0000
  H   H4128     1.0  0.80620  0.45090  0.38807  1.0000
  H   H4129     1.0  0.78144  0.40617  0.11658  1.0000
  H   H4130     1.0  0.78931  0.36949  0.37383  1.0000
  H   H4131     1.0  0.83884  0.44913  0.24701  1.0000
  S   S704      1.0  0.75608  0.37465  0.45203  1.0000
  H   H4132     1.0  0.91554  0.63397  0.22055  1.0000
  H   H4133     1.0  0.79997  0.39772  0.05690  1.0000
  H   H4134     1.0  0.82883  0.41592  0.05854  1.0000
  C   C2436     1.0  0.81991  0.46609  0.09589  1.0000
  C   C2437     1.0  0.82333  0.49003  0.11874  1.0000
  C   C2438     1.0  0.83121  0.44892  0.10358  1.0000
  H   H4135     1.0  0.81563  0.46587  0.13154  1.0000
  H   H4136     1.0  0.81529  0.46305  0.08533  1.0000
  H   H4137     1.0  0.82885  0.47523  0.08874  1.0000
  H   H4138     1.0  0.82702  0.49059  0.13094  1.0000
  H   H4139     1.0  0.81756  0.50360  0.11315  1.0000
  H   H4140     1.0  0.78918  0.45458  0.14290  1.0000
  H   H4141     1.0  0.82516  0.43761  0.10475  1.0000
  H   H4142     1.0  0.83406  0.44900  0.11622  1.0000
  H   H4143     1.0  0.84440  0.44699  0.09496  1.0000
  H   H4144     1.0  0.79985  0.50691  0.21973  1.0000
  N   N171      1.0  0.81186  0.55551  0.30182  1.0000
  H   H4145     1.0  0.76580  0.32986  0.39445  1.0000
  H   H4146     1.0  0.77098  0.38517  0.34272  1.0000
  C   C2439     1.0  0.75541  0.42035  0.34256  1.0000
  H   H4147     1.0  0.86144  0.45037  0.24264  1.0000
  H   H4148     1.0  0.82392  0.56115  0.32056  1.0000
  H   H4149     1.0  0.77724  0.47383  0.24905  1.0000
  C   C2440     1.0  0.79806  0.44591  0.06400  1.0000
  H   H4150     1.0  0.82860  0.33565  0.16474  1.0000
  H   H4151     1.0  0.79837  0.45600  0.05186  1.0000
  H   H4152     1.0  0.78798  0.45179  0.07416  1.0000
  H   H4153     1.0  0.75642  0.47286  0.40118  1.0000
  C   C2441     1.0  0.89486  0.60826  0.15667  1.0000
  H   H4154     1.0  0.83379  0.46145  0.37606  1.0000
  C   C2442     1.0  0.77095  0.51966  0.13361  1.0000
  H   H4155     1.0  0.82310  0.48393  0.27211  1.0000
  H   H4156     1.0  0.82898  0.49729  0.28378  1.0000
  H   H4157     1.0  0.75869  0.37140  0.12926  1.0000
  C   C2443     1.0  0.83590  0.60309  0.15145  1.0000
  H   H4158     1.0  0.89434  0.59453  0.15749  1.0000
  N   N172      1.0  0.75307  0.39214  0.36603  1.0000
  C   C2444     1.0  0.75657  0.35985  0.15612  1.0000
  H   H4159     1.0  0.83649  0.45825  0.31873  1.0000
  H   H4160     1.0  0.77432  0.51458  0.24718  1.0000
  H   H4161     1.0  0.78418  0.37990  0.39227  1.0000
  H   H4162     1.0  0.81781  0.34153  0.02316  1.0000
  H   H4163     1.0  0.76186  0.42574  0.27781  1.0000
  H   H4164     1.0  0.82654  0.32960  0.19758  1.0000
  C   C2445     1.0  0.77785  0.41944  0.09017  1.0000
  H   H4165     1.0  0.80314  0.52655  0.32452  1.0000
  H   H4166     1.0  0.77512  0.61534  0.22580  1.0000
  H   H4167     1.0  0.78706  0.49967  0.10693  1.0000
  H   H4168     1.0  0.76529  0.42500  0.08546  1.0000
  H   H4169     1.0  0.76981  0.36745  0.39055  1.0000
  H   H4170     1.0  0.78034  0.43429  0.05672  1.0000
  H   H4171     1.0  0.86591  0.57445  0.15087  1.0000
  S   S705      1.0  0.77935  0.35686  0.09379  1.0000
  C   C2446     1.0  0.82681  0.55230  0.31119  1.0000
  C   C2447     1.0  0.77739  0.44233  0.28153  1.0000
  Fe  Fe354     1.0  0.77404  0.33007  0.09820  1.0000
  H   H4172     1.0  0.86218  0.53681  0.19721  1.0000
  H   H4173     1.0  0.78980  0.49919  0.17759  1.0000
  S   S706      1.0  0.82173  0.33938  0.08587  1.0000
  C   C2448     1.0  0.76882  0.39327  0.37245  1.0000
  H   H4174     1.0  0.78831  0.53754  0.29380  1.0000
  H   H4175     1.0  0.81117  0.32221  0.41131  1.0000
  Fe  Fe355     1.0  0.79590  0.33556  0.45129  1.0000
  C   C2449     1.0  0.80411  0.34648  0.02241  1.0000
  H   H4176     1.0  0.88708  0.51456  0.16158  1.0000
  H   H4177     1.0  0.76725  0.42283  0.34558  1.0000
  H   H4178     1.0  0.78061  0.53529  0.33161  1.0000
  C   C2450     1.0  0.76620  0.53217  0.11934  1.0000
  C   C2451     1.0  0.82854  0.60330  0.16899  1.0000
  N   N173      1.0  0.79859  0.46053  0.41207  1.0000
  C   C2452     1.0  0.80609  0.44320  0.42246  1.0000
  H   H4179     1.0  0.80414  0.33008  0.00504  1.0000
  H   H4180     1.0  0.76136  0.40215  0.07669  1.0000
  C   C2453     1.0  0.80115  0.47462  0.41988  1.0000
  C   C2454     1.0  0.79596  0.43816  0.44128  1.0000
  H   H4181     1.0  0.75801  0.45675  0.24422  1.0000
  H   H4182     1.0  0.78181  0.49752  0.41087  1.0000
  C   C2455     1.0  0.81015  0.34905  0.22230  1.0000
  H   H4183     1.0  0.80696  0.43246  0.41575  1.0000
  H   H4184     1.0  0.81980  0.44267  0.42355  1.0000
  H   H4185     1.0  0.77276  0.48604  0.39435  1.0000
  H   H4186     1.0  0.76610  0.36489  0.16049  1.0000
  C   C2456     1.0  0.75527  0.42680  0.40261  1.0000
  C   C2457     1.0  0.77924  0.46125  0.41325  1.0000
  H   H4187     1.0  0.76010  0.49877  0.25550  1.0000
  H   H4188     1.0  0.81511  0.47253  0.42105  1.0000
  H   H4189     1.0  0.80293  0.42528  0.44738  1.0000
  S   S707      1.0  0.98625  0.63371  0.24053  1.0000
  H   H4190     1.0  0.78248  0.43653  0.44174  1.0000
  H   H4191     1.0  0.75771  0.40896  0.42699  1.0000
  H   H4192     1.0  0.77680  0.44803  0.41426  1.0000
  H   H4193     1.0  0.76886  0.57531  0.26105  1.0000
  Fe  Fe356     1.0  0.76489  0.35432  0.47445  1.0000
  C   C2458     1.0  0.77213  0.40096  0.06520  1.0000
  C   C2459     1.0  0.80835  0.46144  0.39345  1.0000
  C   C2460     1.0  0.76677  0.50605  0.22683  1.0000
  H   H4194     1.0  0.78316  0.63292  0.12644  1.0000
  H   H4195     1.0  0.85714  0.63722  0.14261  1.0000
  H   H4196     1.0  0.82834  0.33350  0.46503  1.0000
  H   H4197     1.0  0.79714  0.53907  0.34113  1.0000
  C   C2461     1.0  0.95617  0.65221  0.20897  1.0000
  H   H4198     1.0  0.91274  0.61344  0.23390  1.0000
  H   H4199     1.0  0.82848  0.53898  0.31941  1.0000
  H   H4200     1.0  0.86831  0.56130  0.13519  1.0000
  H   H4201     1.0  0.89370  0.62997  0.23092  1.0000
  C   C2462     1.0  0.77473  0.40508  0.10652  1.0000
  C   C2463     1.0  0.75151  0.45705  0.16855  1.0000
  C   C2464     1.0  0.84175  0.62801  0.16756  1.0000
  C   C2465     1.0  0.82841  0.46016  0.39027  1.0000
  H   H4202     1.0  0.79985  0.50231  0.41664  1.0000
  H   H4203     1.0  0.77499  0.62621  0.14945  1.0000
  C   C2466     1.0  0.75393  0.50083  0.12829  1.0000
  H   H4204     1.0  0.76985  0.54139  0.26110  1.0000
  S   S708      1.0  0.92542  0.64409  0.18048  1.0000
  C   C2467     1.0  0.79335  0.42978  0.06072  1.0000
  C   C2468     1.0  0.77250  0.60220  0.22695  1.0000
  H   H4205     1.0  0.90874  0.63022  0.28375  1.0000
  H   H4206     1.0  0.74735  0.43335  0.33832  1.0000
  H   H4207     1.0  0.77848  0.37307  0.18384  1.0000
  H   H4208     1.0  0.77557  0.56598  0.24222  1.0000
  C   C2469     1.0  0.78850  0.50302  0.19019  1.0000
  H   H4209     1.0  0.76126  0.57790  0.21820  1.0000
  C   C2470     1.0  0.76179  0.47130  0.28529  1.0000
  N   N174      1.0  0.85696  0.46449  0.27431  1.0000
  C   C2471     1.0  0.87619  0.45878  0.26665  1.0000
  C   C2472     1.0  0.84685  0.45388  0.26896  1.0000
  C   C2473     1.0  0.85487  0.46071  0.29389  1.0000
  C   C2474     1.0  0.85183  0.48372  0.26743  1.0000
  C   C2475     1.0  0.88932  0.46654  0.27217  1.0000
  C   C2476     1.0  0.84816  0.45616  0.24921  1.0000
  C   C2477     1.0  0.83636  0.45921  0.30482  1.0000
  C   C2478     1.0  0.83223  0.49238  0.27149  1.0000
  H   H4210     1.0  0.88026  0.44434  0.26997  1.0000
  H   H4211     1.0  0.87872  0.46226  0.25218  1.0000
  H   H4212     1.0  0.83266  0.45661  0.27474  1.0000
  H   H4213     1.0  0.85126  0.43976  0.27414  1.0000
  H   H4214     1.0  0.86358  0.44814  0.29835  1.0000
  H   H4215     1.0  0.85916  0.47081  0.29819  1.0000
  H   H4216     1.0  0.85875  0.49094  0.27266  1.0000
  H   H4217     1.0  0.85663  0.48711  0.25315  1.0000
  H   H4218     1.0  0.88736  0.48088  0.26786  1.0000
  H   H4219     1.0  0.88893  0.46296  0.28638  1.0000
  H   H4220     1.0  0.90287  0.46126  0.26570  1.0000
  H   H4221     1.0  0.84948  0.54409  0.29109  1.0000
  S   S709      1.0  0.80359  0.36700  0.04490  1.0000
  C   C2479     1.0  0.87528  0.56510  0.14350  1.0000
  H   H4222     1.0  0.75645  0.60413  0.25179  1.0000
  C   C2480     1.0  0.78690  0.62780  0.13935  1.0000
  H   H4223     1.0  0.90167  0.61335  0.14332  1.0000
  H   H4224     1.0  0.76803  0.49439  0.14934  1.0000
  C   C2481     1.0  0.78888  0.38888  0.25229  1.0000
  C   C2482     1.0  0.80266  0.39537  0.23982  1.0000
  H   H4225     1.0  0.81869  0.33601  0.22495  1.0000
  H   H4226     1.0  0.84554  0.33827  0.19446  1.0000
  N   N175      1.0  0.87288  0.53883  0.16964  1.0000
  H   H4227     1.0  0.88089  0.54675  0.18978  1.0000
  H   H4228     1.0  0.78373  0.59269  0.23160  1.0000
  C   C2483     1.0  0.79877  0.49300  0.22436  1.0000
  H   H4229     1.0  0.83524  0.44735  0.39653  1.0000
  C   C2484     1.0  0.79638  0.34001  0.01219  1.0000
  C   C2485     1.0  0.94779  0.64407  0.20092  1.0000
  C   C2486     1.0  0.78716  0.49109  0.08380  1.0000
  H   H4230     1.0  0.78951  0.45718  0.10426  1.0000
  C   C2487     1.0  0.76397  0.56955  0.25243  1.0000
  H   H4231     1.0  0.81125  0.44303  0.06728  1.0000
  H   H4232     1.0  0.96305  0.64452  0.21899  1.0000
  H   H4233     1.0  0.75702  0.55249  0.27775  1.0000
  S   S710      1.0  0.79847  0.35976  0.13078  1.0000
  C   C2488     1.0  0.81528  0.54162  0.29123  1.0000
  C   C2489     1.0  0.79055  0.46343  0.11467  1.0000
  H   H4234     1.0  0.78183  0.50464  0.07764  1.0000
  C   C2490     1.0  0.83978  0.33471  0.17096  1.0000
  H   H4235     1.0  0.78019  0.43021  0.09501  1.0000
  H   H4236     1.0  0.77118  0.46560  0.42532  1.0000
  H   H4237     1.0  0.78327  0.55884  0.30907  1.0000
  H   H4238     1.0  0.82642  0.54345  0.28003  1.0000
  H   H4239     1.0  0.81652  0.49163  0.24124  1.0000
  H   H4240     1.0  0.76845  0.37522  0.03829  1.0000
  C   C2491     1.0  0.85592  0.53842  0.16493  1.0000
  H   H4241     1.0  0.78717  0.38642  0.15090  1.0000
  S   S711      1.0  0.75727  0.47977  0.32522  1.0000
  C   C2492     1.0  0.90750  0.62765  0.23251  1.0000
  H   H4242     1.0  0.81285  0.35222  0.27282  1.0000
  S   S712      1.0  0.79079  0.50032  0.31353  1.0000
  H   H4243     1.0  0.80331  0.49568  0.39645  1.0000
  H   H4244     1.0  0.84558  0.53205  0.14520  1.0000
  H   H4245     1.0  0.78935  0.43250  0.28102  1.0000
  H   H4246     1.0  0.77568  0.48467  0.08918  1.0000
  H   H4247     1.0  0.79819  0.48391  0.13217  1.0000
  H   H4248     1.0  0.85479  0.55141  0.30781  1.0000
  C   C2493     1.0  0.88278  0.52026  0.17350  1.0000
  C   C2494     1.0  0.79976  0.54075  0.28355  1.0000
  H   H4249     1.0  0.82100  0.58787  0.30274  1.0000
  C   C2495     1.0  0.89953  0.51752  0.18086  1.0000
  H   H4250     1.0  0.90876  0.52587  0.17260  1.0000
  H   H4251     1.0  0.81970  0.52848  0.29880  1.0000
  H   H4252     1.0  0.75145  0.52070  0.24659  1.0000
  S   S713      1.0  0.76818  0.33187  0.46155  1.0000
  H   H4253     1.0  0.79718  0.59110  0.30748  1.0000
  H   H4254     1.0  0.75055  0.52576  0.16986  1.0000
  H   H4255     1.0  0.80168  0.50487  0.19050  1.0000
  H   H4256     1.0  0.82152  0.57293  0.27818  1.0000
  H   H4257     1.0  0.78689  0.46252  0.23195  1.0000
  C   C2496     1.0  0.76447  0.50413  0.13826  1.0000
  H   H4258     1.0  0.85877  0.36026  0.17768  1.0000
  H   H4259     1.0  0.77185  0.38897  0.06104  1.0000
  S   S714      1.0  0.84304  0.64448  0.17793  1.0000
  C   C2497     1.0  0.80924  0.58883  0.29740  1.0000
  S   S715      1.0  0.77578  0.36364  0.27879  1.0000
  H   H4260     1.0  0.80320  0.47367  0.38496  1.0000
  H   H4261     1.0  0.77899  0.39804  0.36139  1.0000
  H   H4262     1.0  0.77543  0.39578  0.25254  1.0000
  H   H4263     1.0  0.77084  0.35634  0.36552  1.0000
  H   H4264     1.0  0.79336  0.47411  0.43336  1.0000
  S   S716      1.0  0.79241  0.32412  0.07375  1.0000
  N   N176      1.0  0.78097  0.49047  0.22332  1.0000
  H   H4265     1.0  0.74797  0.47077  0.16897  1.0000
  H   H4266     1.0  0.80945  0.48579  0.21550  1.0000
  H   H4267     1.0  0.77903  0.51559  0.19000  1.0000
  S   S717      1.0  0.76881  0.33763  0.99920  1.0000
  H   H4268     1.0  0.89732  0.64739  0.29493  1.0000
  H   H4269     1.0  0.76946  0.41191  0.05427  1.0000
  H   H4270     1.0  0.75879  0.61376  0.17753  1.0000
  H   H4271     1.0  0.76537  0.40333  0.38053  1.0000
  C   C2498     1.0  0.89811  0.64205  0.28329  1.0000
  H   H4272     1.0  0.75609  0.47021  0.22364  1.0000
  H   H4273     1.0  0.77888  0.32395  0.41936  1.0000
  H   H4274     1.0  0.75918  0.41373  0.33133  1.0000
  N   N177      1.0  0.74992  0.58285  0.24427  1.0000
  H   H4275     1.0  0.88538  0.63837  0.28460  1.0000
  S   S718      1.0  0.74874  0.45754  0.09922  1.0000
  C   C2499     1.0  0.75860  0.47006  0.23647  1.0000
  H   H4276     1.0  0.75477  0.36364  0.02047  1.0000
  H   H4277     1.0  0.81063  0.65194  0.16369  1.0000
  C   C2500     1.0  0.76315  0.51003  0.24516  1.0000
  C   C2501     1.0  0.74843  0.57882  0.22749  1.0000
  H   H4278     1.0  0.74858  0.38582  0.34317  1.0000
  H   H4279     1.0  0.75052  0.38675  0.14252  1.0000
  N   N178      1.0  0.90162  0.65226  0.24959  1.0000
  H   H4280     1.0  0.76533  0.64429  0.16667  1.0000
  H   H4281     1.0  0.80813  0.63044  0.14997  1.0000
  C   C2502     1.0  0.86929  0.64775  0.25775  1.0000
  H   H4282     1.0  0.80612  0.64370  0.12981  1.0000
  H   H4283     1.0  0.74933  0.38400  0.10512  1.0000
  H   H4284     1.0  0.98831  0.64864  0.34554  1.0000
  H   H4285     1.0  0.75413  0.50460  0.22448  1.0000
  C   C2503     1.0  0.76144  0.36198  0.35672  1.0000
  H   H4286     1.0  0.79123  0.62229  0.17680  1.0000
  H   H4287     1.0  0.99121  0.63625  0.31929  1.0000
  H   H4288     1.0  0.74806  0.42505  0.21882  1.0000
  C   C2504     1.0  0.75861  0.38199  0.35152  1.0000
  H   H4289     1.0  0.85901  0.64885  0.25025  1.0000
  H   H4290     1.0  0.76683  0.35642  0.34477  1.0000
  H   H4291     1.0  0.74708  0.54925  0.26139  1.0000
  C   C2505     1.0  0.74914  0.37372  0.14142  1.0000
  C   C2506     1.0  0.79813  0.63914  0.14275  1.0000
  H   H4292     1.0  0.84691  0.32095  0.17252  1.0000
  C   C2507     1.0  0.74999  0.43300  0.15637  1.0000
  C   C2508     1.0  0.99660  0.64807  0.31742  1.0000
  H   H4293     1.0  0.77147  0.36041  0.92705  1.0000
  H   H4294     1.0  0.91550  0.32607  0.76143  1.0000
  H   H4295     1.0  0.93157  0.34125  0.65318  1.0000
  H   H4296     1.0  0.96298  0.36173  0.68265  1.0000
  H   H4297     1.0  0.92482  0.33129  0.82488  1.0000
  C   C2509     1.0  0.95258  0.36910  0.67522  1.0000
  H   H4298     1.0  0.89716  0.35319  0.75681  1.0000
  H   H4299     1.0  0.76097  0.34043  0.96460  1.0000
  Fe  Fe357     1.0  0.98178  0.35234  0.74713  1.0000
  H   H4300     1.0  0.90384  0.33914  0.81900  1.0000
  N   N179      1.0  0.78015  0.32477  0.94754  1.0000
  H   H4301     1.0  0.75224  0.35057  0.93441  1.0000
  C   C2510     1.0  0.79481  0.32756  0.93204  1.0000
  H   H4302     1.0  0.91771  0.32787  0.72181  1.0000
  H   H4303     1.0  0.91587  0.37674  0.76972  1.0000
  C   C2511     1.0  0.91225  0.33702  0.67665  1.0000
  C   C2512     1.0  0.91940  0.36803  0.78188  1.0000
  Fe  Fe358     1.0  0.95878  0.37473  0.72265  1.0000
  S   S719      1.0  0.96787  0.34595  0.72958  1.0000
  S   S720      1.0  0.93026  0.38502  0.72061  1.0000
  H   H4304     1.0  0.95940  0.37536  0.66240  1.0000
  H   H4305     1.0  0.78942  0.33586  0.92062  1.0000
  C   C2513     1.0  0.92044  0.34949  0.66066  1.0000
  H   H4306     1.0  0.80944  0.33285  0.49682  1.0000
  S   S721      1.0  0.97105  0.38107  0.74200  1.0000
  S   S722      1.0  0.98176  0.37901  0.70069  1.0000
  C   C2514     1.0  0.76186  0.35559  0.93857  1.0000
  C   C2515     1.0  0.94206  0.35624  0.67347  1.0000
  H   H4307     1.0  0.93693  0.37263  0.79668  1.0000
  H   H4308     1.0  0.80953  0.34015  0.51628  1.0000
  S   S723      1.0  0.98176  0.33594  0.77381  1.0000
  H   H4309     1.0  0.95364  0.37863  0.62559  1.0000
  H   H4310     1.0  0.93940  0.38397  0.77480  1.0000
  H   H4311     1.0  0.89972  0.34356  0.68388  1.0000
  H   H4312     1.0  0.89174  0.35292  0.79588  1.0000
  H   H4313     1.0  0.75196  0.32073  0.49542  1.0000
  S   S724      1.0  0.75088  0.35453  0.50248  1.0000
  H   H4314     1.0  0.78042  0.34847  0.95537  1.0000
  C   C2516     1.0  0.77100  0.34211  0.95237  1.0000
  C   C2517     1.0  0.89426  0.34784  0.72315  1.0000
  C   C2518     1.0  0.91232  0.34145  0.72224  1.0000
  C   C2519     1.0  0.92354  0.35277  0.72114  1.0000
  C   C2520     1.0  0.91672  0.37043  0.72147  1.0000
  C   C2521     1.0  0.89865  0.37676  0.72237  1.0000
  C   C2522     1.0  0.88750  0.36556  0.72301  1.0000
  S   S725      1.0  0.88043  0.33433  0.72233  1.0000
  H   H4315     1.0  0.93745  0.34783  0.71968  1.0000
  H   H4316     1.0  0.89324  0.39040  0.72246  1.0000
  H   H4317     1.0  0.87359  0.37063  0.72340  1.0000
  C   C2523     1.0  0.91770  0.34084  0.81524  1.0000
  H   H4318     1.0  0.80101  0.33071  0.96898  1.0000
  C   C2524     1.0  0.91242  0.37398  0.67651  1.0000
  H   H4319     1.0  0.94394  0.34441  0.76444  1.0000
  C   C2525     1.0  0.92895  0.32701  0.76190  1.0000
  H   H4320     1.0  0.88891  0.37165  0.66802  1.0000
  H   H4321     1.0  0.91686  0.38506  0.67882  1.0000
  C   C2526     1.0  0.94663  0.36833  0.63397  1.0000
  C   C2527     1.0  0.92982  0.34474  0.76523  1.0000
  C   C2528     1.0  0.89092  0.35819  0.76889  1.0000
  C   C2529     1.0  0.92636  0.33706  0.79694  1.0000
  H   H4322     1.0  0.90928  0.37286  0.79273  1.0000
  C   C2530     1.0  0.90001  0.34806  0.78416  1.0000
  H   H4323     1.0  0.94432  0.37912  0.68258  1.0000
  H   H4324     1.0  0.99228  0.36871  0.76732  1.0000
  H   H4325     1.0  0.89605  0.39221  0.65877  1.0000
  H   H4326     1.0  0.92028  0.38160  0.64113  1.0000
  H   H4327     1.0  0.94074  0.33639  0.79509  1.0000
  H   H4328     1.0  0.80364  0.33522  0.93416  1.0000
  H   H4329     1.0  0.87707  0.35644  0.77209  1.0000
  H   H4330     1.0  0.93493  0.38810  0.64988  1.0000
  N   N180      1.0  0.92664  0.36402  0.66455  1.0000
  C   C2531     1.0  0.98753  0.32478  0.68222  1.0000
  H   H4331     1.0  0.91071  0.35468  0.65200  1.0000
  H   H4332     1.0  0.96860  0.32473  0.70629  1.0000
  H   H4333     1.0  0.91844  0.35395  0.81650  1.0000
  H   H4334     1.0  0.88523  0.38756  0.68096  1.0000
  H   H4335     1.0  0.92505  0.32357  0.79746  1.0000
  H   H4336     1.0  0.95687  0.35818  0.63962  1.0000
  H   H4337     1.0  0.89055  0.37236  0.76639  1.0000
  H   H4338     1.0  0.79340  0.35084  0.50352  1.0000
  N   N181      1.0  0.91889  0.34945  0.78208  1.0000
  H   H4339     1.0  0.77897  0.32634  0.51078  1.0000
  C   C2532     1.0  0.78823  0.32604  0.51910  1.0000
  H   H4340     1.0  0.94128  0.36260  0.62572  1.0000
  H   H4341     1.0  0.95156  0.34624  0.66682  1.0000
  H   H4342     1.0  0.93771  0.34908  0.68685  1.0000
  H   H4343     1.0  0.94880  0.36144  0.77915  1.0000
  C   C2533     1.0  0.93170  0.37628  0.64770  1.0000
  H   H4344     1.0  0.89873  0.33424  0.78652  1.0000
  H   H4345     1.0  0.93728  0.32522  0.74904  1.0000
  C   C2534     1.0  0.89478  0.38166  0.67044  1.0000
  H   H4346     1.0  0.92141  0.33078  0.68567  1.0000
  H   H4347     1.0  0.78009  0.33272  0.52974  1.0000
  H   H4348     1.0  0.75434  0.36705  0.94433  1.0000
  H   H4349     1.0  0.92627  0.35492  0.75396  1.0000
  C   C2535     1.0  0.93722  0.37129  0.78328  1.0000
  H   H4350     1.0  0.90948  0.36565  0.68954  1.0000
  C   C2536     1.0  0.80115  0.33788  0.50836  1.0000
  Fe  Fe359     1.0  0.99139  0.35034  0.70877  1.0000
  H   H4351     1.0  0.90921  0.32637  0.67218  1.0000
  C   C2537     1.0  0.97179  0.32170  0.69350  1.0000
  H   H4352     1.0  0.76364  0.32361  0.93030  1.0000
  H   H4353     1.0  0.99257  0.46678  0.71627  1.0000
  C   C2538     1.0  0.99702  0.34240  0.78180  1.0000
  H   H4354     1.0  0.93001  0.32232  0.50922  1.0000
  H   H4355     1.0  0.89380  0.32143  0.51644  1.0000
  H   H4356     1.0  0.92064  0.32660  0.48373  1.0000
  Fe  Fe360     1.0  0.99535  0.38219  0.72083  1.0000
  H   H4357     1.0  0.85109  0.32755  0.48291  1.0000
  C   C2539     1.0  0.99166  0.32031  0.66580  1.0000
  H   H4358     1.0  0.95574  0.82885  0.09153  1.0000
  S   S726      1.0  0.96827  0.79254  0.14731  1.0000
  H   H4359     1.0  0.77481  0.95620  0.28565  1.0000
  S   S727      1.0  0.96866  0.71822  0.12674  1.0000
  Fe  Fe361     1.0  0.95702  0.83901  0.22303  1.0000
  S   S728      1.0  0.96057  0.85117  0.24363  1.0000
  S   S729      1.0  0.93869  0.82222  0.22321  1.0000
  H   H4360     1.0  0.80989  0.98021  0.30356  1.0000
  N   N182      1.0  0.99097  0.83179  0.09446  1.0000
  C   C2540     1.0  0.96546  0.75997  0.29093  1.0000
  H   H4361     1.0  0.99013  0.66966  0.33194  1.0000
  Fe  Fe362     1.0  0.96577  0.87358  0.22156  1.0000
  S   S730      1.0  0.95345  0.89989  0.22885  1.0000
  C   C2541     1.0  0.99132  0.84723  0.11898  1.0000
  S   S731      1.0  0.95987  0.86212  0.20150  1.0000
  Fe  Fe363     1.0  0.83993  0.97235  0.25271  1.0000
  C   C2542     1.0  0.82750  0.80468  0.33630  1.0000
  S   S732      1.0  0.83091  0.95676  0.27899  1.0000
  H   H4362     1.0  0.91072  0.69112  0.27915  1.0000
  H   H4363     1.0  0.88101  0.87052  0.27086  1.0000
  H   H4364     1.0  0.75779  0.92382  0.20172  1.0000
  H   H4365     1.0  0.89639  0.68877  0.23196  1.0000
  Fe  Fe364     1.0  0.86830  0.79222  0.28602  1.0000
  S   S733      1.0  0.84909  0.78863  0.27178  1.0000
  S   S734      1.0  0.87508  0.81758  0.28596  1.0000
  Fe  Fe365     1.0  0.87710  0.75405  0.30249  1.0000
  S   S735      1.0  0.85812  0.74686  0.29042  1.0000
  S   S736      1.0  0.89669  0.73416  0.31653  1.0000
  Fe  Fe366     1.0  0.86881  0.76442  0.26602  1.0000
  S   S737      1.0  0.87923  0.75672  0.23959  1.0000
  Fe  Fe367     1.0  0.83983  0.77148  0.29713  1.0000
  S   S738      1.0  0.81129  0.77257  0.31019  1.0000
  S   S739      1.0  0.88900  0.76999  0.27770  1.0000
  S   S740      1.0  0.85789  0.77666  0.31175  1.0000
  H   H4366     1.0  0.76651  0.97372  0.34615  1.0000
  Fe  Fe368     1.0  0.78422  0.88993  0.27221  1.0000
  H   H4367     1.0  0.75611  0.90202  0.14854  1.0000
  Fe  Fe369     1.0  0.86822  0.68457  0.19772  1.0000
  S   S741      1.0  0.89386  0.68946  0.18100  1.0000
  S   S742      1.0  0.85731  0.69266  0.22377  1.0000
  Fe  Fe370     1.0  0.88060  0.69379  0.15852  1.0000
  S   S743      1.0  0.88766  0.71657  0.13736  1.0000
  H   H4368     1.0  0.95024  0.82803  0.29942  1.0000
  H   H4369     1.0  0.96929  0.83342  0.18244  1.0000
  S   S744      1.0  0.85397  0.69103  0.17555  1.0000
  H   H4370     1.0  0.94647  0.74678  0.45943  1.0000
  H   H4371     1.0  0.80848  0.68073  0.13083  1.0000
  H   H4372     1.0  0.88510  0.96675  0.16996  1.0000
  S   S745      1.0  0.81293  0.88819  0.27080  1.0000
  C   C2543     1.0  0.98867  0.69318  0.28988  1.0000
  H   H4373     1.0  0.88495  0.75199  0.17745  1.0000
  H   H4374     1.0  0.77134  0.94576  0.33628  1.0000
  Fe  Fe371     1.0  0.96322  0.75023  0.35963  1.0000
  S   S746      1.0  0.97611  0.75765  0.33184  1.0000
  S   S747      1.0  0.93369  0.75524  0.36683  1.0000
  C   C2544     1.0  0.80298  0.98146  0.19453  1.0000
  C   C2545     1.0  0.93977  0.75261  0.16083  1.0000
  C   C2546     1.0  0.97236  0.69127  0.30063  1.0000
  C   C2547     1.0  0.94183  0.77462  0.40569  1.0000
  H   H4375     1.0  0.98566  0.88785  0.24583  1.0000
  H   H4376     1.0  0.95021  0.80990  0.25730  1.0000
  S   S748      1.0  0.97737  0.76521  0.36973  1.0000
  S   S749      1.0  0.98229  0.72485  0.36449  1.0000
  H   H4377     1.0  0.82635  0.98171  0.15733  1.0000
  H   H4378     1.0  0.94469  0.74722  0.14869  1.0000
  H   H4379     1.0  0.86503  0.85885  0.27160  1.0000
  N   N183      1.0  0.78863  0.65429  0.15143  1.0000
  C   C2548     1.0  0.79600  0.79255  0.30960  1.0000
  C   C2549     1.0  0.78393  0.79541  0.32489  1.0000
  H   H4380     1.0  0.83952  0.95043  0.17323  1.0000
  C   C2550     1.0  0.77110  0.82412  0.31024  1.0000
  C   C2551     1.0  0.78298  0.82126  0.29475  1.0000
  C   C2552     1.0  0.79529  0.80538  0.29438  1.0000
  H   H4381     1.0  0.78413  0.78545  0.33659  1.0000
  H   H4382     1.0  0.76395  0.94309  0.12447  1.0000
  H   H4383     1.0  0.78253  0.83111  0.28303  1.0000
  H   H4384     1.0  0.80431  0.80311  0.28240  1.0000
  C   C2553     1.0  0.87296  0.73888  0.23546  1.0000
  C   C2554     1.0  0.86199  0.72907  0.24818  1.0000
  C   C2555     1.0  0.85727  0.71494  0.24444  1.0000
  C   C2556     1.0  0.86345  0.71053  0.22797  1.0000
  C   C2557     1.0  0.87464  0.72017  0.21534  1.0000
  C   C2558     1.0  0.87937  0.73428  0.21908  1.0000
  H   H4385     1.0  0.85688  0.73251  0.26081  1.0000
  H   H4386     1.0  0.84859  0.70756  0.25429  1.0000
  H   H4387     1.0  0.87948  0.71684  0.20265  1.0000
  H   H4388     1.0  0.88784  0.74179  0.20921  1.0000
  C   C2559     1.0  0.90724  0.74138  0.32935  1.0000
  C   C2560     1.0  0.92441  0.73294  0.33115  1.0000
  C   C2561     1.0  0.93284  0.73767  0.34208  1.0000
  C   C2562     1.0  0.92390  0.75048  0.35173  1.0000
  C   C2563     1.0  0.90680  0.75913  0.34976  1.0000
  C   C2564     1.0  0.89858  0.75478  0.33837  1.0000
  H   H4389     1.0  0.93108  0.72251  0.32429  1.0000
  H   H4390     1.0  0.94596  0.73088  0.34362  1.0000
  H   H4391     1.0  0.89983  0.76906  0.35719  1.0000
  H   H4392     1.0  0.88528  0.76128  0.33713  1.0000
  H   H4393     1.0  0.93722  0.72490  0.22488  1.0000
  C   C2565     1.0  0.95513  0.67020  0.20439  1.0000
  H   H4394     1.0  0.82489  0.79870  0.32649  1.0000
  C   C2566     1.0  0.75303  0.89849  0.16295  1.0000
  S   S750      1.0  0.83818  0.96525  0.22819  1.0000
  H   H4395     1.0  0.96030  0.90139  0.30193  1.0000
  H   H4396     1.0  0.95727  0.75266  0.30215  1.0000
  H   H4397     1.0  0.92417  0.75867  0.42295  1.0000
  C   C2567     1.0  0.82530  0.93793  0.27691  1.0000
  C   C2568     1.0  0.81566  0.93857  0.26442  1.0000
  C   C2569     1.0  0.81122  0.92336  0.26291  1.0000
  C   C2570     1.0  0.81671  0.90753  0.27370  1.0000
  C   C2571     1.0  0.82609  0.90697  0.28634  1.0000
  C   C2572     1.0  0.83014  0.92222  0.28814  1.0000
  H   H4398     1.0  0.81140  0.95081  0.25611  1.0000
  H   H4399     1.0  0.80390  0.92378  0.25317  1.0000
  H   H4400     1.0  0.83012  0.89476  0.29480  1.0000
  H   H4401     1.0  0.83735  0.92179  0.29797  1.0000
  H   H4402     1.0  0.93803  0.69590  0.26981  1.0000
  C   C2573     1.0  0.92002  0.82294  0.23971  1.0000
  C   C2574     1.0  0.91739  0.83280  0.25245  1.0000
  C   C2575     1.0  0.90300  0.83186  0.26641  1.0000
  C   C2576     1.0  0.89141  0.82103  0.26751  1.0000
  C   C2577     1.0  0.89367  0.81183  0.25437  1.0000
  C   C2578     1.0  0.90803  0.81269  0.24053  1.0000
  H   H4403     1.0  0.92659  0.84083  0.25174  1.0000
  H   H4404     1.0  0.90120  0.83898  0.27662  1.0000
  H   H4405     1.0  0.88444  0.80386  0.25492  1.0000
  H   H4406     1.0  0.90998  0.80520  0.23058  1.0000
  C   C2579     1.0  0.93418  0.91295  0.22196  1.0000
  C   C2580     1.0  0.92427  0.92617  0.23089  1.0000
  C   C2581     1.0  0.90896  0.93694  0.22573  1.0000
  C   C2582     1.0  0.90357  0.93478  0.21136  1.0000
  C   C2583     1.0  0.91352  0.92162  0.20233  1.0000
  C   C2584     1.0  0.92868  0.91064  0.20769  1.0000
  H   H4407     1.0  0.92848  0.92812  0.24187  1.0000
  H   H4408     1.0  0.90147  0.94704  0.23276  1.0000
  H   H4409     1.0  0.90947  0.91984  0.19119  1.0000
  H   H4410     1.0  0.93626  0.90058  0.20063  1.0000
  C   C2585     1.0  0.94616  0.71832  0.12871  1.0000
  C   C2586     1.0  0.93990  0.70315  0.13758  1.0000
  C   C2587     1.0  0.92209  0.70255  0.13994  1.0000
  C   C2588     1.0  0.91028  0.71709  0.13338  1.0000
  C   C2589     1.0  0.91657  0.73220  0.12404  1.0000
  C   C2590     1.0  0.93449  0.73286  0.12178  1.0000
  H   H4411     1.0  0.94885  0.69172  0.14269  1.0000
  H   H4412     1.0  0.91753  0.69068  0.14667  1.0000
  H   H4413     1.0  0.90754  0.74343  0.11873  1.0000
  H   H4414     1.0  0.93927  0.74451  0.11463  1.0000
  H   H4415     1.0  0.83774  0.98025  0.17915  1.0000
  C   C2591     1.0  0.96926  0.81499  0.16728  1.0000
  C   C2592     1.0  0.97705  0.82585  0.17289  1.0000
  H   H4416     1.0  0.94618  0.76389  0.15829  1.0000
  H   H4417     1.0  0.95556  0.81438  0.17257  1.0000
  N   N184      1.0  0.92417  0.72212  0.26187  1.0000
  C   C2593     1.0  0.75336  0.93764  0.19578  1.0000
  H   H4418     1.0  0.95601  0.70748  0.42103  1.0000
  C   C2594     1.0  0.92286  0.77891  0.18268  1.0000
  H   H4419     1.0  0.90447  0.71481  0.25225  1.0000
  C   C2595     1.0  0.93781  0.70631  0.25791  1.0000
  H   H4420     1.0  0.91239  0.66127  0.22223  1.0000
  Fe  Fe372     1.0  0.97333  0.66197  0.23839  1.0000
  H   H4421     1.0  0.92737  0.65761  0.23634  1.0000
  H   H4422     1.0  0.98357  0.76260  0.42771  1.0000
  H   H4423     1.0  0.99546  0.86965  0.08167  1.0000
  H   H4424     1.0  0.91683  0.79292  0.12878  1.0000
  H   H4425     1.0  0.82912  0.97147  0.13985  1.0000
  H   H4426     1.0  0.92737  0.74742  0.21960  1.0000
  H   H4427     1.0  0.94519  0.69396  0.18773  1.0000
  C   C2596     1.0  0.92592  0.73508  0.22905  1.0000
  Fe  Fe373     1.0  0.86642  0.96812  0.21964  1.0000
  H   H4428     1.0  0.91410  0.74875  0.25021  1.0000
  C   C2597     1.0  0.92539  0.73790  0.24738  1.0000
  H   H4429     1.0  0.76236  0.81303  0.33714  1.0000
  H   H4430     1.0  0.97308  0.71337  0.33129  1.0000
  H   H4431     1.0  0.99120  0.88501  0.30823  1.0000
  H   H4432     1.0  0.98264  0.67722  0.14401  1.0000
  H   H4433     1.0  0.79584  0.67227  0.16321  1.0000
  H   H4434     1.0  0.93136  0.78495  0.17094  1.0000
  C   C2598     1.0  0.96472  0.81728  0.09733  1.0000
  S   S751      1.0  0.87511  0.65600  0.19759  1.0000
  H   H4435     1.0  0.89386  0.66845  0.26909  1.0000
  H   H4436     1.0  0.97085  0.80333  0.26383  1.0000
  C   C2599     1.0  0.93398  0.78532  0.28190  1.0000
  C   C2600     1.0  0.92218  0.78013  0.29981  1.0000
  H   H4437     1.0  0.93609  0.80418  0.30452  1.0000
  H   H4438     1.0  0.93776  0.77377  0.27581  1.0000
  H   H4439     1.0  0.92545  0.79510  0.27358  1.0000
  H   H4440     1.0  0.95742  0.77936  0.30660  1.0000
  H   H4441     1.0  0.91330  0.79176  0.30431  1.0000
  H   H4442     1.0  0.91360  0.77174  0.29869  1.0000
  H   H4443     1.0  0.92981  0.77266  0.30992  1.0000
  C   C2601     1.0  0.98672  0.88615  0.29597  1.0000
  H   H4444     1.0  0.95869  0.71215  0.39802  1.0000
  C   C2602     1.0  0.89352  0.96868  0.14235  1.0000
  H   H4445     1.0  0.96752  0.80940  0.29769  1.0000
  S   S752      1.0  0.86859  0.97342  0.24486  1.0000
  S   S753      1.0  0.76686  0.88921  0.29861  1.0000
  H   H4446     1.0  0.91548  0.73268  0.18027  1.0000
  H   H4447     1.0  0.98942  0.89901  0.28829  1.0000
  N   N185      1.0  0.82659  0.83439  0.31497  1.0000
  C   C2603     1.0  0.83579  0.82095  0.32813  1.0000
  C   C2604     1.0  0.83645  0.84915  0.30844  1.0000
  C   C2605     1.0  0.82716  0.82573  0.30020  1.0000
  C   C2606     1.0  0.80787  0.84024  0.32389  1.0000
  C   C2607     1.0  0.83737  0.85903  0.32215  1.0000
  C   C2608     1.0  0.82766  0.83713  0.28176  1.0000
  C   C2609     1.0  0.79668  0.85542  0.31342  1.0000
  H   H4448     1.0  0.84984  0.81642  0.32216  1.0000
  H   H4449     1.0  0.83603  0.82648  0.33931  1.0000
  H   H4450     1.0  0.83070  0.85916  0.29817  1.0000
  H   H4451     1.0  0.85022  0.84423  0.30213  1.0000
  H   H4452     1.0  0.83886  0.81501  0.29875  1.0000
  H   H4453     1.0  0.81588  0.81924  0.30318  1.0000
  H   H4454     1.0  0.80051  0.82941  0.32751  1.0000
  H   H4455     1.0  0.80751  0.84394  0.33635  1.0000
  H   H4456     1.0  0.82414  0.86448  0.32907  1.0000
  H   H4457     1.0  0.84553  0.85087  0.33156  1.0000
  H   H4458     1.0  0.84388  0.87019  0.31541  1.0000
  H   H4459     1.0  0.81719  0.84894  0.28117  1.0000
  H   H4460     1.0  0.82588  0.82939  0.27295  1.0000
  H   H4461     1.0  0.84063  0.84094  0.27639  1.0000
  H   H4462     1.0  0.80223  0.86740  0.30955  1.0000
  H   H4463     1.0  0.78348  0.85854  0.32174  1.0000
  H   H4464     1.0  0.79450  0.85185  0.30189  1.0000
  N   N186      1.0  0.77697  0.97011  0.30464  1.0000
  H   H4465     1.0  0.96076  0.88456  0.29164  1.0000
  C   C2610     1.0  0.78951  0.95418  0.31170  1.0000
  C   C2611     1.0  0.79623  0.97379  0.18442  1.0000
  H   H4466     1.0  0.92439  0.74804  0.45660  1.0000
  H   H4467     1.0  0.85878  0.94264  0.18323  1.0000
  H   H4468     1.0  0.97739  0.86944  0.27333  1.0000
  H   H4469     1.0  0.79136  0.93046  0.33148  1.0000
  H   H4470     1.0  0.86172  0.97738  0.13210  1.0000
  C   C2612     1.0  0.84672  0.95280  0.18223  1.0000
  H   H4471     1.0  0.79942  0.95733  0.31718  1.0000
  H   H4472     1.0  0.93429  0.72544  0.43947  1.0000
  H   H4473     1.0  0.76127  0.94539  0.19917  1.0000
  C   C2613     1.0  0.96529  0.78533  0.25176  1.0000
  H   H4474     1.0  0.94004  0.73550  0.29226  1.0000
  S   S754      1.0  0.76496  0.91071  0.25892  1.0000
  S   S755      1.0  0.95923  0.67864  0.29667  1.0000
  H   H4475     1.0  0.96349  0.75788  0.27866  1.0000
  C   C2614     1.0  0.75996  0.66643  0.13890  1.0000
  H   H4476     1.0  0.99500  0.67006  0.18785  1.0000
  H   H4477     1.0  0.79752  0.94763  0.30095  1.0000
  Fe  Fe374     1.0  0.99646  0.73367  0.33721  1.0000
  C   C2615     1.0  0.78952  0.98389  0.16983  1.0000
  H   H4478     1.0  0.88986  0.74856  0.15520  1.0000
  H   H4479     1.0  0.91798  0.76215  0.13732  1.0000
  H   H4480     1.0  0.93581  0.78423  0.13808  1.0000
  H   H4481     1.0  0.97541  0.78304  0.28916  1.0000
  H   H4482     1.0  0.94625  0.72577  0.17516  1.0000
  H   H4483     1.0  0.96231  0.70393  0.23838  1.0000
  H   H4484     1.0  0.79612  0.96000  0.18797  1.0000
  N   N187      1.0  0.87341  0.89660  0.24206  1.0000
  C   C2616     1.0  0.86934  0.90256  0.22400  1.0000
  C   C2617     1.0  0.89305  0.89034  0.24005  1.0000
  C   C2618     1.0  0.86761  0.91216  0.25078  1.0000
  C   C2619     1.0  0.86336  0.88239  0.25164  1.0000
  C   C2620     1.0  0.85025  0.91217  0.22290  1.0000
  C   C2621     1.0  0.90105  0.87513  0.23034  1.0000
  C   C2622     1.0  0.87584  0.91144  0.26633  1.0000
  C   C2623     1.0  0.86727  0.87230  0.26955  1.0000
  H   H4485     1.0  0.87813  0.91144  0.21565  1.0000
  H   H4486     1.0  0.87191  0.89136  0.21741  1.0000
  H   H4487     1.0  0.89734  0.88630  0.25268  1.0000
  H   H4488     1.0  0.89982  0.90124  0.23308  1.0000
  H   H4489     1.0  0.87069  0.92414  0.24128  1.0000
  H   H4490     1.0  0.85309  0.91482  0.25533  1.0000
  H   H4491     1.0  0.84902  0.88782  0.25403  1.0000
  H   H4492     1.0  0.86471  0.87267  0.24350  1.0000
  H   H4493     1.0  0.84883  0.91520  0.20910  1.0000
  H   H4494     1.0  0.84042  0.90414  0.23036  1.0000
  H   H4495     1.0  0.84699  0.92478  0.22721  1.0000
  H   H4496     1.0  0.89467  0.86377  0.23627  1.0000
  H   H4497     1.0  0.90055  0.87919  0.21632  1.0000
  H   H4498     1.0  0.91520  0.87077  0.23104  1.0000
  H   H4499     1.0  0.87423  0.89983  0.27666  1.0000
  H   H4500     1.0  0.86914  0.92301  0.27223  1.0000
  H   H4501     1.0  0.88995  0.91228  0.26206  1.0000
  H   H4502     1.0  0.85833  0.87852  0.28013  1.0000
  Fe  Fe375     1.0  0.75464  0.88873  0.25517  1.0000
  C   C2624     1.0  0.95669  0.81795  0.29146  1.0000
  H   H4503     1.0  0.93268  0.81747  0.28414  1.0000
  H   H4504     1.0  0.96219  0.82492  0.27838  1.0000
  H   H4505     1.0  0.83667  0.79465  0.34364  1.0000
  C   C2625     1.0  0.83474  0.98032  0.14454  1.0000
  C   C2626     1.0  0.98657  0.65707  0.33281  1.0000
  H   H4506     1.0  0.89849  0.70728  0.29213  1.0000
  C   C2627     1.0  0.94283  0.80795  0.29076  1.0000
  H   H4507     1.0  0.96138  0.76662  0.43780  1.0000
  H   H4508     1.0  0.81506  0.80775  0.34574  1.0000
  C   C2628     1.0  0.92126  0.78639  0.14119  1.0000
  S   S756      1.0  0.88427  0.94789  0.20456  1.0000
  N   N188      1.0  0.94972  0.79228  0.28224  1.0000
  C   C2629     1.0  0.96234  0.77924  0.29250  1.0000
  H   H4509     1.0  0.93602  0.76727  0.43332  1.0000
  H   H4510     1.0  0.80791  0.97363  0.20589  1.0000
  S   S757      1.0  0.75530  0.84361  0.31177  1.0000
  Fe  Fe376     1.0  0.98941  0.84025  0.23627  1.0000
  H   H4511     1.0  0.97195  0.69022  0.15980  1.0000
  H   H4512     1.0  0.98338  0.66806  0.16632  1.0000
  C   C2630     1.0  0.99459  0.82721  0.16587  1.0000
  C   C2631     1.0  0.97736  0.70800  0.31962  1.0000
  C   C2632     1.0  0.77159  0.81105  0.32520  1.0000
  H   H4513     1.0  0.97928  0.75366  0.29193  1.0000
  H   H4514     1.0  0.77425  0.92453  0.13819  1.0000
  H   H4515     1.0  0.97547  0.84533  0.07485  1.0000
  H   H4516     1.0  0.94145  0.74206  0.18848  1.0000
  Fe  Fe377     1.0  0.86240  0.66240  0.17432  1.0000
  H   H4517     1.0  0.93044  0.67952  0.17343  1.0000
  Fe  Fe378     1.0  0.75767  0.86819  0.29157  1.0000
  H   H4518     1.0  0.99230  0.65633  0.30542  1.0000
  C   C2633     1.0  0.88314  0.65823  0.24633  1.0000
  H   H4519     1.0  0.91928  0.68831  0.22404  1.0000
  H   H4520     1.0  0.75666  0.90531  0.18570  1.0000
  S   S758      1.0  0.98510  0.82581  0.21794  1.0000
  H   H4521     1.0  0.96295  0.87935  0.31420  1.0000
  C   C2634     1.0  0.76473  0.97909  0.31863  1.0000
  C   C2635     1.0  0.95893  0.79856  0.26388  1.0000
  C   C2636     1.0  0.99091  0.88904  0.25690  1.0000
  C   C2637     1.0  0.92516  0.72641  0.27866  1.0000
  H   H4522     1.0  0.96810  0.83044  0.11568  1.0000
  H   H4523     1.0  0.93572  0.72884  0.46855  1.0000
  C   C2638     1.0  0.93756  0.76088  0.42227  1.0000
  H   H4524     1.0  0.75964  0.65366  0.13651  1.0000
  H   H4525     1.0  0.77231  0.91085  0.16682  1.0000
  H   H4526     1.0  0.75804  0.95502  0.30464  1.0000
  H   H4527     1.0  0.93700  0.74345  0.24624  1.0000
  S   S759      1.0  0.77603  0.86811  0.26579  1.0000
  H   H4528     1.0  0.93087  0.77238  0.19275  1.0000
  H   H4529     1.0  0.91335  0.78978  0.18805  1.0000
  H   H4530     1.0  0.91356  0.73194  0.22805  1.0000
  H   H4531     1.0  0.88826  0.70086  0.27827  1.0000
  H   H4532     1.0  0.89568  0.98222  0.13925  1.0000
  H   H4533     1.0  0.75363  0.97222  0.32491  1.0000
  H   H4534     1.0  0.91567  0.79563  0.15016  1.0000
  H   H4535     1.0  0.95601  0.72070  0.44351  1.0000
  C   C2639     1.0  0.90608  0.71826  0.26414  1.0000
  H   H4536     1.0  0.89569  0.73006  0.26612  1.0000
  H   H4537     1.0  0.95897  0.72232  0.24799  1.0000
  H   H4538     1.0  0.97584  0.74699  0.44628  1.0000
  H   H4539     1.0  0.93201  0.78690  0.40668  1.0000
  C   C2640     1.0  0.90091  0.70346  0.27934  1.0000
  C   C2641     1.0  0.75797  0.91119  0.17160  1.0000
  H   H4540     1.0  0.93422  0.70050  0.24845  1.0000
  C   C2642     1.0  0.95703  0.70882  0.25069  1.0000
  H   H4541     1.0  0.95336  0.72053  0.27940  1.0000
  C   C2643     1.0  0.76615  0.96394  0.29534  1.0000
  C   C2644     1.0  0.91251  0.76629  0.17989  1.0000
  H   H4542     1.0  0.89873  0.77342  0.17961  1.0000
  H   H4543     1.0  0.95451  0.77983  0.25024  1.0000
  H   H4544     1.0  0.89965  0.77352  0.15039  1.0000
  H   H4545     1.0  0.91160  0.75620  0.19207  1.0000
  H   H4546     1.0  0.90633  0.96004  0.14430  1.0000
  N   N189      1.0  0.86143  0.97615  0.15920  1.0000
  H   H4547     1.0  0.94533  0.74297  0.26943  1.0000
  H   H4548     1.0  0.87943  0.95102  0.16157  1.0000
  H   H4549     1.0  0.91411  0.73722  0.28196  1.0000
  H   H4550     1.0  0.97806  0.73302  0.42394  1.0000
  N   N190      1.0  0.91997  0.75773  0.16428  1.0000
  C   C2645     1.0  0.91422  0.76939  0.14817  1.0000
  H   H4551     1.0  0.97627  0.77499  0.25585  1.0000
  C   C2646     1.0  0.97901  0.80503  0.15490  1.0000
  H   H4552     1.0  0.92367  0.71513  0.28964  1.0000
  C   C2647     1.0  0.96662  0.88764  0.30124  1.0000
  C   C2648     1.0  0.91296  0.74120  0.16767  1.0000
  C   C2649     1.0  0.77268  0.98103  0.33352  1.0000
  C   C2650     1.0  0.89310  0.74353  0.16833  1.0000
  C   C2651     1.0  0.94753  0.73906  0.17543  1.0000
  H   H4553     1.0  0.88930  0.73060  0.17284  1.0000
  C   C2652     1.0  0.94208  0.73165  0.27954  1.0000
  H   H4554     1.0  0.97062  0.79221  0.23853  1.0000
  C   C2653     1.0  0.94596  0.68005  0.19144  1.0000
  H   H4555     1.0  0.91996  0.73327  0.15766  1.0000
  H   H4556     1.0  0.96176  0.73904  0.17322  1.0000
  C   C2654     1.0  0.78094  0.94026  0.32560  1.0000
  S   S760      1.0  0.88762  0.66588  0.15506  1.0000
  C   C2655     1.0  0.75612  0.94054  0.17582  1.0000
  C   C2656     1.0  0.94488  0.73162  0.44057  1.0000
  H   H4557     1.0  0.97131  0.85545  0.09307  1.0000
  C   C2657     1.0  0.96062  0.71674  0.40915  1.0000
  H   H4558     1.0  0.98739  0.86997  0.06314  1.0000
  H   H4559     1.0  0.98139  0.83376  0.31110  1.0000
  H   H4560     1.0  0.75051  0.66881  0.15108  1.0000
  S   S761      1.0  0.96481  0.68051  0.21513  1.0000
  H   H4561     1.0  0.95408  0.69744  0.32374  1.0000
  H   H4562     1.0  0.95532  0.74326  0.39612  1.0000
  C   C2658     1.0  0.76579  0.93764  0.13807  1.0000
  H   H4563     1.0  0.96547  0.70106  0.26005  1.0000
  C   C2659     1.0  0.95009  0.73555  0.40892  1.0000
  S   S762      1.0  0.99519  0.86326  0.21534  1.0000
  H   H4564     1.0  0.83809  0.95124  0.19534  1.0000
  H   H4565     1.0  0.97466  0.75194  0.40830  1.0000
  C   C2660     1.0  0.91331  0.66261  0.23532  1.0000
  N   N191      1.0  0.95052  0.74375  0.42367  1.0000
  Fe  Fe379     1.0  0.98421  0.77438  0.12938  1.0000
  C   C2661     1.0  0.96661  0.69900  0.31530  1.0000
  H   H4566     1.0  0.96793  0.85406  0.30359  1.0000
  C   C2662     1.0  0.77855  0.66835  0.13939  1.0000
  Fe  Fe380     1.0  0.98190  0.74141  0.11871  1.0000
  C   C2663     1.0  0.98912  0.70425  0.17581  1.0000
  C   C2664     1.0  0.93740  0.67193  0.18350  1.0000
  H   H4567     1.0  0.77061  0.93813  0.17088  1.0000
  H   H4568     1.0  0.89020  0.96561  0.13108  1.0000
  C   C2665     1.0  0.98196  0.84830  0.08415  1.0000
  C   C2666     1.0  0.98086  0.84549  0.30049  1.0000
  C   C2667     1.0  0.81522  0.66982  0.13969  1.0000
  H   H4569     1.0  0.77449  0.93308  0.31976  1.0000
  H   H4570     1.0  0.93628  0.73544  0.40850  1.0000
  H   H4571     1.0  0.75506  0.67648  0.12814  1.0000
  H   H4572     1.0  0.98428  0.85997  0.11285  1.0000
  C   C2668     1.0  0.97698  0.82247  0.10638  1.0000
  H   H4573     1.0  0.98405  0.71387  0.16484  1.0000
  S   S763      1.0  0.97319  0.76989  0.10815  1.0000
  H   H4574     1.0  0.78708  0.97696  0.33197  1.0000
  H   H4575     1.0  0.98190  0.84086  0.28839  1.0000
  H   H4576     1.0  0.94077  0.77066  0.39387  1.0000
  H   H4577     1.0  0.87786  0.67181  0.24834  1.0000
  H   H4578     1.0  0.95495  0.77772  0.40406  1.0000
  H   H4579     1.0  0.91103  0.68531  0.24692  1.0000
  H   H4580     1.0  0.77263  0.94638  0.14140  1.0000
  C   C2669     1.0  0.96910  0.74594  0.42186  1.0000
  S   S764      1.0  0.78132  0.97390  0.15727  1.0000
  H   H4581     1.0  0.98222  0.90033  0.26213  1.0000
  C   C2670     1.0  0.97237  0.75600  0.43429  1.0000
  C   C2671     1.0  0.99089  0.87197  0.27056  1.0000
  H   H4582     1.0  0.79510  0.97617  0.28033  1.0000
  H   H4583     1.0  0.95627  0.80907  0.10728  1.0000
  S   S765      1.0  0.99078  0.74607  0.14099  1.0000
  H   H4584     1.0  0.97802  0.69772  0.18287  1.0000
  C   C2672     1.0  0.99186  0.71503  0.18788  1.0000
  C   C2673     1.0  0.90957  0.68236  0.23478  1.0000
  H   H4585     1.0  0.76092  0.88527  0.16664  1.0000
  C   C2674     1.0  0.93755  0.73954  0.45705  1.0000
  H   H4586     1.0  0.97198  0.80957  0.08724  1.0000
  H   H4587     1.0  0.85639  0.95821  0.14575  1.0000
  Fe  Fe381     1.0  0.89938  0.66167  0.17848  1.0000
  H   H4588     1.0  0.75171  0.95467  0.17086  1.0000
  C   C2675     1.0  0.87967  0.96510  0.15917  1.0000
  H   H4589     1.0  0.88279  0.65923  0.23243  1.0000
  H   H4590     1.0  0.78616  0.66966  0.12575  1.0000
  C   C2676     1.0  0.85063  0.97134  0.17716  1.0000
  Fe  Fe382     1.0  0.98851  0.84944  0.19736  1.0000
  C   C2677     1.0  0.99677  0.80582  0.14833  1.0000
  H   H4591     1.0  0.97227  0.65991  0.33274  1.0000
  H   H4592     1.0  0.82420  0.67519  0.14455  1.0000
  H   H4593     1.0  0.99321  0.68739  0.27848  1.0000
  H   H4594     1.0  0.97495  0.71600  0.40744  1.0000
  C   C2678     1.0  0.98374  0.68020  0.15634  1.0000
  S   S766      1.0  0.95200  0.65774  0.26163  1.0000
  H   H4595     1.0  0.77666  0.68128  0.14290  1.0000
  H   H4596     1.0  0.97884  0.72156  0.19433  1.0000
  C   C2679     1.0  0.99393  0.70935  0.30924  1.0000
  Fe  Fe383     1.0  0.97035  0.66188  0.27639  1.0000
  C   C2680     1.0  0.75312  0.97811  0.28570  1.0000
  C   C2681     1.0  0.99395  0.86108  0.07355  1.0000
  H   H4597     1.0  0.98203  0.84065  0.12960  1.0000
  H   H4598     1.0  0.98323  0.81040  0.11450  1.0000
  H   H4599     1.0  0.77039  0.66033  0.17478  1.0000
  H   H4600     1.0  0.85721  0.97285  0.18715  1.0000
  H   H4601     1.0  0.82373  0.65985  0.13237  1.0000
  Fe  Fe384     1.0  0.99187  0.77045  0.34216  1.0000
  C   C2682     1.0  0.85424  0.97246  0.14520  1.0000
  S   S767      1.0  0.99062  0.66860  0.25266  1.0000
  C   C2683     1.0  0.78718  0.98253  0.29132  1.0000
  C   C2684     1.0  0.80226  0.66192  0.15548  1.0000
  C   C2685     1.0  0.93799  0.65400  0.18851  1.0000
  H   H4602     1.0  0.91606  0.65722  0.26666  1.0000
  H   H4603     1.0  0.76000  0.98587  0.27385  1.0000
  H   H4604     1.0  0.99700  0.85481  0.31250  1.0000
  C   C2686     1.0  0.99647  0.85408  0.29907  1.0000
  C   C2687     1.0  0.90257  0.65583  0.26679  1.0000
  H   H4605     1.0  0.74850  0.98154  0.42944  1.0000
  H   H4606     1.0  0.74745  0.96513  0.40644  1.0000
  H   H4607     1.0  0.74820  0.95212  0.42757  1.0000
  C   C2688     1.0  0.74759  0.93702  0.15001  1.0000
  N   N192      1.0  0.74761  0.92962  0.16898  1.0000
  S   S768      1.0  0.74776  0.89173  0.22890  1.0000
  H   H4608     1.0  0.86287  0.65302  0.26972  1.0000
