data_image0
_chemical_formula_structural       HFeS2FeS2FeHFeS3FeS2FeS2FeSFeHS2FeSHFeS2FeSFeS3FeS2FeS2FeHFeHS2H8CHCH2C5HCH2C3HC6H4C6H5C6H5CH3C3HNH5C6NH8C2H3SH2C2H2C2H5C6H8CHCH5C3HCH4CHCHC4H5CH4CHNHCHNCH2C2HCHNCHCH2C2SNCH3SH4CHCH3CHC2SH2CHNHCH4CH2C3HCHC3H4CH3CH7C3H4CH4C2H11SHCH5C2HCH4CSFeS2FeS2FeSFeS3FeS2FeS2FeS2FeSFeS3FeS2FeS2FeSFeS3C6H4CH2CH2CHC3H4C6H4C6H4C6H5C3H2C2H5C7H4C4H8NC8H20C2H6C2H2CH2C2H2CNHCNHCHCH2CHCH2C2HCH4CHNH2SH2CHC2NHCH4CH2SH2SHC2HCH5C3HCH2C2H2CH5CH2CSHNH2CH2NHCH2C2H2CH3SH9CHC2HCH14CHCH3FeH4CHCH4CH6CHCNH4C2HCH2CHCHNH3CH4CH2CHCH5SH4C3HCHFeCSH3CHFeS2FeS2FeSFeS4FeS2H2FeSFeS2CHFeS2FeH2CS2HFeSFeS2FeSFeS3CHSC6HNCHC6H4C2HCH2C4HSCH3C6H4C6H4C6H8C6H11CH3CH3C2SH5CHCHFeNCH5CHCH4CH2FeSHCHC2H3CH4C3H4C2HSC3NH2CH4CH2C2H2CHNHNC8H20CHSH4NC8H20C2H5C2H3FeH3CH3CHC3H5SHCH3NHC2HSH2CH2SH2CHCH3CHFeSHCH2FeHCH2SFeSHFeSFeHC2HFeS2FeHFeH2CFeHSFeHSC2HCS2FeHSFeHSCH2S4H2SC6HCH2C6H5CH3CH2CHC4H4CHC6H3C7H4FeNC8H11CHSH9C3H3SH2SNHS2H4C2HC2HCH2C2H5SH9FeSCH2SH4C2H2NH2NH2CH3CH3SH2NHFeHC2H3CHNFeS2FeS2FeSFeS3FeS2FeS2FeSFeS3FeS2FeS2FeSFeS3FeS2FeS2FeSFeS3CHC3HCH2C2HNC2HCHC5H2C7H4C6H3C6H6C4H4C6H4C6H6C4H6C3H2C2HCHNHCH2C2H2C2HCH3CH8C2H2NC8H20NC8H17CHCNC8H20NC6H7CH2C2H3CHCH5CH2C2H2CH4NCH3NHCH2CHCHCH2CHC2HC2H2NH4CH2CHCH2CH5CHC2H8C2HCHCH6CHC2H3C2H3SHCHC2H2C2NC2H8CSCHC2H3CH7CHCH3CH2CHCH7CH5CHCHNC4H6CHCH2CNH5CHCH2CH5C2HNFeSHFeS2HFeSHSFeS2FeS2FeS2FeS2FeS2FeSFeS3FeS2FeS2FeSFeS3C4H5C7H4C2H2C2H4C6H4C6H4C6H9C6H4CH3CHCH2SHCHCH3C2H10CNHC2HNH2CHC2H13CH3C2NH4CH2NH2C2H2CH3CH3SH3CH3CHSH2CH3NC8H23CHCHSH2CHC3H3CHC2H2FeHCH4SHC2H3C2HCH2C2H2CNHC3H3C3H6CHCHC3H3CNCHSHC2H3CH2CHCHC2H7CHCNC2H3CH2C3H2FeH8CH7C3HC2HCFeS2HCHFeSHSCFeS2H2CHFeCS2CSH3SFeSCSHSCFeHFeSCSFeCHC3HC2HFeC2HCFeCSHCHSH2CH6C6H4C4HCH2CNHCH4CH3CH2CFeH4CH4C4H7CNH8CH2CH2CH3CFeH4CH3CNCHFeH4SCSH3FeNCSH2CHFeHCH3CHCH2C2HNCH2CH3SH5CH3CH2CH3CH5CH3CH3CH2C3HCHC2HCH2CHCH5CH2NH10CHCH2C2HSH5CNHS2CH3C6H5C2HSCH4CHC3FeHCH4CHFeH2CFeCH5CH3CH9CH2CHSCHNH2CHC5H5CH3NH2CHCH2C3S2C2S3FeSHFeSFeS3HFeS2FeSFeSHCFeCH3SHFe2SC4H3CH2C6H4C6H4C6H4C6HCSCHC3SHCHSHCH2C3SH2C6H5CH3FeCH3C2HCH2CH2CHC2HSCHCH4SCHNHSHC2HNC4HCH5SCH4CH9CH2SC2NH2CH8CH2C2SH2CH12CH3CHCH2CHCHCH4CFe2H4NHCH2NCH2CHCSHCHCH3CH5CH4CH2CHS2HCH2C3H3SCH2NH3C2FeCSH4CH3CH3FeH4SC2H2SHSHFeS2FeS2FeSFeSFeSHFeSHFeSFeSCSFeS2FeS2FeSFeS4FeS2FeS2FeSFeS4H2SCHSHC5H2C6H4C6H4C6H4C6H4C6H4C6H4C6HCH2C4HC7H4C6SH3C6H4SH7CH2CH5CH4CH2CHCH3NHCH2CNH2SH2CHCH2C2SH3CNC8H20CH2CNC8H20NC6HCH15FeCH3SC2H2SH2CH3C2HCH9N2HCHCH7CHCH2CHCHSCHC2HCNCH2NH3CH3CHCH2CH3CHFeH4CH7CH2CHCH2CH2C3HCH2NH9CHNC2H2CH3CH3C2HCH2CH6CH2C2HSCNC2HCH3CHCH2CHC2S2H5C2H4CHNH9C3H2NCH2C2H5FeH3CH2CH2CH2CH2CH10CHC2H3SH2CNC2HCH3CHCSC2H2CH2C2SCHSH4CHCH6SHCH5CHCHFeCHSH6C2H2CHC2HSCH2NH4CHCHFeH4SFe2S2FeS2FeHFeS3FeS2FeSHFeSFeS3FeS2FeS2FeHFeHS2FeS2FeS2FeSFeHS2CH2CH2C2H3C6H4C6H4C6H4C2HC6H7NH2C3HCH3NHC5H3CHCHSHCH2C2H7CHCHC3H5CS2CHC2H2CH4CNH6CHCH3CH6NCH3NC8H11CH8NC2HC2H12CH4CH3C2HCHCHC2HCH2CH2CHC5HCH5CSCH2CH16C3H5CH3NCH7C2SFeS2FeHCFeS2NSHFeS2FeS2FeSFeS3FeS2FeS2FeSFeS3FeS2FeS2FeHFeS3C7H4C6H4C6H4C6H4C6H4CHCHSH2NC2HC6H8CHCH3C2HSH4SNC8H22C3HCH3CH6C3H6CHNC8H8SH10NC4HC3H10CH9NHCH2C4HCH13CHCHC2HCNC8H22CH2CHCHCH3CH2NH3CH2SCHC2NHC2HCH5CH8CHCHCH3CHFeS2HFeSHS2FeS2FeS2FeSFeS3HCFeSHFeSFeS2HSH2SH2FeSHFeH3CFeS2FeS2H2FeHFeHS2HC3H2CH3SC6H4C3H2CH2CNC6H4C6H4C6H4C7H5C3H5C2H5NCHSH3CHCSCNH2NC8H21CHCH3CHCH3CH2CHCSCHFeH3CH2SH3CH4CHCSC3HCSNCH3CH2CH5CH3CHCH2NHCH2CNC8H26CH2C2HSCHCH5FeCH3CH3C2HCHC2FeS2HFeHCNC3H2CHC2HCH2SH2CH2FeHCFeH2CHFeCHFeHSHFeSHSHSFeSHFeSFeHFeHFeHSFeSH3CHSFeS2FeS2FeSHSCS2C6H2C6H4C6H4C6H4C2FeC2H2CHC7H4C2NHC2H2NH2CSH3SH3NH3CSHFeH2CH2CHC3H6SHCSHCH5SHCH2C2S2HCS2H2CHCH9CHFeH9CHFeHSHCH3CH2
_chemical_formula_sum              "H2592 Fe216 S432 C1512 N108"
_cell_length_a       51.8537
_cell_length_b       54.7171
_cell_length_c       106.664
_cell_angle_alpha    86.8607
_cell_angle_beta     90.2185
_cell_angle_gamma    109.691

_space_group_name_H-M_alt    "P 1"
_space_group_IT_number       1

loop_
  _space_group_symop_operation_xyz
  'x, y, z'

loop_
  _atom_site_type_symbol
  _atom_site_label
  _atom_site_symmetry_multiplicity
  _atom_site_fract_x
  _atom_site_fract_y
  _atom_site_fract_z
  _atom_site_occupancy
  H   H1        1.0  0.37474  0.30521  0.02122  1.0000
  Fe  Fe1       1.0  0.07098  0.37021  0.04200  1.0000
  S   S1        1.0  0.11131  0.39221  0.03226  1.0000
  S   S2        1.0  0.02926  0.34644  0.03376  1.0000
  Fe  Fe2       1.0  0.09318  0.39227  0.06803  1.0000
  S   S3        1.0  0.13428  0.41624  0.05981  1.0000
  S   S4        1.0  0.07972  0.39571  0.08812  1.0000
  Fe  Fe3       1.0  0.11085  0.42565  0.04357  1.0000
  H   H2        1.0  0.10315  0.46887  0.15342  1.0000
  Fe  Fe4       1.0  0.13153  0.38092  0.04936  1.0000
  S   S5        1.0  0.16697  0.36511  0.05021  1.0000
  S   S6        1.0  0.06983  0.40459  0.05243  1.0000
  S   S7        1.0  0.09117  0.35602  0.05843  1.0000
  Fe  Fe5       1.0  0.36049  0.38292  0.04220  1.0000
  S   S8        1.0  0.36211  0.41714  0.02937  1.0000
  S   S9        1.0  0.36417  0.34667  0.03357  1.0000
  Fe  Fe6       1.0  0.35208  0.41030  0.06588  1.0000
  S   S10       1.0  0.35411  0.44624  0.05398  1.0000
  S   S11       1.0  0.34414  0.41996  0.08582  1.0000
  Fe  Fe7       1.0  0.32650  0.41880  0.04088  1.0000
  S   S12       1.0  0.28988  0.42784  0.03272  1.0000
  Fe  Fe8       1.0  0.38933  0.44077  0.04390  1.0000
  H   H3        1.0  0.18833  0.36933  0.22568  1.0000
  S   S13       1.0  0.32275  0.38304  0.05300  1.0000
  S   S14       1.0  0.38946  0.40653  0.05645  1.0000
  Fe  Fe9       1.0  0.09507  0.42894  0.17487  1.0000
  S   S15       1.0  0.07940  0.38677  0.17061  1.0000
  H   H4        1.0  0.00134  0.43611  0.20240  1.0000
  Fe  Fe10      1.0  0.15086  0.42766  0.18248  1.0000
  S   S16       1.0  0.13986  0.38563  0.17859  1.0000
  S   S17       1.0  0.18905  0.44819  0.19278  1.0000
  Fe  Fe11      1.0  0.12051  0.39600  0.16088  1.0000
  S   S18       1.0  0.13037  0.38238  0.14203  1.0000
  Fe  Fe12      1.0  0.10033  0.38098  0.18863  1.0000
  S   S19       1.0  0.08259  0.35042  0.20450  1.0000
  S   S20       1.0  0.13502  0.43882  0.16425  1.0000
  S   S21       1.0  0.11266  0.42229  0.19336  1.0000
  Fe  Fe13      1.0  0.33361  0.40376  0.15818  1.0000
  S   S22       1.0  0.35060  0.44593  0.15234  1.0000
  S   S23       1.0  0.32449  0.37493  0.14270  1.0000
  Fe  Fe14      1.0  0.33274  0.41547  0.18649  1.0000
  S   S24       1.0  0.34940  0.45876  0.18209  1.0000
  S   S25       1.0  0.31535  0.39982  0.20617  1.0000
  Fe  Fe15      1.0  0.32041  0.45079  0.16593  1.0000
  H   H5        1.0  0.27895  0.32226  0.99392  1.0000
  Fe  Fe16      1.0  0.37789  0.44931  0.16883  1.0000
  H   H6        1.0  0.02131  0.40775  0.22859  1.0000
  S   S26       1.0  0.30155  0.40831  0.17103  1.0000
  S   S27       1.0  0.36323  0.40637  0.17407  1.0000
  H   H7        1.0  0.22161  0.43899  0.14134  1.0000
  H   H8        1.0  0.24491  0.41131  0.06342  1.0000
  H   H9        1.0  0.37250  0.40767  0.21303  1.0000
  H   H10       1.0  0.39961  0.99787  0.00425  1.0000
  H   H11       1.0  0.40465  0.38275  0.99167  1.0000
  H   H12       1.0  0.24720  0.43876  0.09471  1.0000
  H   H13       1.0  0.39239  0.38555  0.13658  1.0000
  H   H14       1.0  0.05774  0.39531  0.20542  1.0000
  C   C1        1.0  0.08008  0.35696  0.22051  1.0000
  H   H15       1.0  0.33202  0.36866  0.01568  1.0000
  C   C2        1.0  0.05610  0.43134  0.21121  1.0000
  H   H16       1.0  0.18764  0.35881  0.16710  1.0000
  H   H17       1.0  0.10019  0.39847  0.21851  1.0000
  C   C3        1.0  0.98729  0.32392  0.01744  1.0000
  C   C4        1.0  0.24211  0.47214  0.16343  1.0000
  C   C5        1.0  0.21840  0.45599  0.18330  1.0000
  C   C6        1.0  0.24192  0.45210  0.18812  1.0000
  C   C7        1.0  0.41012  0.45494  0.10760  1.0000
  H   H18       1.0  0.38018  0.09507  0.99562  1.0000
  C   C8        1.0  0.08970  0.38215  0.22488  1.0000
  H   H19       1.0  0.28248  0.45426  0.06266  1.0000
  H   H20       1.0  0.99027  0.36939  0.08280  1.0000
  C   C9        1.0  0.01191  0.35979  0.20793  1.0000
  C   C10       1.0  0.41701  0.44006  0.09691  1.0000
  C   C11       1.0  0.30057  0.04573  0.00402  1.0000
  H   H21       1.0  0.24370  0.41751  0.13173  1.0000
  C   C12       1.0  0.33713  0.40576  0.10130  1.0000
  C   C13       1.0  0.33627  0.38040  0.10464  1.0000
  C   C14       1.0  0.33173  0.37084  0.11731  1.0000
  C   C15       1.0  0.32833  0.38664  0.12672  1.0000
  C   C16       1.0  0.32845  0.41167  0.12325  1.0000
  C   C17       1.0  0.33275  0.42111  0.11064  1.0000
  H   H22       1.0  0.33950  0.36832  0.09753  1.0000
  H   H23       1.0  0.33150  0.35136  0.11989  1.0000
  H   H24       1.0  0.32513  0.42380  0.13026  1.0000
  H   H25       1.0  0.33307  0.44065  0.10815  1.0000
  C   C18       1.0  0.20081  0.38267  0.04491  1.0000
  C   C19       1.0  0.22098  0.37082  0.04621  1.0000
  C   C20       1.0  0.24832  0.38436  0.04244  1.0000
  C   C21       1.0  0.25571  0.40989  0.03732  1.0000
  C   C22       1.0  0.23545  0.42154  0.03576  1.0000
  C   C23       1.0  0.20815  0.40811  0.03965  1.0000
  H   H26       1.0  0.21538  0.35106  0.05017  1.0000
  H   H27       1.0  0.26363  0.37503  0.04345  1.0000
  H   H28       1.0  0.24101  0.44107  0.03155  1.0000
  H   H29       1.0  0.19272  0.41726  0.03847  1.0000
  H   H30       1.0  0.15971  0.40843  0.21695  1.0000
  C   C24       1.0  0.09504  0.39276  0.10290  1.0000
  C   C25       1.0  0.08429  0.39957  0.11376  1.0000
  C   C26       1.0  0.09512  0.39695  0.12573  1.0000
  C   C27       1.0  0.11671  0.38712  0.12705  1.0000
  C   C28       1.0  0.12754  0.38034  0.11619  1.0000
  C   C29       1.0  0.11690  0.38325  0.10418  1.0000
  H   H31       1.0  0.06738  0.40690  0.11292  1.0000
  H   H32       1.0  0.08650  0.40221  0.13396  1.0000
  H   H33       1.0  0.14413  0.37260  0.11708  1.0000
  H   H34       1.0  0.12530  0.37776  0.09595  1.0000
  H   H35       1.0  0.99753  0.28796  0.04803  1.0000
  C   C30       1.0  0.29719  0.32315  0.01729  1.0000
  H   H36       1.0  0.27762  0.36054  0.09365  1.0000
  H   H37       1.0  0.19280  0.41418  0.13443  1.0000
  H   H38       1.0  0.43914  0.44285  0.09629  1.0000
  C   C31       1.0  0.02067  0.33134  0.99620  1.0000
  C   C32       1.0  0.03241  0.33985  0.00789  1.0000
  C   C33       1.0  0.01582  0.33612  0.01865  1.0000
  H   H39       1.0  0.99543  0.42571  0.21888  1.0000
  N   N1        1.0  0.00457  0.32651  0.07402  1.0000
  H   H40       1.0  0.05435  0.34903  0.00858  1.0000
  H   H41       1.0  0.98902  0.33490  0.09816  1.0000
  H   H42       1.0  0.20221  0.40305  0.22731  1.0000
  H   H43       1.0  0.39393  0.30234  0.00019  1.0000
  H   H44       1.0  0.24223  0.47994  0.15388  1.0000
  C   C34       1.0  0.40076  0.34233  0.99439  1.0000
  C   C35       1.0  0.39825  0.36575  0.99811  1.0000
  C   C36       1.0  0.38775  0.36756  0.01010  1.0000
  C   C37       1.0  0.37907  0.34576  0.01855  1.0000
  C   C38       1.0  0.38138  0.32225  0.01482  1.0000
  C   C39       1.0  0.39233  0.32056  0.00288  1.0000
  N   N2        1.0  0.01551  0.38729  0.21118  1.0000
  H   H45       1.0  0.38632  0.38584  0.01276  1.0000
  H   H46       1.0  0.41753  0.41338  0.14252  1.0000
  H   H47       1.0  0.03933  0.40962  0.19509  1.0000
  H   H48       1.0  0.31604  0.41163  0.01050  1.0000
  H   H49       1.0  0.18075  0.37688  0.08523  1.0000
  H   H50       1.0  0.00954  0.35416  0.05804  1.0000
  H   H51       1.0  0.25235  0.41776  0.15596  1.0000
  H   H52       1.0  0.27977  0.34658  0.07922  1.0000
  C   C40       1.0  0.21841  0.46592  0.17095  1.0000
  C   C41       1.0  0.44785  0.45653  0.12166  1.0000
  H   H53       1.0  0.19890  0.39991  0.07318  1.0000
  H   H54       1.0  0.24071  0.39985  0.17630  1.0000
  H   H55       1.0  0.39364  0.40401  0.23373  1.0000
  S   S28       1.0  0.06837  0.45374  0.17543  1.0000
  H   H56       1.0  0.98303  0.41917  0.00034  1.0000
  H   H57       1.0  0.27656  0.41846  0.13706  1.0000
  C   C42       1.0  0.29390  0.34136  0.99635  1.0000
  C   C43       1.0  0.04625  0.47112  0.02105  1.0000
  H   H58       1.0  0.41770  0.40866  0.11835  1.0000
  H   H59       1.0  0.98755  0.34949  0.23164  1.0000
  C   C44       1.0  0.19318  0.47448  0.02871  1.0000
  C   C45       1.0  0.25454  0.40626  0.13711  1.0000
  H   H60       1.0  0.20352  0.37885  0.13376  1.0000
  H   H61       1.0  0.17821  0.39638  0.15726  1.0000
  H   H62       1.0  0.20013  0.46861  0.16718  1.0000
  H   H63       1.0  0.31172  0.03952  0.01169  1.0000
  H   H64       1.0  0.05908  0.31656  0.22578  1.0000
  C   C46       1.0  0.26524  0.45734  0.18045  1.0000
  C   C47       1.0  0.30453  0.03595  0.99112  1.0000
  C   C48       1.0  0.26242  0.34340  0.01324  1.0000
  C   C49       1.0  0.26535  0.46744  0.16812  1.0000
  C   C50       1.0  0.31156  0.37069  0.01414  1.0000
  C   C51       1.0  0.29255  0.32109  0.03165  1.0000
  H   H65       1.0  0.25318  0.38864  0.13211  1.0000
  H   H66       1.0  0.33747  0.40110  0.00083  1.0000
  H   H67       1.0  0.99149  0.34611  0.21111  1.0000
  H   H68       1.0  0.01653  0.29358  0.06931  1.0000
  H   H69       1.0  0.10578  0.46474  0.06025  1.0000
  H   H70       1.0  0.42079  0.47593  0.10508  1.0000
  H   H71       1.0  0.27864  0.03716  0.00690  1.0000
  H   H72       1.0  0.31887  0.32443  0.01587  1.0000
  C   C52       1.0  0.31633  0.39415  0.23197  1.0000
  H   H73       1.0  0.30530  0.37548  0.02342  1.0000
  C   C53       1.0  0.37209  0.40158  0.23331  1.0000
  H   H74       1.0  0.30266  0.33982  0.03595  1.0000
  H   H75       1.0  0.05350  0.46450  0.03001  1.0000
  H   H76       1.0  0.30178  0.30703  0.03592  1.0000
  H   H77       1.0  0.26289  0.38375  0.01060  1.0000
  H   H78       1.0  0.26295  0.37626  0.06698  1.0000
  C   C54       1.0  0.02990  0.33843  0.08159  1.0000
  C   C55       1.0  0.01154  0.31001  0.06457  1.0000
  C   C56       1.0  0.99690  0.41082  0.99552  1.0000
  H   H79       1.0  0.03024  0.32165  0.05902  1.0000
  C   C57       1.0  0.99692  0.34762  0.06682  1.0000
  H   H80       1.0  0.33902  0.35987  0.99451  1.0000
  H   H81       1.0  0.46261  0.43483  0.13632  1.0000
  H   H82       1.0  0.24310  0.43156  0.07528  1.0000
  H   H83       1.0  0.17757  0.36134  0.14467  1.0000
  C   C58       1.0  0.20081  0.42460  0.14298  1.0000
  H   H84       1.0  0.99149  0.38524  0.06763  1.0000
  C   C59       1.0  0.01689  0.38790  0.22531  1.0000
  H   H85       1.0  0.01162  0.33461  0.19283  1.0000
  C   C60       1.0  0.20087  0.39202  0.08283  1.0000
  C   C61       1.0  0.20009  0.40625  0.15453  1.0000
  C   C62       1.0  0.99213  0.31932  0.99497  1.0000
  C   C63       1.0  0.16520  0.39060  0.21643  1.0000
  H   H86       1.0  0.18015  0.45712  0.07412  1.0000
  H   H87       1.0  0.02717  0.35271  0.21293  1.0000
  H   H88       1.0  0.29520  0.42798  0.06317  1.0000
  H   H89       1.0  0.01504  0.42809  0.99279  1.0000
  H   H90       1.0  0.03507  0.36660  0.18995  1.0000
  C   C64       1.0  0.20026  0.36853  0.14317  1.0000
  H   H91       1.0  0.38178  0.45494  0.12815  1.0000
  H   H92       1.0  0.20919  0.41916  0.16218  1.0000
  H   H93       1.0  0.19089  0.46034  0.05223  1.0000
  H   H94       1.0  0.38453  0.41118  0.11825  1.0000
  C   C65       1.0  0.36017  0.40369  0.22154  1.0000
  H   H95       1.0  0.02709  0.35199  0.08837  1.0000
  N   N3        1.0  0.29145  0.34537  0.01013  1.0000
  H   H96       1.0  0.34558  0.02755  0.00707  1.0000
  C   C66       1.0  0.25204  0.42430  0.10103  1.0000
  H   H97       1.0  0.28804  0.01694  0.99000  1.0000
  N   N4        1.0  0.25279  0.39718  0.08180  1.0000
  C   C67       1.0  0.36751  0.07461  0.99828  1.0000
  H   H98       1.0  0.17486  0.45837  0.03238  1.0000
  H   H99       1.0  0.41138  0.44765  0.08780  1.0000
  C   C68       1.0  0.32248  0.34214  0.99185  1.0000
  C   C69       1.0  0.31655  0.39503  0.00507  1.0000
  H   H100      1.0  0.28319  0.45369  0.18410  1.0000
  C   C70       1.0  0.39930  0.40711  0.13655  1.0000
  H   H101      1.0  0.00563  0.40075  0.01485  1.0000
  N   N5        1.0  0.33240  0.03464  0.98814  1.0000
  C   C71       1.0  0.99152  0.39400  0.20596  1.0000
  H   H102      1.0  0.26254  0.39010  0.10109  1.0000
  C   C72       1.0  0.04077  0.31933  0.08925  1.0000
  H   H103      1.0  0.29459  0.39089  0.23151  1.0000
  H   H104      1.0  0.02256  0.38441  0.07449  1.0000
  C   C73       1.0  0.45988  0.45404  0.13473  1.0000
  C   C74       1.0  0.00052  0.37287  0.07350  1.0000
  S   S29       1.0  0.29386  0.47292  0.15830  1.0000
  N   N6        1.0  0.21413  0.38644  0.15327  1.0000
  C   C75       1.0  0.22335  0.37930  0.08331  1.0000
  H   H105      1.0  0.20408  0.40741  0.08954  1.0000
  H   H106      1.0  0.28454  0.30409  0.01372  1.0000
  H   H107      1.0  0.20258  0.33577  0.13302  1.0000
  S   S30       1.0  0.12060  0.46568  0.03401  1.0000
  H   H108      1.0  0.27044  0.31352  0.03422  1.0000
  H   H109      1.0  0.05798  0.33075  0.09509  1.0000
  H   H110      1.0  0.28825  0.35566  0.99023  1.0000
  H   H111      1.0  0.38232  0.41185  0.14094  1.0000
  C   C76       1.0  0.06669  0.33608  0.22901  1.0000
  H   H112      1.0  0.20549  0.39569  0.18030  1.0000
  C   C77       1.0  0.01445  0.35545  0.19387  1.0000
  H   H113      1.0  0.22034  0.36719  0.09228  1.0000
  H   H114      1.0  0.38783  0.45196  0.10690  1.0000
  H   H115      1.0  0.24788  0.32404  0.01089  1.0000
  C   C78       1.0  0.20903  0.34438  0.14220  1.0000
  H   H116      1.0  0.40485  0.41901  0.09771  1.0000
  C   C79       1.0  0.20978  0.37037  0.16557  1.0000
  C   C80       1.0  0.21970  0.38561  0.17746  1.0000
  S   S31       1.0  0.42985  0.47038  0.03737  1.0000
  H   H117      1.0  0.22007  0.37178  0.18543  1.0000
  H   H118      1.0  0.19871  0.32920  0.14961  1.0000
  C   C81       1.0  0.24455  0.39946  0.15090  1.0000
  H   H119      1.0  0.02501  0.30606  0.09576  1.0000
  N   N7        1.0  0.41708  0.44765  0.12075  1.0000
  H   H120      1.0  0.29593  0.44585  0.07710  1.0000
  C   C82       1.0  0.32192  0.99049  0.00070  1.0000
  H   H121      1.0  0.22067  0.35598  0.16546  1.0000
  H   H122      1.0  0.21157  0.46881  0.02989  1.0000
  H   H123      1.0  0.28722  0.41673  0.09356  1.0000
  H   H124      1.0  0.04227  0.44254  0.21253  1.0000
  C   C83       1.0  0.25476  0.41922  0.07228  1.0000
  H   H125      1.0  0.04681  0.35080  0.07528  1.0000
  H   H126      1.0  0.29141  0.39353  0.07601  1.0000
  C   C84       1.0  0.26930  0.38174  0.07670  1.0000
  C   C85       1.0  0.26466  0.40677  0.09426  1.0000
  C   C86       1.0  0.18249  0.38650  0.22768  1.0000
  H   H127      1.0  0.25978  0.34491  0.02348  1.0000
  C   C87       1.0  0.33208  0.39963  0.22079  1.0000
  H   H128      1.0  0.21792  0.36527  0.07570  1.0000
  C   C88       1.0  0.40428  0.46087  0.12969  1.0000
  C   C89       1.0  0.99115  0.37044  0.23266  1.0000
  C   C90       1.0  0.98928  0.42032  0.20921  1.0000
  H   H129      1.0  0.23151  0.34906  0.14291  1.0000
  H   H130      1.0  0.05114  0.45943  0.01381  1.0000
  H   H131      1.0  0.38183  0.06501  0.00216  1.0000
  H   H132      1.0  0.23348  0.41248  0.10654  1.0000
  C   C91       1.0  0.28390  0.43769  0.06878  1.0000
  H   H133      1.0  0.99203  0.39456  0.19552  1.0000
  H   H134      1.0  0.24670  0.34260  0.08551  1.0000
  H   H135      1.0  0.17749  0.39309  0.20765  1.0000
  C   C92       1.0  0.26789  0.35651  0.08436  1.0000
  H   H136      1.0  0.35290  0.07515  0.00567  1.0000
  H   H137      1.0  0.36187  0.01733  0.99506  1.0000
  H   H138      1.0  0.99557  0.37368  0.00543  1.0000
  H   H139      1.0  0.26741  0.43613  0.10756  1.0000
  H   H140      1.0  0.02374  0.46571  0.02138  1.0000
  H   H141      1.0  0.14638  0.37358  0.21538  1.0000
  H   H142      1.0  0.04933  0.30813  0.08312  1.0000
  C   C93       1.0  0.40476  0.41844  0.12286  1.0000
  C   C94       1.0  0.19159  0.47689  0.06997  1.0000
  C   C95       1.0  0.04209  0.40513  0.20523  1.0000
  H   H143      1.0  0.06546  0.42843  0.22031  1.0000
  H   H144      1.0  0.25613  0.38702  0.15481  1.0000
  H   H145      1.0  0.40614  0.45474  0.13961  1.0000
  H   H146      1.0  0.30638  0.06725  0.00353  1.0000
  C   C96       1.0  0.34168  0.01851  0.99791  1.0000
  H   H147      1.0  0.32731  0.32476  0.99540  1.0000
  H   H148      1.0  0.18726  0.43598  0.14495  1.0000
  H   H149      1.0  0.24192  0.44440  0.19768  1.0000
  H   H150      1.0  0.99859  0.35997  0.18815  1.0000
  C   C97       1.0  0.25199  0.36431  0.00703  1.0000
  C   C98       1.0  0.00753  0.39463  0.00524  1.0000
  H   H151      1.0  0.23386  0.46923  0.04982  1.0000
  H   H152      1.0  0.44777  0.45716  0.14259  1.0000
  H   H153      1.0  0.07303  0.44370  0.20491  1.0000
  H   H154      1.0  0.03431  0.38201  0.22874  1.0000
  H   H155      1.0  0.16442  0.47307  0.05427  1.0000
  H   H156      1.0  0.45637  0.44534  0.11546  1.0000
  H   H157      1.0  0.23009  0.35963  0.00973  1.0000
  H   H158      1.0  0.18911  0.43756  0.23139  1.0000
  H   H159      1.0  0.98197  0.31199  0.04972  1.0000
  H   H160      1.0  0.02931  0.39700  0.00329  1.0000
  H   H161      1.0  0.03384  0.33414  0.98802  1.0000
  S   S32       1.0  0.42261  0.47117  0.16491  1.0000
  H   H162      1.0  0.25289  0.36501  0.99665  1.0000
  C   C99       1.0  0.98897  0.29751  0.05508  1.0000
  H   H163      1.0  0.98437  0.29104  0.08553  1.0000
  H   H164      1.0  0.45750  0.47698  0.11787  1.0000
  H   H165      1.0  0.30123  0.98989  0.00362  1.0000
  H   H166      1.0  0.12711  0.47769  0.18708  1.0000
  H   H167      1.0  0.30158  0.39329  0.99752  1.0000
  C   C100      1.0  0.35340  0.06162  0.98643  1.0000
  C   C101      1.0  0.18680  0.47742  0.05569  1.0000
  H   H168      1.0  0.19013  0.47668  0.01845  1.0000
  C   C102      1.0  0.98085  0.30919  0.08201  1.0000
  H   H169      1.0  0.21348  0.48099  0.07221  1.0000
  H   H170      1.0  0.44009  0.48267  0.20468  1.0000
  H   H171      1.0  0.39354  0.48046  0.20310  1.0000
  H   H172      1.0  0.12819  0.36038  0.23459  1.0000
  C   C103      1.0  0.15368  0.15913  0.43295  1.0000
  S   S33       1.0  0.20647  0.01448  0.37876  1.0000
  Fe  Fe17      1.0  0.22978  0.19901  0.40461  1.0000
  S   S34       1.0  0.20779  0.15966  0.39734  1.0000
  S   S35       1.0  0.22452  0.20965  0.42470  1.0000
  Fe  Fe18      1.0  0.25392  0.22320  0.37807  1.0000
  S   S36       1.0  0.23401  0.18515  0.36914  1.0000
  S   S37       1.0  0.28080  0.26256  0.36853  1.0000
  Fe  Fe19      1.0  0.19705  0.18201  0.38099  1.0000
  S   S38       1.0  0.15536  0.16990  0.37217  1.0000
  Fe  Fe20      1.0  0.24645  0.16583  0.38621  1.0000
  S   S39       1.0  0.26801  0.13573  0.38541  1.0000
  S   S40       1.0  0.21595  0.22100  0.38893  1.0000
  S   S41       1.0  0.26944  0.20425  0.39448  1.0000
  Fe  Fe21      1.0  0.02130  0.18423  0.39408  1.0000
  S   S42       1.0  0.06150  0.18887  0.40367  1.0000
  S   S43       1.0  0.01187  0.22108  0.39041  1.0000
  Fe  Fe22      1.0  0.08240  0.37378  0.27872  1.0000
  S   S44       1.0  0.12542  0.40174  0.27865  1.0000
  S   S45       1.0  0.05838  0.37084  0.26057  1.0000
  Fe  Fe23      1.0  0.08265  0.35803  0.30721  1.0000
  S   S46       1.0  0.12616  0.38537  0.30859  1.0000
  S   S47       1.0  0.06469  0.33936  0.32674  1.0000
  Fe  Fe24      1.0  0.11350  0.41472  0.29672  1.0000
  S   S48       1.0  0.13151  0.45737  0.30158  1.0000
  Fe  Fe25      1.0  0.13396  0.37027  0.29045  1.0000
  S   S49       1.0  0.16957  0.35728  0.28576  1.0000
  S   S50       1.0  0.06957  0.38861  0.29624  1.0000
  S   S51       1.0  0.09148  0.34103  0.28954  1.0000
  Fe  Fe26      1.0  0.35592  0.39087  0.27899  1.0000
  S   S52       1.0  0.36121  0.42935  0.28705  1.0000
  S   S53       1.0  0.37208  0.39193  0.25895  1.0000
  Fe  Fe27      1.0  0.33636  0.36013  0.30485  1.0000
  S   S54       1.0  0.34106  0.39706  0.31437  1.0000
  S   S55       1.0  0.31695  0.31816  0.31354  1.0000
  Fe  Fe28      1.0  0.32132  0.40800  0.29715  1.0000
  S   S56       1.0  0.28921  0.42682  0.29988  1.0000
  Fe  Fe29      1.0  0.38070  0.41518  0.30333  1.0000
  S   S57       1.0  0.42008  0.44015  0.31246  1.0000
  S   S58       1.0  0.31450  0.37038  0.28801  1.0000
  S   S59       1.0  0.37766  0.37738  0.29495  1.0000
  C   C104      1.0  0.20256  0.37878  0.28864  1.0000
  C   C105      1.0  0.20666  0.39969  0.29630  1.0000
  C   C106      1.0  0.23344  0.41503  0.29937  1.0000
  C   C107      1.0  0.25609  0.40958  0.29474  1.0000
  C   C108      1.0  0.25189  0.38955  0.28657  1.0000
  C   C109      1.0  0.22521  0.37400  0.28365  1.0000
  H   H173      1.0  0.18925  0.40363  0.30011  1.0000
  H   H174      1.0  0.23654  0.43072  0.30558  1.0000
  H   H175      1.0  0.26917  0.38580  0.28258  1.0000
  H   H176      1.0  0.22219  0.35798  0.27766  1.0000
  C   C110      1.0  0.28662  0.07776  0.48102  1.0000
  H   H177      1.0  0.45980  0.47366  0.27204  1.0000
  H   H178      1.0  0.23728  0.02721  0.43876  1.0000
  C   C111      1.0  0.09386  0.14819  0.46491  1.0000
  H   H179      1.0  0.05447  0.27696  0.44308  1.0000
  H   H180      1.0  0.26191  0.38776  0.32729  1.0000
  C   C112      1.0  0.07333  0.41607  0.32573  1.0000
  H   H181      1.0  0.20841  0.39916  0.24912  1.0000
  C   C113      1.0  0.03044  0.27895  0.35286  1.0000
  C   C114      1.0  0.04378  0.30382  0.34688  1.0000
  C   C115      1.0  0.04863  0.30713  0.33377  1.0000
  H   H182      1.0  0.27321  0.33669  0.30864  1.0000
  H   H183      1.0  0.02671  0.27695  0.36289  1.0000
  H   H184      1.0  0.05012  0.32070  0.35246  1.0000
  H   H185      1.0  0.28394  0.07622  0.42216  1.0000
  C   C116      1.0  0.08699  0.18179  0.39527  1.0000
  C   C117      1.0  0.11402  0.19047  0.39952  1.0000
  C   C118      1.0  0.13503  0.18627  0.39266  1.0000
  C   C119      1.0  0.12908  0.17340  0.38148  1.0000
  C   C120      1.0  0.10193  0.16405  0.37742  1.0000
  C   C121      1.0  0.08088  0.16813  0.38433  1.0000
  H   H186      1.0  0.11888  0.20084  0.40803  1.0000
  H   H187      1.0  0.15589  0.19335  0.39590  1.0000
  H   H188      1.0  0.09721  0.15374  0.36887  1.0000
  H   H189      1.0  0.06000  0.16086  0.38113  1.0000
  C   C122      1.0  0.28884  0.27793  0.35308  1.0000
  C   C123      1.0  0.30530  0.30438  0.35179  1.0000
  C   C124      1.0  0.31366  0.31714  0.33984  1.0000
  C   C125      1.0  0.30611  0.30350  0.32893  1.0000
  C   C126      1.0  0.28939  0.27711  0.33020  1.0000
  C   C127      1.0  0.28056  0.26448  0.34215  1.0000
  H   H190      1.0  0.31192  0.31505  0.36014  1.0000
  H   H191      1.0  0.32648  0.33740  0.33910  1.0000
  H   H192      1.0  0.28328  0.26630  0.32186  1.0000
  H   H193      1.0  0.26775  0.24423  0.34289  1.0000
  C   C128      1.0  0.22419  0.04812  0.38056  1.0000
  C   C129      1.0  0.20939  0.06548  0.37981  1.0000
  C   C130      1.0  0.22246  0.09230  0.38127  1.0000
  C   C131      1.0  0.25064  0.10215  0.38336  1.0000
  C   C132      1.0  0.26552  0.08484  0.38404  1.0000
  C   C133      1.0  0.25238  0.05796  0.38270  1.0000
  H   H194      1.0  0.18761  0.05813  0.37809  1.0000
  H   H195      1.0  0.21072  0.10534  0.38069  1.0000
  H   H196      1.0  0.28735  0.09226  0.38560  1.0000
  H   H197      1.0  0.26409  0.04489  0.38319  1.0000
  H   H198      1.0  0.31846  0.47584  0.31248  1.0000
  C   C134      1.0  0.32833  0.39250  0.24376  1.0000
  C   C135      1.0  0.35625  0.39585  0.24448  1.0000
  C   C136      1.0  0.26782  0.99100  0.46025  1.0000
  H   H199      1.0  0.24136  0.08102  0.44617  1.0000
  H   H200      1.0  0.31584  0.38797  0.25223  1.0000
  C   C137      1.0  0.08819  0.23074  0.44267  1.0000
  C   C138      1.0  0.07087  0.36539  0.24590  1.0000
  H   H201      1.0  0.06065  0.18636  0.45587  1.0000
  H   H202      1.0  0.05035  0.32403  0.24779  1.0000
  H   H203      1.0  0.06648  0.46122  0.32454  1.0000
  H   H204      1.0  0.27865  0.37472  0.31635  1.0000
  H   H205      1.0  0.28112  0.03244  0.43268  1.0000
  C   C139      1.0  0.26286  0.36921  0.32395  1.0000
  C   C140      1.0  0.23766  0.17245  0.46301  1.0000
  C   C141      1.0  0.24176  0.16165  0.45181  1.0000
  C   C142      1.0  0.23817  0.17289  0.43998  1.0000
  C   C143      1.0  0.23086  0.19533  0.43923  1.0000
  C   C144      1.0  0.22738  0.20641  0.45043  1.0000
  C   C145      1.0  0.23048  0.19494  0.46225  1.0000
  H   H206      1.0  0.24745  0.14434  0.45229  1.0000
  H   H207      1.0  0.24100  0.16421  0.43145  1.0000
  H   H208      1.0  0.22204  0.22392  0.44996  1.0000
  H   H209      1.0  0.22754  0.20362  0.47077  1.0000
  C   C146      1.0  0.23128  0.07397  0.41685  1.0000
  C   C147      1.0  0.23513  0.04616  0.43558  1.0000
  C   C148      1.0  0.25099  0.10200  0.41814  1.0000
  C   C149      1.0  0.25180  0.06675  0.44451  1.0000
  H   H210      1.0  0.21150  0.07253  0.42141  1.0000
  H   H211      1.0  0.21329  0.04313  0.43776  1.0000
  H   H212      1.0  0.25784  0.10614  0.42785  1.0000
  H   H213      1.0  0.24024  0.11580  0.41516  1.0000
  H   H214      1.0  0.26902  0.10658  0.41173  1.0000
  H   H215      1.0  0.06601  0.23183  0.41930  1.0000
  H   H216      1.0  0.27312  0.07716  0.44135  1.0000
  H   H217      1.0  0.25373  0.05684  0.45368  1.0000
  N   N8        1.0  0.09074  0.23198  0.35375  1.0000
  C   C150      1.0  0.07233  0.21683  0.34378  1.0000
  C   C151      1.0  0.09832  0.26045  0.34979  1.0000
  C   C152      1.0  0.07465  0.22618  0.36599  1.0000
  C   C153      1.0  0.11530  0.22313  0.35471  1.0000
  C   C154      1.0  0.05883  0.18728  0.34677  1.0000
  C   C155      1.0  0.11405  0.26920  0.33718  1.0000
  C   C156      1.0  0.08407  0.24629  0.37612  1.0000
  C   C157      1.0  0.13842  0.23749  0.36351  1.0000
  H   H218      1.0  0.05542  0.22463  0.34170  1.0000
  H   H219      1.0  0.08371  0.21882  0.33475  1.0000
  H   H220      1.0  0.11089  0.27310  0.35688  1.0000
  H   H221      1.0  0.07949  0.26594  0.34910  1.0000
  H   H222      1.0  0.05284  0.22417  0.36431  1.0000
  H   H223      1.0  0.07409  0.20717  0.37039  1.0000
  H   H224      1.0  0.10893  0.20242  0.35819  1.0000
  H   H225      1.0  0.12452  0.22290  0.34533  1.0000
  H   H226      1.0  0.04556  0.17868  0.33881  1.0000
  H   H227      1.0  0.07407  0.17720  0.34785  1.0000
  H   H228      1.0  0.04529  0.18290  0.35519  1.0000
  H   H229      1.0  0.10103  0.26103  0.32911  1.0000
  H   H230      1.0  0.11996  0.29068  0.33579  1.0000
  H   H231      1.0  0.13315  0.26437  0.33701  1.0000
  H   H232      1.0  0.10611  0.25184  0.37816  1.0000
  H   H233      1.0  0.07292  0.23772  0.38505  1.0000
  H   H234      1.0  0.07878  0.26393  0.37350  1.0000
  H   H235      1.0  0.13405  0.22900  0.37330  1.0000
  H   H236      1.0  0.14267  0.25868  0.36333  1.0000
  H   H237      1.0  0.15788  0.23528  0.36034  1.0000
  C   C158      1.0  0.23448  0.35326  0.31906  1.0000
  C   C159      1.0  0.17878  0.31880  0.31629  1.0000
  H   H238      1.0  0.21936  0.35332  0.32634  1.0000
  H   H239      1.0  0.23003  0.36469  0.31092  1.0000
  H   H240      1.0  0.20256  0.32034  0.29993  1.0000
  H   H241      1.0  0.17345  0.14834  0.46925  1.0000
  H   H242      1.0  0.17741  0.31433  0.32654  1.0000
  H   H243      1.0  0.15935  0.30638  0.31220  1.0000
  C   C160      1.0  0.13030  0.34953  0.25399  1.0000
  C   C161      1.0  0.37558  0.20569  0.35781  1.0000
  H   H244      1.0  0.04681  0.22591  0.45893  1.0000
  H   H245      1.0  0.31022  0.22474  0.34400  1.0000
  C   C162      1.0  0.28671  0.18461  0.34730  1.0000
  H   H246      1.0  0.19009  0.34509  0.25932  1.0000
  H   H247      1.0  0.11227  0.33166  0.25306  1.0000
  C   C163      1.0  0.11084  0.45149  0.33457  1.0000
  C   C164      1.0  0.05718  0.26529  0.45149  1.0000
  H   H248      1.0  0.09041  0.22573  0.45277  1.0000
  H   H249      1.0  0.19784  0.29211  0.31001  1.0000
  C   C165      1.0  0.25205  0.32871  0.30507  1.0000
  N   N9        1.0  0.08108  0.43478  0.33609  1.0000
  H   H250      1.0  0.30511  0.04396  0.41994  1.0000
  C   C166      1.0  0.15917  0.40546  0.24280  1.0000
  N   N10       1.0  0.24080  0.05197  0.42167  1.0000
  H   H251      1.0  0.18707  0.03607  0.40948  1.0000
  C   C167      1.0  0.20303  0.31359  0.30999  1.0000
  H   H252      1.0  0.27363  0.01888  0.41734  1.0000
  C   C168      1.0  0.43807  0.40799  0.26914  1.0000
  H   H253      1.0  0.27996  0.09117  0.47476  1.0000
  H   H254      1.0  0.11408  0.46378  0.32565  1.0000
  C   C169      1.0  0.44584  0.38337  0.27185  1.0000
  H   H255      1.0  0.11719  0.46538  0.34214  1.0000
  C   C170      1.0  0.28292  0.03688  0.42239  1.0000
  H   H256      1.0  0.08021  0.42665  0.31645  1.0000
  H   H257      1.0  0.09122  0.40593  0.24065  1.0000
  C   C171      1.0  0.04236  0.40072  0.32486  1.0000
  C   C172      1.0  0.19321  0.02120  0.41501  1.0000
  H   H258      1.0  0.01961  0.24332  0.32709  1.0000
  C   C173      1.0  0.06440  0.45265  0.33440  1.0000
  H   H259      1.0  0.18107  0.11219  0.45939  1.0000
  H   H260      1.0  0.02420  0.17845  0.45632  1.0000
  H   H261      1.0  0.08299  0.14422  0.47413  1.0000
  H   H262      1.0  0.42814  0.44972  0.27578  1.0000
  C   C174      1.0  0.04197  0.17983  0.45018  1.0000
  H   H263      1.0  0.04350  0.28696  0.31670  1.0000
  N   N11       1.0  0.16886  0.38301  0.24045  1.0000
  H   H264      1.0  0.03225  0.39464  0.33419  1.0000
  H   H265      1.0  0.28540  0.06121  0.47517  1.0000
  S   S60       1.0  0.98222  0.16308  0.40462  1.0000
  H   H266      1.0  0.32523  0.17794  0.38991  1.0000
  H   H267      1.0  0.38627  0.47418  0.31083  1.0000
  C   C175      1.0  0.02651  0.26013  0.33271  1.0000
  H   H268      1.0  0.17186  0.19279  0.45261  1.0000
  C   C176      1.0  0.44162  0.47195  0.30732  1.0000
  C   C177      1.0  0.15237  0.18326  0.45796  1.0000
  N   N12       1.0  0.14264  0.15421  0.45677  1.0000
  H   H269      1.0  0.15091  0.40376  0.25253  1.0000
  C   C178      1.0  0.14435  0.35833  0.24099  1.0000
  H   H270      1.0  0.07236  0.46900  0.35314  1.0000
  H   H271      1.0  0.12692  0.14201  0.47592  1.0000
  H   H272      1.0  0.07679  0.46051  0.29641  1.0000
  H   H273      1.0  0.18440  0.15623  0.45345  1.0000
  C   C179      1.0  0.16647  0.14490  0.45942  1.0000
  H   H274      1.0  0.04217  0.44172  0.33593  1.0000
  H   H275      1.0  0.15235  0.45182  0.33206  1.0000
  S   S61       1.0  0.00385  0.22477  0.35267  1.0000
  H   H276      1.0  0.18416  0.01820  0.42459  1.0000
  H   H277      1.0  0.44622  0.37862  0.28208  1.0000
  S   S62       1.0  0.24121  0.15697  0.47768  1.0000
  H   H278      1.0  0.31172  0.00180  0.46042  1.0000
  C   C180      1.0  0.07537  0.42119  0.34903  1.0000
  C   C181      1.0  0.07141  0.47545  0.34316  1.0000
  H   H279      1.0  0.30844  0.43994  0.32875  1.0000
  C   C182      1.0  0.10299  0.21631  0.43490  1.0000
  H   H280      1.0  0.04573  0.26978  0.45934  1.0000
  H   H281      1.0  0.12236  0.12714  0.44274  1.0000
  H   H282      1.0  0.22487  0.06502  0.47734  1.0000
  H   H283      1.0  0.31514  0.47079  0.33519  1.0000
  H   H284      1.0  0.07184  0.26098  0.42692  1.0000
  C   C183      1.0  0.02963  0.24065  0.42264  1.0000
  C   C184      1.0  0.15752  0.19250  0.47144  1.0000
  C   C185      1.0  0.19835  0.35760  0.25069  1.0000
  H   H285      1.0  0.22839  0.01031  0.41937  1.0000
  C   C186      1.0  0.05799  0.24040  0.42696  1.0000
  H   H286      1.0  0.25054  0.34277  0.29742  1.0000
  H   H287      1.0  0.41918  0.40530  0.27480  1.0000
  C   C187      1.0  0.18940  0.38193  0.25032  1.0000
  C   C188      1.0  0.02136  0.25685  0.34579  1.0000
  H   H288      1.0  0.17007  0.15033  0.43343  1.0000
  H   H289      1.0  0.06186  0.37908  0.34594  1.0000
  C   C189      1.0  0.46771  0.43273  0.28513  1.0000
  H   H290      1.0  0.10195  0.22064  0.42468  1.0000
  H   H291      1.0  0.42968  0.36656  0.26799  1.0000
  H   H292      1.0  0.26830  0.18676  0.34266  1.0000
  H   H293      1.0  0.14622  0.10297  0.46437  1.0000
  H   H294      1.0  0.27369  0.06150  0.40792  1.0000
  C   C190      1.0  0.27060  0.05797  0.41827  1.0000
  H   H295      1.0  0.22707  0.07258  0.40662  1.0000
  H   H296      1.0  0.14388  0.34450  0.26093  1.0000
  C   C191      1.0  0.04014  0.28495  0.32676  1.0000
  S   S63       1.0  0.26712  0.00253  0.47539  1.0000
  H   H297      1.0  0.14346  0.15429  0.42379  1.0000
  N   N13       1.0  0.32821  0.21106  0.36022  1.0000
  H   H298      1.0  0.23048  0.29421  0.29433  1.0000
  H   H299      1.0  0.21559  0.32370  0.34075  1.0000
  C   C192      1.0  0.44640  0.45423  0.26945  1.0000
  H   H300      1.0  0.03927  0.38274  0.31982  1.0000
  H   H301      1.0  0.38867  0.20158  0.35056  1.0000
  N   N14       1.0  0.23117  0.32617  0.31534  1.0000
  H   H302      1.0  0.46910  0.47519  0.32285  1.0000
  C   C193      1.0  0.22465  0.02782  0.41510  1.0000
  H   H303      1.0  0.31713  0.17118  0.36811  1.0000
  H   H304      1.0  0.15574  0.11057  0.44784  1.0000
  C   C194      1.0  0.31795  0.19073  0.37096  1.0000
  C   C195      1.0  0.34810  0.20449  0.35191  1.0000
  H   H305      1.0  0.08876  0.43351  0.35610  1.0000
  H   H306      1.0  0.17973  0.33924  0.31425  1.0000
  C   C196      1.0  0.25046  0.30344  0.29882  1.0000
  H   H307      1.0  0.07689  0.38782  0.36077  1.0000
  H   H308      1.0  0.02315  0.23084  0.44811  1.0000
  H   H309      1.0  0.11251  0.11909  0.46484  1.0000
  S   S64       1.0  0.00465  0.16769  0.37577  1.0000
  H   H310      1.0  0.23142  0.02924  0.40511  1.0000
  H   H311      1.0  0.12501  0.22283  0.43736  1.0000
  H   H312      1.0  0.16305  0.18061  0.43272  1.0000
  H   H313      1.0  0.09464  0.19498  0.43695  1.0000
  H   H314      1.0  0.25864  0.31630  0.32861  1.0000
  H   H315      1.0  0.37268  0.19059  0.36552  1.0000
  H   H316      1.0  0.26941  0.35898  0.33194  1.0000
  H   H317      1.0  0.10047  0.25180  0.44141  1.0000
  H   H318      1.0  0.09835  0.39364  0.34713  1.0000
  C   C197      1.0  0.23664  0.30952  0.32605  1.0000
  H   H319      1.0  0.03224  0.25270  0.41370  1.0000
  C   C198      1.0  0.04541  0.23586  0.44968  1.0000
  C   C199      1.0  0.13219  0.14843  0.44367  1.0000
  H   H320      1.0  0.13790  0.19212  0.45356  1.0000
  C   C200      1.0  0.21944  0.30595  0.33818  1.0000
  H   H321      1.0  0.19800  0.43547  0.24781  1.0000
  H   H322      1.0  0.38707  0.22517  0.36112  1.0000
  H   H323      1.0  0.19972  0.28969  0.33759  1.0000
  H   H324      1.0  0.23311  0.28947  0.32311  1.0000
  H   H325      1.0  0.18385  0.00276  0.41027  1.0000
  H   H326      1.0  0.23115  0.30132  0.34619  1.0000
  H   H327      1.0  0.07904  0.27154  0.45413  1.0000
  H   H328      1.0  0.26641  0.30834  0.29127  1.0000
  H   H329      1.0  0.33976  0.45641  0.31168  1.0000
  H   H330      1.0  0.47662  0.43016  0.25351  1.0000
  H   H331      1.0  0.35272  0.21747  0.34321  1.0000
  H   H332      1.0  0.32503  0.24217  0.37108  1.0000
  H   H333      1.0  0.20719  0.08796  0.47702  1.0000
  H   H334      1.0  0.09840  0.16918  0.46264  1.0000
  C   C201      1.0  0.13198  0.43740  0.33473  1.0000
  H   H335      1.0  0.31548  0.98765  0.43916  1.0000
  C   C202      1.0  0.11981  0.14040  0.46602  1.0000
  H   H336      1.0  0.08396  0.40153  0.32654  1.0000
  H   H337      1.0  0.44942  0.42902  0.29137  1.0000
  H   H338      1.0  0.01576  0.22094  0.42060  1.0000
  Fe  Fe30      1.0  0.99314  0.20398  0.37247  1.0000
  H   H339      1.0  0.27915  0.16892  0.35480  1.0000
  H   H340      1.0  0.07979  0.13696  0.45778  1.0000
  H   H341      1.0  0.99442  0.37365  0.24284  1.0000
  H   H342      1.0  0.05023  0.18970  0.43016  1.0000
  C   C203      1.0  0.33599  0.47171  0.31713  1.0000
  H   H343      1.0  0.25516  0.28931  0.30549  1.0000
  C   C204      1.0  0.04299  0.19766  0.43830  1.0000
  H   H344      1.0  0.33894  0.18442  0.34870  1.0000
  H   H345      1.0  0.29642  0.18834  0.37357  1.0000
  H   H346      1.0  0.32963  0.21169  0.38827  1.0000
  H   H347      1.0  0.13407  0.42931  0.34428  1.0000
  C   C205      1.0  0.16157  0.11594  0.45757  1.0000
  H   H348      1.0  0.35567  0.19993  0.38248  1.0000
  H   H349      1.0  0.28966  0.21789  0.35789  1.0000
  H   H350      1.0  0.34046  0.45460  0.33604  1.0000
  H   H351      1.0  0.22103  0.36372  0.25134  1.0000
  H   H352      1.0  0.05409  0.41834  0.35226  1.0000
  H   H353      1.0  0.03184  0.41241  0.31944  1.0000
  C   C206      1.0  0.07849  0.39405  0.35064  1.0000
  H   H354      1.0  0.17202  0.18478  0.47656  1.0000
  C   C207      1.0  0.35169  0.26063  0.35528  1.0000
  N   N15       1.0  0.45973  0.43374  0.27154  1.0000
  H   H355      1.0  0.16677  0.21404  0.47104  1.0000
  H   H356      1.0  0.02127  0.19464  0.43602  1.0000
  H   H357      1.0  0.01963  0.24944  0.42938  1.0000
  H   H358      1.0  0.13815  0.18738  0.47693  1.0000
  C   C208      1.0  0.08498  0.38634  0.23751  1.0000
  C   C209      1.0  0.33338  0.19563  0.38350  1.0000
  H   H359      1.0  0.36860  0.25872  0.34954  1.0000
  C   C210      1.0  0.06194  0.34027  0.24155  1.0000
  H   H360      1.0  0.04014  0.16006  0.44738  1.0000
  H   H361      1.0  0.33555  0.26332  0.34911  1.0000
  C   C211      1.0  0.30387  0.21103  0.35239  1.0000
  H   H362      1.0  0.35778  0.23899  0.37153  1.0000
  C   C212      1.0  0.34047  0.23781  0.36519  1.0000
  H   H363      1.0  0.11561  0.15666  0.44159  1.0000
  N   N16       1.0  0.05864  0.22614  0.43941  1.0000
  H   H364      1.0  0.36017  0.27896  0.36023  1.0000
  H   H365      1.0  0.12245  0.36420  0.25773  1.0000
  H   H366      1.0  0.29814  0.17842  0.34006  1.0000
  C   C213      1.0  0.32482  0.45885  0.33013  1.0000
  H   H367      1.0  0.12777  0.42232  0.32779  1.0000
  H   H368      1.0  0.18129  0.38320  0.25985  1.0000
  H   H369      1.0  0.43174  0.40738  0.25915  1.0000
  H   H370      1.0  0.41785  0.44104  0.25386  1.0000
  C   C214      1.0  0.43651  0.45748  0.25598  1.0000
  H   H371      1.0  0.19250  0.34565  0.24244  1.0000
  H   H372      1.0  0.38389  0.45593  0.33096  1.0000
  C   C215      1.0  0.29337  0.99371  0.45503  1.0000
  H   H373      1.0  0.25390  0.11013  0.48246  1.0000
  C   C216      1.0  0.29551  0.98578  0.44294  1.0000
  H   H374      1.0  0.47541  0.41635  0.28727  1.0000
  H   H375      1.0  0.43067  0.47525  0.25519  1.0000
  H   H376      1.0  0.45246  0.45965  0.24874  1.0000
  H   H377      1.0  0.30831  0.08723  0.48365  1.0000
  H   H378      1.0  0.14956  0.34177  0.23750  1.0000
  S   S65       1.0  0.98566  0.21457  0.47227  1.0000
  H   H379      1.0  0.46550  0.38474  0.26732  1.0000
  H   H380      1.0  0.41839  0.47524  0.29098  1.0000
  H   H381      1.0  0.17121  0.44744  0.24323  1.0000
  H   H382      1.0  0.34054  0.47815  0.29213  1.0000
  C   C217      1.0  0.09106  0.47998  0.29728  1.0000
  C   C218      1.0  0.21736  0.07725  0.48332  1.0000
  C   C219      1.0  0.18095  0.43284  0.24115  1.0000
  H   H383      1.0  0.14180  0.40525  0.23664  1.0000
  C   C220      1.0  0.39288  0.47749  0.33044  1.0000
  H   H384      1.0  0.41543  0.48279  0.33142  1.0000
  Fe  Fe31      1.0  0.00023  0.18161  0.62667  1.0000
  C   C221      1.0  0.23827  0.07155  0.50961  1.0000
  S   S66       1.0  0.04659  0.19908  0.62345  1.0000
  H   H385      1.0  0.35242  0.15343  0.70528  1.0000
  H   H386      1.0  0.04557  0.29121  0.65406  1.0000
  H   H387      1.0  0.34359  0.18056  0.67300  1.0000
  C   C222      1.0  0.37747  0.20853  0.70728  1.0000
  H   H388      1.0  0.09156  0.23761  0.64425  1.0000
  Fe  Fe32      1.0  0.19321  0.19001  0.63828  1.0000
  S   S67       1.0  0.21954  0.22755  0.62849  1.0000
  S   S68       1.0  0.15176  0.18121  0.64814  1.0000
  Fe  Fe33      1.0  0.23461  0.16330  0.63279  1.0000
  S   S69       1.0  0.26325  0.19838  0.62215  1.0000
  S   S70       1.0  0.24805  0.12883  0.63737  1.0000
  Fe  Fe34      1.0  0.25573  0.22058  0.63818  1.0000
  S   S71       1.0  0.29392  0.25214  0.64534  1.0000
  Fe  Fe35      1.0  0.22506  0.20207  0.61346  1.0000
  S   S72       1.0  0.21530  0.21159  0.59328  1.0000
  S   S73       1.0  0.22885  0.18510  0.64917  1.0000
  S   S74       1.0  0.19695  0.16491  0.62290  1.0000
  S   S75       1.0  0.18809  0.01769  0.61724  1.0000
  Fe  Fe36      1.0  0.39161  0.04679  0.70727  1.0000
  S   S76       1.0  0.42885  0.07044  0.69578  1.0000
  S   S77       1.0  0.34784  0.02470  0.70034  1.0000
  H   H389      1.0  0.33440  0.30042  0.58149  1.0000
  H   H390      1.0  0.40327  0.23910  0.67241  1.0000
  Fe  Fe37      1.0  0.43201  0.10161  0.70921  1.0000
  S   S78       1.0  0.44026  0.14156  0.69982  1.0000
  Fe  Fe38      1.0  0.45450  0.05721  0.71000  1.0000
  S   S79       1.0  0.39406  0.07877  0.72037  1.0000
  S   S80       1.0  0.41697  0.03058  0.72042  1.0000
  C   C223      1.0  0.24094  0.09721  0.49003  1.0000
  H   H391      1.0  0.30239  0.01072  0.72122  1.0000
  Fe  Fe39      1.0  0.39360  0.28572  0.70859  1.0000
  S   S81       1.0  0.43497  0.28385  0.70306  1.0000
  S   S82       1.0  0.35206  0.26507  0.69926  1.0000
  Fe  Fe40      1.0  0.43756  0.27060  0.72327  1.0000
  H   H392      1.0  0.29941  0.29089  0.57621  1.0000
  H   H393      1.0  0.01148  0.28523  0.64051  1.0000
  C   C224      1.0  0.18677  0.09064  0.57381  1.0000
  S   S83       1.0  0.39559  0.27009  0.72857  1.0000
  S   S84       1.0  0.41125  0.32727  0.71424  1.0000
  H   H394      1.0  0.14137  0.04121  0.49390  1.0000
  Fe  Fe41      1.0  0.22389  0.16329  0.49644  1.0000
  S   S85       1.0  0.17921  0.14124  0.50000  1.0000
  Fe  Fe42      1.0  0.23160  0.18289  0.52364  1.0000
  S   S86       1.0  0.18727  0.16331  0.52854  1.0000
  S   S87       1.0  0.26105  0.19928  0.53942  1.0000
  Fe  Fe43      1.0  0.19162  0.12949  0.51897  1.0000
  S   S88       1.0  0.18014  0.09143  0.53032  1.0000
  Fe  Fe44      1.0  0.17968  0.17731  0.50919  1.0000
  S   S89       1.0  0.14819  0.19631  0.50506  1.0000
  S   S90       1.0  0.23634  0.14826  0.51479  1.0000
  S   S91       1.0  0.22393  0.20021  0.50481  1.0000
  C   C225      1.0  0.30280  0.99159  0.72506  1.0000
  H   H395      1.0  0.31823  0.15561  0.68251  1.0000
  S   S92       1.0  0.00684  0.18182  0.50246  1.0000
  C   C226      1.0  0.11552  0.17461  0.50205  1.0000
  C   C227      1.0  0.10927  0.14775  0.50410  1.0000
  C   C228      1.0  0.08247  0.13091  0.50229  1.0000
  C   C229      1.0  0.06190  0.14095  0.49858  1.0000
  C   C230      1.0  0.06851  0.16770  0.49606  1.0000
  C   C231      1.0  0.09523  0.18451  0.49784  1.0000
  H   H396      1.0  0.12476  0.13998  0.50746  1.0000
  N   N17       1.0  0.28484  0.28013  0.60153  1.0000
  C   C232      1.0  0.31478  0.30434  0.58207  1.0000
  H   H397      1.0  0.22425  0.01666  0.59393  1.0000
  C   C233      1.0  0.17047  0.06373  0.52155  1.0000
  C   C234      1.0  0.15842  0.06378  0.50980  1.0000
  C   C235      1.0  0.15093  0.04130  0.50294  1.0000
  C   C236      1.0  0.15654  0.01922  0.50761  1.0000
  C   C237      1.0  0.16890  0.01935  0.51929  1.0000
  C   C238      1.0  0.17532  0.04139  0.52637  1.0000
  H   H398      1.0  0.15445  0.08094  0.50609  1.0000
  H   H399      1.0  0.02574  0.22937  0.67553  1.0000
  H   H400      1.0  0.99225  0.26188  0.63007  1.0000
  H   H401      1.0  0.18470  0.04134  0.53544  1.0000
  C   C239      1.0  0.44377  0.16807  0.70905  1.0000
  C   C240      1.0  0.44122  0.16498  0.72212  1.0000
  H   H402      1.0  0.06947  0.28230  0.63768  1.0000
  C   C241      1.0  0.25161  0.06157  0.52087  1.0000
  H   H403      1.0  0.27269  0.11567  0.51255  1.0000
  H   H404      1.0  0.22740  0.08399  0.51350  1.0000
  C   C242      1.0  0.28140  0.30109  0.62245  1.0000
  C   C243      1.0  0.19596  0.13314  0.56125  1.0000
  C   C244      1.0  0.37469  0.14898  0.68913  1.0000
  C   C245      1.0  0.33424  0.00056  0.66407  1.0000
  H   H405      1.0  0.25905  0.29753  0.62296  1.0000
  S   S93       1.0  0.24872  0.98902  0.61755  1.0000
  C   C246      1.0  0.33248  0.01381  0.68553  1.0000
  H   H406      1.0  0.15085  0.00693  0.58691  1.0000
  H   H407      1.0  0.20254  0.15275  0.58632  1.0000
  H   H408      1.0  0.24175  0.14717  0.57544  1.0000
  C   C247      1.0  0.23247  0.09869  0.63081  1.0000
  C   C248      1.0  0.24052  0.07764  0.63496  1.0000
  C   C249      1.0  0.22739  0.05283  0.63060  1.0000
  C   C250      1.0  0.20597  0.04894  0.62213  1.0000
  C   C251      1.0  0.19820  0.07008  0.61775  1.0000
  C   C252      1.0  0.21161  0.09501  0.62201  1.0000
  H   H409      1.0  0.25679  0.08045  0.64170  1.0000
  H   H410      1.0  0.23357  0.03663  0.63396  1.0000
  H   H411      1.0  0.18168  0.06710  0.61116  1.0000
  H   H412      1.0  0.20561  0.11127  0.61864  1.0000
  C   C253      1.0  0.22829  0.20700  0.57857  1.0000
  C   C254      1.0  0.21349  0.20907  0.56774  1.0000
  C   C255      1.0  0.22312  0.20635  0.55576  1.0000
  C   C256      1.0  0.24809  0.20216  0.55443  1.0000
  C   C257      1.0  0.26311  0.20035  0.56526  1.0000
  C   C258      1.0  0.25308  0.20237  0.57730  1.0000
  H   H413      1.0  0.19441  0.21285  0.56861  1.0000
  H   H414      1.0  0.21149  0.20805  0.54751  1.0000
  H   H415      1.0  0.28249  0.19717  0.56430  1.0000
  H   H416      1.0  0.26469  0.20071  0.58556  1.0000
  C   C259      1.0  0.31015  0.25477  0.66033  1.0000
  C   C260      1.0  0.33652  0.27323  0.66160  1.0000
  C   C261      1.0  0.34980  0.27657  0.67334  1.0000
  C   C262      1.0  0.33668  0.26178  0.68407  1.0000
  C   C263      1.0  0.31033  0.24332  0.68278  1.0000
  C   C264      1.0  0.29727  0.23964  0.67102  1.0000
  H   H417      1.0  0.34674  0.28514  0.65346  1.0000
  H   H418      1.0  0.37000  0.29087  0.67410  1.0000
  H   H419      1.0  0.29981  0.23184  0.69098  1.0000
  H   H420      1.0  0.27697  0.22551  0.67029  1.0000
  H   H421      1.0  0.15087  0.07358  0.67938  1.0000
  H   H422      1.0  0.12465  0.08856  0.67981  1.0000
  H   H423      1.0  0.16809  0.12013  0.67995  1.0000
  H   H424      1.0  0.02822  0.27614  0.62745  1.0000
  C   C265      1.0  0.07490  0.19192  0.63011  1.0000
  C   C266      1.0  0.07291  0.17743  0.64151  1.0000
  C   C267      1.0  0.09658  0.17417  0.64688  1.0000
  C   C268      1.0  0.12234  0.18496  0.64082  1.0000
  C   C269      1.0  0.12419  0.19904  0.62932  1.0000
  C   C270      1.0  0.10067  0.20270  0.62408  1.0000
  H   H425      1.0  0.05328  0.16912  0.64630  1.0000
  H   H426      1.0  0.09493  0.16330  0.65579  1.0000
  H   H427      1.0  0.14385  0.20754  0.62457  1.0000
  H   H428      1.0  0.10248  0.21408  0.61530  1.0000
  H   H429      1.0  0.02460  0.26782  0.66483  1.0000
  H   H430      1.0  0.11652  0.05438  0.67742  1.0000
  H   H431      1.0  0.19996  0.13645  0.67136  1.0000
  H   H432      1.0  0.26095  0.12143  0.54670  1.0000
  H   H433      1.0  0.44452  0.37143  0.73233  1.0000
  H   H434      1.0  0.31906  0.32412  0.57755  1.0000
  H   H435      1.0  0.26187  0.04783  0.51816  1.0000
  C   C271      1.0  0.37093  0.16556  0.69976  1.0000
  H   H436      1.0  0.31725  0.23509  0.59541  1.0000
  H   H437      1.0  0.23667  0.11664  0.58360  1.0000
  H   H438      1.0  0.25091  0.26344  0.57985  1.0000
  C   C272      1.0  0.38790  0.23157  0.68016  1.0000
  H   H439      1.0  0.29236  0.32073  0.61813  1.0000
  H   H440      1.0  0.37035  0.21086  0.72716  1.0000
  H   H441      1.0  0.20139  0.06476  0.48995  1.0000
  C   C273      1.0  0.28810  0.25554  0.59717  1.0000
  C   C274      1.0  0.25627  0.27998  0.59865  1.0000
  S   S94       1.0  0.46058  0.09033  0.72236  1.0000
  H   H442      1.0  0.27411  0.26055  0.61999  1.0000
  H   H443      1.0  0.28609  0.25407  0.58690  1.0000
  H   H444      1.0  0.27120  0.23827  0.60111  1.0000
  H   H445      1.0  0.24081  0.26288  0.60363  1.0000
  H   H446      1.0  0.25283  0.29741  0.60215  1.0000
  C   C275      1.0  0.26822  0.06737  0.49279  1.0000
  H   H447      1.0  0.34083  0.04249  0.73028  1.0000
  C   C276      1.0  0.45110  0.21427  0.71010  1.0000
  H   H448      1.0  0.08616  0.29504  0.66418  1.0000
  Fe  Fe45      1.0  0.42249  0.06445  0.73254  1.0000
  N   N18       1.0  0.04224  0.25190  0.65016  1.0000
  C   C277      1.0  0.30620  0.30451  0.59596  1.0000
  H   H449      1.0  0.14997  0.05914  0.56905  1.0000
  H   H450      1.0  0.28071  0.05991  0.49946  1.0000
  H   H451      1.0  0.39941  0.21238  0.70939  1.0000
  H   H452      1.0  0.31291  0.18530  0.67697  1.0000
  H   H453      1.0  0.99970  0.21222  0.66479  1.0000
  C   C278      1.0  0.32908  0.99397  0.73252  1.0000
  H   H454      1.0  0.19534  0.12123  0.59479  1.0000
  C   C279      1.0  0.06521  0.26138  0.64046  1.0000
  H   H455      1.0  0.25145  0.04944  0.49037  1.0000
  H   H456      1.0  0.22228  0.01900  0.57729  1.0000
  H   H457      1.0  0.03688  0.11692  0.52916  1.0000
  H   H458      1.0  0.29937  0.32159  0.59683  1.0000
  C   C280      1.0  0.28039  0.10773  0.50451  1.0000
  H   H459      1.0  0.29625  0.10009  0.50851  1.0000
  H   H460      1.0  0.31539  0.24541  0.61083  1.0000
  Fe  Fe46      1.0  0.45287  0.32466  0.71003  1.0000
  S   S95       1.0  0.24502  0.99228  0.53804  1.0000
  H   H461      1.0  0.26619  0.07766  0.52585  1.0000
  C   C281      1.0  0.21114  0.13767  0.58973  1.0000
  H   H462      1.0  0.39307  0.24654  0.68719  1.0000
  C   C282      1.0  0.16755  0.07400  0.56407  1.0000
  C   C283      1.0  0.30385  0.00722  0.68424  1.0000
  H   H463      1.0  0.39562  0.15716  0.68492  1.0000
  H   H464      1.0  0.07444  0.26243  0.67139  1.0000
  H   H465      1.0  0.33749  0.20937  0.69267  1.0000
  C   C284      1.0  0.44902  0.19276  0.70307  1.0000
  H   H466      1.0  0.17334  0.00235  0.52290  1.0000
  H   H467      1.0  0.31354  0.14440  0.50073  1.0000
  H   H468      1.0  0.37270  0.12924  0.69315  1.0000
  H   H469      1.0  0.45128  0.19521  0.69296  1.0000
  C   C285      1.0  0.01552  0.24630  0.64327  1.0000
  C   C286      1.0  0.01221  0.26899  0.63491  1.0000
  C   C287      1.0  0.02113  0.21611  0.66769  1.0000
  H   H470      1.0  0.01261  0.22989  0.63708  1.0000
  H   H471      1.0  0.99768  0.24010  0.64988  1.0000
  H   H472      1.0  0.19477  0.00230  0.56194  1.0000
  H   H473      1.0  0.22190  0.05429  0.50628  1.0000
  C   C288      1.0  0.30566  0.99410  0.66274  1.0000
  C   C289      1.0  0.09294  0.25833  0.64391  1.0000
  H   H474      1.0  0.30880  0.28082  0.61840  1.0000
  S   S96       1.0  0.02804  0.11996  0.49746  1.0000
  C   C290      1.0  0.22645  0.10745  0.55984  1.0000
  C   C291      1.0  0.06819  0.27921  0.66836  1.0000
  C   C292      1.0  0.45339  0.39985  0.71657  1.0000
  N   N19       1.0  0.20808  0.11535  0.56857  1.0000
  H   H475      1.0  0.38659  0.19305  0.67735  1.0000
  H   H476      1.0  0.17805  0.06342  0.55854  1.0000
  C   C293      1.0  0.25032  0.12976  0.55343  1.0000
  H   H477      1.0  0.35924  0.14656  0.68172  1.0000
  H   H478      1.0  0.10117  0.26696  0.65281  1.0000
  H   H479      1.0  0.26174  0.00984  0.56255  1.0000
  H   H480      1.0  0.25955  0.29864  0.57963  1.0000
  C   C294      1.0  0.18826  0.98737  0.58694  1.0000
  H   H481      1.0  0.15896  0.08560  0.55754  1.0000
  H   H482      1.0  0.32547  0.30879  0.60140  1.0000
  C   C295      1.0  0.36124  0.19746  0.71962  1.0000
  C   C296      1.0  0.34758  0.01054  0.67527  1.0000
  H   H483      1.0  0.38856  0.16742  0.70611  1.0000
  H   H484      1.0  0.05913  0.25097  0.63164  1.0000
  C   C297      1.0  0.22564  0.12909  0.57910  1.0000
  H   H485      1.0  0.18141  0.06016  0.64580  1.0000
  N   N20       1.0  0.36911  0.19202  0.69607  1.0000
  H   H486      1.0  0.05312  0.17545  0.49261  1.0000
  N   N21       1.0  0.07157  0.18173  0.53688  1.0000
  C   C298      1.0  0.10102  0.19783  0.53366  1.0000
  C   C299      1.0  0.05376  0.19345  0.52918  1.0000
  C   C300      1.0  0.06686  0.15423  0.53328  1.0000
  C   C301      1.0  0.06736  0.18258  0.55081  1.0000
  C   C302      1.0  0.12307  0.18663  0.53858  1.0000
  C   C303      1.0  0.05563  0.22123  0.53219  1.0000
  C   C304      1.0  0.03712  0.13686  0.53085  1.0000
  C   C305      1.0  0.03798  0.16964  0.55610  1.0000
  H   H487      1.0  0.10418  0.20104  0.52329  1.0000
  H   H488      1.0  0.10646  0.21757  0.53730  1.0000
  H   H489      1.0  0.03182  0.18162  0.53011  1.0000
  H   H490      1.0  0.05854  0.19366  0.51898  1.0000
  H   H491      1.0  0.07820  0.15448  0.52443  1.0000
  H   H492      1.0  0.07523  0.14358  0.54050  1.0000
  H   H493      1.0  0.08001  0.17288  0.55615  1.0000
  H   H494      1.0  0.07518  0.20287  0.55390  1.0000
  H   H495      1.0  0.12152  0.16819  0.53427  1.0000
  H   H496      1.0  0.14362  0.20063  0.53581  1.0000
  H   H497      1.0  0.12267  0.18390  0.54895  1.0000
  H   H498      1.0  0.04114  0.22724  0.52608  1.0000
  H   H499      1.0  0.04920  0.22209  0.54201  1.0000
  H   H500      1.0  0.07629  0.23560  0.53019  1.0000
  H   H501      1.0  0.02905  0.14370  0.52220  1.0000
  H   H502      1.0  0.02295  0.13515  0.53881  1.0000
  H   H503      1.0  0.36764  0.22963  0.67609  1.0000
  H   H504      1.0  0.03406  0.14891  0.55905  1.0000
  H   H505      1.0  0.02193  0.17100  0.54957  1.0000
  H   H506      1.0  0.03515  0.17990  0.56442  1.0000
  C   C306      1.0  0.16957  0.13621  0.56661  1.0000
  H   H507      1.0  0.17648  0.15308  0.67404  1.0000
  S   S97       1.0  0.45881  0.31083  0.72961  1.0000
  H   H508      1.0  0.24300  0.14375  0.54784  1.0000
  H   H509      1.0  0.23198  0.10986  0.49505  1.0000
  H   H510      1.0  0.06207  0.22789  0.66069  1.0000
  H   H511      1.0  0.34627  0.99790  0.65632  1.0000
  N   N22       1.0  0.15978  0.09858  0.65546  1.0000
  C   C307      1.0  0.15808  0.09901  0.64132  1.0000
  C   C308      1.0  0.18432  0.09088  0.65901  1.0000
  C   C309      1.0  0.16368  0.12575  0.65936  1.0000
  C   C310      1.0  0.13336  0.07949  0.66081  1.0000
  C   C311      1.0  0.13586  0.10889  0.63544  1.0000
  C   C312      1.0  0.18261  0.06311  0.65600  1.0000
  C   C313      1.0  0.17779  0.13383  0.67197  1.0000
  C   C314      1.0  0.13156  0.07409  0.67517  1.0000
  H   H512      1.0  0.17804  0.11153  0.63704  1.0000
  H   H513      1.0  0.15410  0.07933  0.63781  1.0000
  H   H514      1.0  0.18872  0.09235  0.66916  1.0000
  H   H515      1.0  0.20314  0.10472  0.65433  1.0000
  H   H516      1.0  0.17645  0.14051  0.65226  1.0000
  H   H517      1.0  0.14369  0.12916  0.65969  1.0000
  H   H518      1.0  0.11596  0.08642  0.65847  1.0000
  H   H519      1.0  0.12774  0.06055  0.65628  1.0000
  H   H520      1.0  0.13829  0.12898  0.63788  1.0000
  H   H521      1.0  0.13778  0.10944  0.62505  1.0000
  H   H522      1.0  0.11487  0.09576  0.63797  1.0000
  H   H523      1.0  0.20170  0.05986  0.65917  1.0000
  H   H524      1.0  0.16527  0.04807  0.66102  1.0000
  H   H525      1.0  0.03795  0.21117  0.64983  1.0000
  H   H526      1.0  0.26595  0.14016  0.56017  1.0000
  H   H527      1.0  0.21142  0.15290  0.55992  1.0000
  H   H528      1.0  0.06194  0.28584  0.67715  1.0000
  H   H529      1.0  0.28829  0.30081  0.63233  1.0000
  H   H530      1.0  0.17340  0.09436  0.58097  1.0000
  H   H531      1.0  0.19682  0.07807  0.57896  1.0000
  C   C315      1.0  0.32836  0.17690  0.68071  1.0000
  C   C316      1.0  0.04193  0.22661  0.65671  1.0000
  H   H532      1.0  0.12245  0.98786  0.56204  1.0000
  H   H533      1.0  0.15826  0.99112  0.54830  1.0000
  H   H534      1.0  0.19102  0.12648  0.55156  1.0000
  H   H535      1.0  0.22619  0.27736  0.58416  1.0000
  H   H536      1.0  0.23530  0.05061  0.52779  1.0000
  C   C317      1.0  0.24834  0.27984  0.58472  1.0000
  C   C318      1.0  0.38915  0.20525  0.68552  1.0000
  H   H537      1.0  0.16427  0.12902  0.57645  1.0000
  H   H538      1.0  0.34669  0.00208  0.72578  1.0000
  H   H539      1.0  0.23544  0.09387  0.56486  1.0000
  Fe  Fe47      1.0  0.99648  0.13970  0.49888  1.0000
  H   H540      1.0  0.36248  0.17827  0.72281  1.0000
  H   H541      1.0  0.21460  0.09666  0.55199  1.0000
  H   H542      1.0  0.07746  0.11017  0.50417  1.0000
  C   C319      1.0  0.04397  0.27253  0.65923  1.0000
  H   H543      1.0  0.22659  0.14694  0.59683  1.0000
  H   H544      1.0  0.15183  0.12674  0.56062  1.0000
  H   H545      1.0  0.41050  0.20847  0.68862  1.0000
  C   C320      1.0  0.28764  0.27947  0.61565  1.0000
  H   H546      1.0  0.17182  0.15718  0.56616  1.0000
  C   C321      1.0  0.31523  0.25130  0.60071  1.0000
  C   C322      1.0  0.44793  0.21113  0.72316  1.0000
  C   C323      1.0  0.34014  0.18999  0.69290  1.0000
  H   H547      1.0  0.10823  0.26832  0.63639  1.0000
  H   H548      1.0  0.33336  0.26874  0.59839  1.0000
  H   H549      1.0  0.32572  0.17881  0.70053  1.0000
  H   H550      1.0  0.37566  0.22797  0.70537  1.0000
  H   H551      1.0  0.29181  0.00968  0.69201  1.0000
  S   S98       1.0  0.22358  0.00229  0.50480  1.0000
  H   H552      1.0  0.33956  0.19642  0.71888  1.0000
  C   C324      1.0  0.15289  0.00161  0.57709  1.0000
  H   H553      1.0  0.36951  0.01530  0.67600  1.0000
  H   H554      1.0  0.11755  0.01209  0.57128  1.0000
  H   H555      1.0  0.02247  0.19725  0.67148  1.0000
  N   N23       1.0  0.25736  0.08615  0.49896  1.0000
  H   H556      1.0  0.10011  0.20526  0.49608  1.0000
  C   C325      1.0  0.44345  0.18655  0.72917  1.0000
  C   C326      1.0  0.46244  0.38780  0.72846  1.0000
  H   H557      1.0  0.25609  0.98714  0.58374  1.0000
  S   S99       1.0  0.44947  0.23749  0.73221  1.0000
  H   H558      1.0  0.44557  0.41577  0.71836  1.0000
  H   H559      1.0  0.45497  0.23326  0.70544  1.0000
  C   C327      1.0  0.20978  0.01501  0.58604  1.0000
  H   H560      1.0  0.43589  0.38486  0.71237  1.0000
  H   H561      1.0  0.20043  0.03027  0.58713  1.0000
  S   S100      1.0  0.98129  0.18802  0.53510  1.0000
  H   H562      1.0  0.28212  0.14375  0.49375  1.0000
  H   H563      1.0  0.16578  0.01987  0.57196  1.0000
  C   C328      1.0  0.29538  0.13181  0.49581  1.0000
  H   H564      1.0  0.43728  0.14599  0.72679  1.0000
  C   C329      1.0  0.25184  0.98898  0.56353  1.0000
  H   H565      1.0  0.17847  0.98470  0.59641  1.0000
  H   H566      1.0  0.47741  0.11840  0.68737  1.0000
  H   H567      1.0  0.99900  0.20914  0.55890  1.0000
  C   C330      1.0  0.12380  0.99455  0.57168  1.0000
  H   H568      1.0  0.30281  0.12697  0.48691  1.0000
  Fe  Fe48      1.0  0.41659  0.31119  0.73359  1.0000
  S   S101      1.0  0.14927  0.99193  0.49860  1.0000
  H   H569      1.0  0.26878  0.99342  0.67211  1.0000
  C   C331      1.0  0.29061  0.99780  0.67293  1.0000
  H   H570      1.0  0.46387  0.99409  0.73420  1.0000
  H   H571      1.0  0.47026  0.40662  0.70946  1.0000
  Fe  Fe49      1.0  0.20633  0.98678  0.62337  1.0000
  H   H572      1.0  0.47604  0.37763  0.72503  1.0000
  C   C332      1.0  0.98077  0.19236  0.56067  1.0000
  H   H573      1.0  0.98048  0.19721  0.58069  1.0000
  H   H574      1.0  0.41789  0.39199  0.74067  1.0000
  S   S102      1.0  0.45223  0.34063  0.94963  1.0000
  Fe  Fe50      1.0  0.44801  0.27032  0.95947  1.0000
  S   S103      1.0  0.41005  0.28126  0.95563  1.0000
  H   H575      1.0  0.36247  0.10471  0.92839  1.0000
  Fe  Fe51      1.0  0.43425  0.30485  0.93881  1.0000
  S   S104      1.0  0.41985  0.31291  0.91925  1.0000
  Fe  Fe52      1.0  0.43093  0.31659  0.96689  1.0000
  H   H576      1.0  0.44121  0.18410  0.73929  1.0000
  C   C333      1.0  0.44500  0.23540  0.76951  1.0000
  C   C334      1.0  0.99636  0.37706  0.96460  1.0000
  H   H577      1.0  0.30310  0.99124  0.77364  1.0000
  Fe  Fe53      1.0  0.41648  0.08035  0.96551  1.0000
  S   S105      1.0  0.39611  0.04470  0.95473  1.0000
  S   S106      1.0  0.39468  0.11030  0.96540  1.0000
  Fe  Fe54      1.0  0.40759  0.02197  0.97103  1.0000
  H   H578      1.0  0.44207  0.06125  0.79868  1.0000
  Fe  Fe55      1.0  0.43810  0.05182  0.94654  1.0000
  H   H579      1.0  0.44333  0.21562  0.77323  1.0000
  H   H580      1.0  0.37044  0.06146  0.98016  1.0000
  C   C335      1.0  0.43013  0.40463  0.74788  1.0000
  Fe  Fe56      1.0  0.43583  0.28088  0.84903  1.0000
  H   H581      1.0  0.47052  0.28394  0.76260  1.0000
  S   S107      1.0  0.42805  0.25957  0.86838  1.0000
  Fe  Fe57      1.0  0.41932  0.29059  0.82159  1.0000
  H   H582      1.0  0.41126  0.19388  0.82804  1.0000
  S   S108      1.0  0.38856  0.27703  0.80608  1.0000
  C   C336      1.0  0.44254  0.25283  0.79061  1.0000
  C   C337      1.0  0.33195  0.03632  0.73992  1.0000
  H   H583      1.0  0.37735  0.02271  0.74121  1.0000
  C   C338      1.0  0.31143  0.99592  0.75351  1.0000
  S   S109      1.0  0.43261  0.25946  0.83130  1.0000
  S   S110      1.0  0.41775  0.30936  0.83985  1.0000
  Fe  Fe58      1.0  0.43532  0.08316  0.85383  1.0000
  H   H584      1.0  0.45289  0.18516  0.88183  1.0000
  S   S111      1.0  0.40858  0.07299  0.87172  1.0000
  Fe  Fe59      1.0  0.44056  0.09618  0.82475  1.0000
  H   H585      1.0  0.47833  0.32211  0.87460  1.0000
  S   S112      1.0  0.41937  0.10074  0.80627  1.0000
  C   C339      1.0  0.32462  0.03663  0.96411  1.0000
  H   H586      1.0  0.42781  0.19170  0.91690  1.0000
  H   H587      1.0  0.01154  0.43555  0.96446  1.0000
  S   S113      1.0  0.43735  0.06013  0.83700  1.0000
  S   S114      1.0  0.43398  0.11735  0.84142  1.0000
  S   S115      1.0  0.42667  0.05335  0.75332  1.0000
  S   S116      1.0  0.41392  0.33199  0.75114  1.0000
  H   H588      1.0  0.45770  0.23856  0.76075  1.0000
  H   H589      1.0  0.43129  0.11759  0.89829  1.0000
  S   S117      1.0  0.46724  0.30409  0.97180  1.0000
  C   C340      1.0  0.42335  0.08861  0.79147  1.0000
  C   C341      1.0  0.43480  0.06901  0.79038  1.0000
  C   C342      1.0  0.43594  0.05878  0.77860  1.0000
  C   C343      1.0  0.42621  0.06832  0.76771  1.0000
  C   C344      1.0  0.41539  0.08837  0.76872  1.0000
  C   C345      1.0  0.41374  0.09824  0.78056  1.0000
  H   H590      1.0  0.46795  0.30715  0.78823  1.0000
  C   C346      1.0  0.43450  0.16264  0.93057  1.0000
  H   H591      1.0  0.40780  0.09596  0.76047  1.0000
  H   H592      1.0  0.40481  0.11336  0.78129  1.0000
  C   C347      1.0  0.39623  0.29234  0.79081  1.0000
  C   C348      1.0  0.41461  0.31772  0.78889  1.0000
  C   C349      1.0  0.41991  0.32956  0.77668  1.0000
  C   C350      1.0  0.40758  0.31590  0.76623  1.0000
  C   C351      1.0  0.38963  0.29032  0.76810  1.0000
  C   C352      1.0  0.38369  0.27874  0.78037  1.0000
  H   H593      1.0  0.42405  0.32852  0.79686  1.0000
  H   H594      1.0  0.43353  0.34945  0.77534  1.0000
  H   H595      1.0  0.37969  0.27974  0.76014  1.0000
  H   H596      1.0  0.36931  0.25917  0.78177  1.0000
  H   H597      1.0  0.36941  0.06470  0.74715  1.0000
  C   C353      1.0  0.45735  0.06372  0.90061  1.0000
  H   H598      1.0  0.02452  0.40566  0.97584  1.0000
  H   H599      1.0  0.47619  0.18932  0.96686  1.0000
  H   H600      1.0  0.38983  0.09963  0.93698  1.0000
  C   C354      1.0  0.46840  0.37180  0.87144  1.0000
  H   H601      1.0  0.45390  0.26756  0.79725  1.0000
  H   H602      1.0  0.34437  0.07534  0.98158  1.0000
  C   C355      1.0  0.36183  0.01275  0.74866  1.0000
  H   H603      1.0  0.46148  0.07085  0.88047  1.0000
  C   C356      1.0  0.44012  0.05937  0.91126  1.0000
  C   C357      1.0  0.41329  0.05935  0.90966  1.0000
  C   C358      1.0  0.40384  0.06333  0.89751  1.0000
  C   C359      1.0  0.42113  0.06764  0.88686  1.0000
  H   H604      1.0  0.41613  0.25116  0.75947  1.0000
  H   H605      1.0  0.34172  0.07661  0.74465  1.0000
  H   H606      1.0  0.39971  0.05582  0.91773  1.0000
  H   H607      1.0  0.38296  0.06291  0.89635  1.0000
  C   C360      1.0  0.34682  0.05926  0.74807  1.0000
  H   H608      1.0  0.38306  0.12996  0.93765  1.0000
  C   C361      1.0  0.43951  0.19897  0.96388  1.0000
  C   C362      1.0  0.41111  0.18879  0.96242  1.0000
  C   C363      1.0  0.39762  0.16160  0.96301  1.0000
  C   C364      1.0  0.41238  0.14435  0.96494  1.0000
  C   C365      1.0  0.44081  0.15455  0.96617  1.0000
  C   C366      1.0  0.31360  0.00717  0.76658  1.0000
  H   H609      1.0  0.39951  0.20184  0.96105  1.0000
  H   H610      1.0  0.37562  0.15392  0.96200  1.0000
  H   H611      1.0  0.31441  0.00220  0.97627  1.0000
  C   C367      1.0  0.45423  0.18168  0.96570  1.0000
  C   C368      1.0  0.42244  0.29761  0.90530  1.0000
  C   C369      1.0  0.41618  0.30798  0.89379  1.0000
  C   C370      1.0  0.41878  0.29713  0.88239  1.0000
  C   C371      1.0  0.42673  0.27512  0.88241  1.0000
  C   C372      1.0  0.43271  0.26451  0.89393  1.0000
  C   C373      1.0  0.43092  0.27588  0.90531  1.0000
  H   H612      1.0  0.40926  0.32457  0.89371  1.0000
  H   H613      1.0  0.41374  0.30527  0.87363  1.0000
  H   H614      1.0  0.42692  0.15509  0.94021  1.0000
  H   H615      1.0  0.43570  0.26766  0.91410  1.0000
  Fe  Fe60      1.0  0.46434  0.06215  0.97230  1.0000
  N   N24       1.0  0.41040  0.18273  0.85592  1.0000
  C   C374      1.0  0.43116  0.18616  0.84546  1.0000
  C   C375      1.0  0.42649  0.19304  0.86745  1.0000
  C   C376      1.0  0.39310  0.19918  0.85219  1.0000
  C   C377      1.0  0.39315  0.15434  0.85752  1.0000
  C   C378      1.0  0.41971  0.17923  0.83224  1.0000
  C   C379      1.0  0.44501  0.17797  0.87255  1.0000
  C   C380      1.0  0.37084  0.19960  0.86161  1.0000
  C   C381      1.0  0.37730  0.14478  0.87015  1.0000
  H   H616      1.0  0.44543  0.20667  0.84455  1.0000
  H   H617      1.0  0.44421  0.17402  0.84757  1.0000
  H   H618      1.0  0.41330  0.19415  0.87535  1.0000
  H   H619      1.0  0.44002  0.21357  0.86548  1.0000
  H   H620      1.0  0.40643  0.21972  0.85020  1.0000
  H   H621      1.0  0.38197  0.19275  0.84338  1.0000
  H   H622      1.0  0.37796  0.14897  0.84986  1.0000
  H   H623      1.0  0.40616  0.14203  0.85646  1.0000
  H   H624      1.0  0.43682  0.17947  0.82593  1.0000
  H   H625      1.0  0.40424  0.15948  0.83216  1.0000
  H   H626      1.0  0.45384  0.38263  0.87218  1.0000
  C   C382      1.0  0.46117  0.28191  0.77218  1.0000
  H   H627      1.0  0.43410  0.15676  0.87384  1.0000
  S   S118      1.0  0.45777  0.08834  0.95667  1.0000
  H   H628      1.0  0.35442  0.18042  0.86281  1.0000
  H   H629      1.0  0.36091  0.21344  0.85774  1.0000
  H   H630      1.0  0.37917  0.20687  0.87078  1.0000
  H   H631      1.0  0.35547  0.13385  0.86824  1.0000
  H   H632      1.0  0.37748  0.16011  0.87647  1.0000
  H   H633      1.0  0.38529  0.13069  0.87533  1.0000
  H   H634      1.0  0.46973  0.43361  0.75063  1.0000
  H   H635      1.0  0.40725  0.21687  0.75968  1.0000
  H   H636      1.0  0.34082  0.05546  0.75810  1.0000
  C   C383      1.0  0.33062  0.02170  0.97585  1.0000
  C   C384      1.0  0.40233  0.12541  0.91975  1.0000
  C   C385      1.0  0.44800  0.06790  0.88852  1.0000
  H   H637      1.0  0.44063  0.28363  0.77075  1.0000
  H   H638      1.0  0.36760  0.02549  0.75667  1.0000
  H   H639      1.0  0.43874  0.24741  0.89404  1.0000
  S   S119      1.0  0.46170  0.31653  0.81619  1.0000
  H   H640      1.0  0.00636  0.45332  0.97759  1.0000
  H   H641      1.0  0.34055  0.05600  0.96230  1.0000
  S   S120      1.0  0.44795  0.02593  0.96174  1.0000
  N   N25       1.0  0.43191  0.14066  0.92220  1.0000
  H   H642      1.0  0.40081  0.10832  0.91421  1.0000
  S   S121      1.0  0.45349  0.05427  0.92622  1.0000
  S   S122      1.0  0.42463  0.05723  0.98234  1.0000
  H   H643      1.0  0.45643  0.17445  0.93180  1.0000
  H   H644      1.0  0.42341  0.25730  0.78903  1.0000
  H   H645      1.0  0.45245  0.14156  0.96764  1.0000
  H   H646      1.0  0.35010  0.01818  0.97384  1.0000
  C   C386      1.0  0.43503  0.22658  0.79824  1.0000
  C   C387      1.0  0.44477  0.12267  0.92876  1.0000
  H   H647      1.0  0.43060  0.39264  0.75655  1.0000
  C   C388      1.0  0.47013  0.01075  0.74038  1.0000
  C   C389      1.0  0.41591  0.23391  0.76550  1.0000
  H   H648      1.0  0.39266  0.13721  0.91382  1.0000
  C   C390      1.0  0.38377  0.11455  0.93147  1.0000
  H   H649      1.0  0.32472  0.02538  0.95575  1.0000
  H   H650      1.0  0.01081  0.37430  0.98323  1.0000
  C   C391      1.0  0.00506  0.38905  0.97734  1.0000
  C   C392      1.0  0.99615  0.43995  0.97025  1.0000
  H   H651      1.0  0.30362  0.02221  0.76673  1.0000
  H   H652      1.0  0.43484  0.11567  0.93811  1.0000
  H   H653      1.0  0.46183  0.37473  0.75286  1.0000
  H   H654      1.0  0.31022  0.03545  0.73925  1.0000
  H   H655      1.0  0.45717  0.35349  0.86690  1.0000
  S   S123      1.0  0.45782  0.23291  0.96378  1.0000
  H   H656      1.0  0.41894  0.41785  0.75035  1.0000
  H   H657      1.0  0.30412  0.03868  0.96464  1.0000
  H   H658      1.0  0.44414  0.04314  0.77798  1.0000
  H   H659      1.0  0.41617  0.22377  0.80389  1.0000
  H   H660      1.0  0.44081  0.10440  0.92383  1.0000
  H   H661      1.0  0.46732  0.41435  0.92445  1.0000
  H   H662      1.0  0.40185  0.23122  0.77365  1.0000
  H   H663      1.0  0.46319  0.18161  0.86639  1.0000
  H   H664      1.0  0.32287  0.34212  0.98143  1.0000
  Fe  Fe61      1.0  0.46166  0.33274  0.83505  1.0000
  S   S124      1.0  0.47036  0.29193  0.94201  1.0000
  C   C393      1.0  0.44591  0.15181  0.90977  1.0000
  H   H665      1.0  0.42977  0.20955  0.79243  1.0000
  H   H666      1.0  0.45994  0.00360  0.74963  1.0000
  S   S125      1.0  0.41348  0.34143  0.97889  1.0000
  H   H667      1.0  0.39731  0.17215  0.92578  1.0000
  H   H668      1.0  0.33476  0.01523  0.77000  1.0000
  H   H669      1.0  0.47710  0.21558  0.78963  1.0000
  H   H670      1.0  0.45873  0.35304  0.88948  1.0000
  C   C394      1.0  0.41982  0.18175  0.92612  1.0000
  C   C395      1.0  0.45911  0.42109  0.74298  1.0000
  H   H671      1.0  0.01310  0.37103  0.96083  1.0000
  H   H672      1.0  0.45167  0.22635  0.80479  1.0000
  N   N26       1.0  0.33357  0.00994  0.74397  1.0000
  H   H673      1.0  0.42363  0.19710  0.93300  1.0000
  H   H674      1.0  0.43369  0.16176  0.90425  1.0000
  N   N27       1.0  0.45882  0.25590  0.77858  1.0000
  H   H675      1.0  0.29918  0.04922  0.98411  1.0000
  H   H676      1.0  0.29108  0.99545  0.74997  1.0000
  C   C396      1.0  0.36674  0.98734  0.75297  1.0000
  H   H677      1.0  0.45617  0.43486  0.73557  1.0000
  H   H678      1.0  0.99250  0.39099  0.95754  1.0000
  H   H679      1.0  0.47539  0.35775  0.90964  1.0000
  C   C397      1.0  0.45081  0.13205  0.90111  1.0000
  H   H680      1.0  0.47915  0.14320  0.94065  1.0000
  H   H681      1.0  0.46136  0.14245  0.89234  1.0000
  H   H682      1.0  0.46421  0.12190  0.90541  1.0000
  S   S126      1.0  0.47754  0.37547  0.83821  1.0000
  H   H683      1.0  0.38765  0.99239  0.75692  1.0000
  H   H684      1.0  0.46593  0.16735  0.91106  1.0000
  N   N28       1.0  0.47649  0.40601  0.73842  1.0000
  H   H685      1.0  0.98617  0.45076  0.96390  1.0000
  Fe  Fe62      1.0  0.47485  0.28635  0.82667  1.0000
  H   H686      1.0  0.47700  0.32001  0.89698  1.0000
  C   C398      1.0  0.47773  0.30618  0.77914  1.0000
  C   C399      1.0  0.47574  0.13439  0.93137  1.0000
  H   H687      1.0  0.47815  0.32380  0.77333  1.0000
  H   H688      1.0  0.46220  0.02558  0.73603  1.0000
  H   H689      1.0  0.47807  0.06364  0.90171  1.0000
  C   C400      1.0  0.47780  0.36616  0.88471  1.0000
  H   H690      1.0  0.47942  0.40989  0.94916  1.0000
  N   N29       1.0  0.98390  0.39702  0.98406  1.0000
  Fe  Fe63      1.0  0.08985  0.61893  0.03831  1.0000
  S   S127      1.0  0.13058  0.61236  0.04057  1.0000
  S   S128      1.0  0.06806  0.61348  0.01923  1.0000
  Fe  Fe64      1.0  0.09012  0.63378  0.06561  1.0000
  S   S129      1.0  0.12970  0.62782  0.06983  1.0000
  S   S130      1.0  0.06482  0.64510  0.07992  1.0000
  Fe  Fe65      1.0  0.14445  0.64934  0.05115  1.0000
  S   S131      1.0  0.18880  0.67724  0.05211  1.0000
  Fe  Fe66      1.0  0.11298  0.59195  0.05904  1.0000
  S   S132      1.0  0.11426  0.55422  0.06831  1.0000
  S   S133      1.0  0.10523  0.65754  0.04751  1.0000
  S   S134      1.0  0.07174  0.59613  0.05617  1.0000
  Fe  Fe67      1.0  0.33294  0.88233  0.04369  1.0000
  S   S135      1.0  0.33578  0.84429  0.03768  1.0000
  S   S136      1.0  0.35497  0.92308  0.03397  1.0000
  Fe  Fe68      1.0  0.30442  0.85637  0.06923  1.0000
  S   S137      1.0  0.30587  0.81736  0.06467  1.0000
  S   S138      1.0  0.28079  0.85324  0.08759  1.0000
  Fe  Fe69      1.0  0.34853  0.83903  0.05761  1.0000
  S   S139      1.0  0.38256  0.82647  0.06590  1.0000
  Fe  Fe70      1.0  0.29235  0.82564  0.04547  1.0000
  S   S140      1.0  0.25478  0.79699  0.03649  1.0000
  S   S141      1.0  0.34810  0.87764  0.06337  1.0000
  S   S142      1.0  0.28867  0.86411  0.05021  1.0000
  Fe  Fe71      1.0  0.33081  0.82287  0.17008  1.0000
  S   S143      1.0  0.34697  0.86582  0.17195  1.0000
  S   S144      1.0  0.35968  0.80090  0.16661  1.0000
  Fe  Fe72      1.0  0.27230  0.82166  0.17265  1.0000
  S   S145      1.0  0.28463  0.86487  0.17433  1.0000
  S   S146      1.0  0.22788  0.79715  0.17294  1.0000
  Fe  Fe73      1.0  0.31406  0.86685  0.15840  1.0000
  S   S147      1.0  0.32818  0.89348  0.14080  1.0000
  Fe  Fe74      1.0  0.31608  0.85860  0.18766  1.0000
  S   S148      1.0  0.33035  0.87746  0.20623  1.0000
  S   S149      1.0  0.29927  0.82406  0.15595  1.0000
  S   S150      1.0  0.30207  0.81526  0.18670  1.0000
  Fe  Fe75      1.0  0.11086  0.63956  0.15264  1.0000
  S   S151      1.0  0.14911  0.63327  0.14654  1.0000
  S   S152      1.0  0.08131  0.64934  0.13919  1.0000
  Fe  Fe76      1.0  0.11983  0.62761  0.18080  1.0000
  S   S153      1.0  0.15842  0.61943  0.17651  1.0000
  S   S154      1.0  0.10107  0.62574  0.20041  1.0000
  Fe  Fe77      1.0  0.16819  0.65482  0.16331  1.0000
  S   S155      1.0  0.21206  0.68122  0.16243  1.0000
  Fe  Fe78      1.0  0.13582  0.59853  0.16011  1.0000
  S   S156      1.0  0.14127  0.56328  0.15226  1.0000
  S   S157      1.0  0.13095  0.66450  0.16849  1.0000
  S   S158      1.0  0.09602  0.60323  0.16534  1.0000
  C   C401      1.0  0.42119  0.54360  0.16950  1.0000
  H   H691      1.0  0.40730  0.55232  0.17335  1.0000
  C   C402      1.0  0.11615  0.63167  0.21548  1.0000
  C   C403      1.0  0.09918  0.63062  0.22591  1.0000
  C   C404      1.0  0.46566  0.54782  0.16089  1.0000
  H   H692      1.0  0.39500  0.85593  0.13160  1.0000
  C   C405      1.0  0.14434  0.63792  0.21731  1.0000
  H   H693      1.0  0.42892  0.53576  0.06708  1.0000
  H   H694      1.0  0.15761  0.63843  0.20943  1.0000
  C   C406      1.0  0.11812  0.53328  0.15783  1.0000
  C   C407      1.0  0.11859  0.51072  0.15241  1.0000
  H   H695      1.0  0.01540  0.49356  0.03286  1.0000
  N   N30       1.0  0.46141  0.52451  0.20386  1.0000
  C   C408      1.0  0.08400  0.50687  0.17301  1.0000
  C   C409      1.0  0.10048  0.53143  0.16800  1.0000
  H   H696      1.0  0.13211  0.51212  0.14450  1.0000
  C   C410      1.0  0.46922  0.55810  0.09755  1.0000
  H   H697      1.0  0.10003  0.54883  0.17220  1.0000
  C   C411      1.0  0.31926  0.86038  0.22092  1.0000
  C   C412      1.0  0.29761  0.83671  0.22186  1.0000
  C   C413      1.0  0.34256  0.81397  0.09709  1.0000
  C   C414      1.0  0.37528  0.85956  0.13113  1.0000
  C   C415      1.0  0.38566  0.97803  0.00512  1.0000
  H   H698      1.0  0.28734  0.82840  0.21346  1.0000
  H   H699      1.0  0.43376  0.88469  0.16293  1.0000
  C   C416      1.0  0.19579  0.50030  0.03464  1.0000
  C   C417      1.0  0.22413  0.76603  0.16823  1.0000
  C   C418      1.0  0.19812  0.74903  0.16537  1.0000
  C   C419      1.0  0.19448  0.72317  0.16293  1.0000
  C   C420      1.0  0.21678  0.71426  0.16347  1.0000
  C   C421      1.0  0.24300  0.73159  0.16574  1.0000
  C   C422      1.0  0.24669  0.75749  0.16811  1.0000
  H   H700      1.0  0.18073  0.75574  0.16526  1.0000
  H   H701      1.0  0.17439  0.71012  0.16078  1.0000
  H   H702      1.0  0.26032  0.72477  0.16608  1.0000
  H   H703      1.0  0.26684  0.77056  0.17027  1.0000
  C   C423      1.0  0.44835  0.85371  0.16925  1.0000
  C   C424      1.0  0.44170  0.82676  0.17118  1.0000
  C   C425      1.0  0.41460  0.81028  0.16966  1.0000
  C   C426      1.0  0.39429  0.82078  0.16613  1.0000
  C   C427      1.0  0.40167  0.84741  0.16304  1.0000
  C   C428      1.0  0.42855  0.86393  0.16476  1.0000
  H   H704      1.0  0.26510  0.49270  0.05347  1.0000
  H   H705      1.0  0.40916  0.78958  0.17181  1.0000
  H   H706      1.0  0.38659  0.85537  0.15948  1.0000
  C   C429      1.0  0.29476  0.86483  0.10219  1.0000
  C   C430      1.0  0.27963  0.85398  0.11325  1.0000
  C   C431      1.0  0.28983  0.86238  0.12509  1.0000
  C   C432      1.0  0.31502  0.88229  0.12600  1.0000
  C   C433      1.0  0.33013  0.89335  0.11495  1.0000
  C   C434      1.0  0.32021  0.88447  0.10309  1.0000
  H   H707      1.0  0.25985  0.83901  0.11270  1.0000
  H   H708      1.0  0.27787  0.85386  0.13350  1.0000
  H   H709      1.0  0.34957  0.90886  0.11556  1.0000
  H   H710      1.0  0.33197  0.89315  0.09465  1.0000
  H   H711      1.0  0.22576  0.55858  0.04496  1.0000
  H   H712      1.0  0.12864  0.50959  0.19013  1.0000
  C   C435      1.0  0.43787  0.84073  0.06239  1.0000
  C   C436      1.0  0.41220  0.83209  0.05670  1.0000
  C   C437      1.0  0.41055  0.82731  0.04392  1.0000
  C   C438      1.0  0.43459  0.83148  0.03684  1.0000
  H   H713      1.0  0.40992  0.87515  0.03949  1.0000
  H   H714      1.0  0.43918  0.84420  0.07230  1.0000
  H   H715      1.0  0.39074  0.82020  0.03955  1.0000
  H   H716      1.0  0.43328  0.82750  0.02699  1.0000
  C   C439      1.0  0.20620  0.71081  0.04789  1.0000
  C   C440      1.0  0.19445  0.72583  0.04032  1.0000
  C   C441      1.0  0.20963  0.75209  0.03689  1.0000
  C   C442      1.0  0.23648  0.76386  0.04119  1.0000
  C   C443      1.0  0.24801  0.74896  0.04895  1.0000
  C   C444      1.0  0.23304  0.72260  0.05218  1.0000
  H   H717      1.0  0.17393  0.71707  0.03687  1.0000
  H   H718      1.0  0.20053  0.76336  0.03083  1.0000
  H   H719      1.0  0.26870  0.75758  0.05223  1.0000
  H   H720      1.0  0.24242  0.71115  0.05796  1.0000
  C   C445      1.0  0.07140  0.64603  0.09628  1.0000
  C   C446      1.0  0.09597  0.64506  0.10156  1.0000
  C   C447      1.0  0.09969  0.64594  0.11475  1.0000
  C   C448      1.0  0.07885  0.64792  0.12262  1.0000
  C   C449      1.0  0.05464  0.64912  0.11721  1.0000
  C   C450      1.0  0.05095  0.64816  0.10421  1.0000
  H   H721      1.0  0.11218  0.64405  0.09549  1.0000
  H   H722      1.0  0.11871  0.64556  0.11879  1.0000
  H   H723      1.0  0.03852  0.65081  0.12315  1.0000
  H   H724      1.0  0.03202  0.64912  0.10029  1.0000
  H   H725      1.0  0.02726  0.63921  0.02250  1.0000
  H   H726      1.0  0.46473  0.53880  0.10266  1.0000
  C   C451      1.0  0.10995  0.50437  0.06379  1.0000
  C   C452      1.0  0.11634  0.52992  0.05868  1.0000
  C   C453      1.0  0.12435  0.53563  0.04606  1.0000
  C   C454      1.0  0.12567  0.51577  0.03855  1.0000
  H   H727      1.0  0.10386  0.49989  0.07357  1.0000
  H   H728      1.0  0.12979  0.55539  0.04213  1.0000
  H   H729      1.0  0.13211  0.52031  0.02881  1.0000
  H   H730      1.0  0.46610  0.95296  0.01398  1.0000
  H   H731      1.0  0.07527  0.71044  0.04569  1.0000
  H   H732      1.0  0.46463  0.61382  0.09343  1.0000
  C   C455      1.0  0.03500  0.59482  0.01367  1.0000
  C   C456      1.0  0.03047  0.59419  0.00063  1.0000
  C   C457      1.0  0.44157  0.87698  0.20418  1.0000
  H   H733      1.0  0.04713  0.60467  0.99421  1.0000
  H   H734      1.0  0.09654  0.54555  0.00607  1.0000
  C   C458      1.0  0.34936  0.92655  0.00776  1.0000
  C   C459      1.0  0.36135  0.93889  0.01854  1.0000
  H   H735      1.0  0.43617  0.57334  0.10292  1.0000
  C   C460      1.0  0.23323  0.50989  0.05023  1.0000
  H   H736      1.0  0.33536  0.90673  0.00863  1.0000
  N   N31       1.0  0.01862  0.65515  0.03945  1.0000
  H   H737      1.0  0.40582  0.88557  0.22019  1.0000
  C   C461      1.0  0.03217  0.51247  0.03305  1.0000
  H   H738      1.0  0.32475  0.77658  0.11719  1.0000
  H   H739      1.0  0.33002  0.98135  0.00863  1.0000
  C   C462      1.0  0.19362  0.52359  0.05335  1.0000
  C   C463      1.0  0.20150  0.51861  0.20380  1.0000
  H   H740      1.0  0.21109  0.51610  0.02886  1.0000
  H   H741      1.0  0.37505  0.87252  0.12281  1.0000
  C   C464      1.0  0.43062  0.76349  0.05869  1.0000
  C   C465      1.0  0.43499  0.93947  0.02934  1.0000
  H   H742      1.0  0.39228  0.50462  0.17151  1.0000
  C   C466      1.0  0.45924  0.86026  0.20828  1.0000
  H   H743      1.0  0.34994  0.82408  0.14093  1.0000
  H   H744      1.0  0.43529  0.92317  0.05479  1.0000
  H   H745      1.0  0.41547  0.89110  0.06035  1.0000
  C   C467      1.0  0.33229  0.87098  0.23194  1.0000
  H   H746      1.0  0.39676  0.91606  0.18886  1.0000
  H   H747      1.0  0.41767  0.77609  0.05858  1.0000
  H   H748      1.0  0.41712  0.74396  0.05619  1.0000
  H   H749      1.0  0.43789  0.76268  0.06844  1.0000
  H   H750      1.0  0.46476  0.79588  0.05159  1.0000
  H   H751      1.0  0.47861  0.50226  0.21670  1.0000
  H   H752      1.0  0.27165  0.80598  0.23433  1.0000
  H   H753      1.0  0.36964  0.80042  0.19792  1.0000
  C   C468      1.0  0.01314  0.58114  0.02179  1.0000
  C   C469      1.0  0.35038  0.83421  0.13155  1.0000
  H   H754      1.0  0.46721  0.59443  0.11533  1.0000
  H   H755      1.0  0.38895  0.97462  0.02531  1.0000
  N   N32       1.0  0.21212  0.77850  0.08038  1.0000
  C   C470      1.0  0.21047  0.80469  0.07602  1.0000
  C   C471      1.0  0.20190  0.77316  0.09382  1.0000
  C   C472      1.0  0.19363  0.75843  0.07214  1.0000
  C   C473      1.0  0.24152  0.77990  0.07898  1.0000
  C   C474      1.0  0.21798  0.81325  0.06209  1.0000
  C   C475      1.0  0.21915  0.79207  0.10332  1.0000
  C   C476      1.0  0.18374  0.72981  0.07726  1.0000
  C   C477      1.0  0.24938  0.75686  0.08464  1.0000
  H   H756      1.0  0.18948  0.80528  0.07768  1.0000
  H   H757      1.0  0.22447  0.82049  0.08144  1.0000
  H   H758      1.0  0.20040  0.75341  0.09752  1.0000
  H   H759      1.0  0.18052  0.77340  0.09444  1.0000
  H   H760      1.0  0.17461  0.76293  0.06994  1.0000
  H   H761      1.0  0.20374  0.75895  0.06293  1.0000
  H   H762      1.0  0.24743  0.78171  0.06888  1.0000
  H   H763      1.0  0.25586  0.79806  0.08269  1.0000
  H   H764      1.0  0.20488  0.79945  0.05553  1.0000
  H   H765      1.0  0.21512  0.83227  0.05999  1.0000
  H   H766      1.0  0.23984  0.81638  0.06006  1.0000
  H   H767      1.0  0.21103  0.78492  0.11296  1.0000
  H   H768      1.0  0.24093  0.79331  0.10317  1.0000
  H   H769      1.0  0.21774  0.81179  0.10181  1.0000
  H   H770      1.0  0.16881  0.72643  0.08515  1.0000
  H   H771      1.0  0.20069  0.72287  0.08011  1.0000
  H   H772      1.0  0.17274  0.71730  0.06971  1.0000
  H   H773      1.0  0.24722  0.74213  0.07759  1.0000
  H   H774      1.0  0.23783  0.74733  0.09326  1.0000
  H   H775      1.0  0.27115  0.76418  0.08750  1.0000
  N   N33       1.0  0.18106  0.71954  0.20296  1.0000
  C   C478      1.0  0.20761  0.71789  0.19795  1.0000
  C   C479      1.0  0.18174  0.74718  0.20050  1.0000
  C   C480      1.0  0.15777  0.70126  0.19591  1.0000
  C   C481      1.0  0.17927  0.71167  0.21677  1.0000
  C   C482      1.0  0.20911  0.69026  0.19705  1.0000
  C   C483      1.0  0.20604  0.76842  0.20610  1.0000
  C   C484      1.0  0.13052  0.70687  0.19531  1.0000
  C   C485      1.0  0.15395  0.71202  0.22414  1.0000
  H   H776      1.0  0.21213  0.72747  0.18839  1.0000
  H   H777      1.0  0.22526  0.72863  0.20374  1.0000
  H   H778      1.0  0.16286  0.75000  0.20393  1.0000
  H   H779      1.0  0.18228  0.75195  0.19019  1.0000
  H   H780      1.0  0.16389  0.70137  0.18590  1.0000
  H   H781      1.0  0.15291  0.68084  0.19974  1.0000
  H   H782      1.0  0.17921  0.69146  0.21816  1.0000
  H   H783      1.0  0.19794  0.72295  0.22182  1.0000
  H   H784      1.0  0.20694  0.67959  0.20633  1.0000
  H   H785      1.0  0.19385  0.67846  0.19051  1.0000
  H   H786      1.0  0.22952  0.69201  0.19312  1.0000
  H   H787      1.0  0.22580  0.77001  0.20155  1.0000
  H   H788      1.0  0.20334  0.78757  0.20414  1.0000
  H   H789      1.0  0.20711  0.76551  0.21642  1.0000
  H   H790      1.0  0.13255  0.72444  0.18912  1.0000
  H   H791      1.0  0.12235  0.70880  0.20459  1.0000
  H   H792      1.0  0.11478  0.69031  0.19106  1.0000
  C   C486      1.0  0.15539  0.64385  0.22935  1.0000
  H   H793      1.0  0.14772  0.72902  0.22154  1.0000
  C   C487      1.0  0.32428  0.79201  0.12348  1.0000
  N   N34       1.0  0.10329  0.56453  0.11465  1.0000
  C   C488      1.0  0.13172  0.56337  0.11674  1.0000
  C   C489      1.0  0.08388  0.53684  0.11499  1.0000
  C   C490      1.0  0.09660  0.57818  0.12546  1.0000
  C   C491      1.0  0.10330  0.57936  0.10227  1.0000
  C   C492      1.0  0.15478  0.58967  0.11808  1.0000
  C   C493      1.0  0.08967  0.51961  0.10513  1.0000
  C   C494      1.0  0.06761  0.57992  0.12596  1.0000
  C   C495      1.0  0.07541  0.57434  0.09572  1.0000
  H   H794      1.0  0.13203  0.55084  0.12532  1.0000
  H   H795      1.0  0.13827  0.55429  0.10881  1.0000
  H   H796      1.0  0.06233  0.53574  0.11380  1.0000
  H   H797      1.0  0.08412  0.52705  0.12443  1.0000
  H   H798      1.0  0.09963  0.56862  0.13459  1.0000
  H   H799      1.0  0.11069  0.59863  0.12550  1.0000
  H   H800      1.0  0.11244  0.60063  0.10337  1.0000
  H   H801      1.0  0.11680  0.57484  0.09529  1.0000
  H   H802      1.0  0.17488  0.58658  0.11785  1.0000
  H   H803      1.0  0.15504  0.60417  0.11036  1.0000
  H   H804      1.0  0.19413  0.54850  0.03620  1.0000
  H   H805      1.0  0.10747  0.51362  0.10781  1.0000
  H   H806      1.0  0.07173  0.50147  0.10470  1.0000
  H   H807      1.0  0.09320  0.52927  0.09558  1.0000
  H   H808      1.0  0.05130  0.56063  0.12667  1.0000
  H   H809      1.0  0.06410  0.59217  0.11797  1.0000
  H   H810      1.0  0.06568  0.58983  0.13456  1.0000
  H   H811      1.0  0.07487  0.59295  0.09120  1.0000
  H   H812      1.0  0.05710  0.56671  0.10188  1.0000
  H   H813      1.0  0.07349  0.56133  0.08787  1.0000
  N   N35       1.0  0.41079  0.86384  0.20460  1.0000
  C   C496      1.0  0.39871  0.87837  0.19517  1.0000
  C   C497      1.0  0.40325  0.83632  0.20058  1.0000
  C   C498      1.0  0.39906  0.86514  0.21735  1.0000
  C   C499      1.0  0.37235  0.82081  0.20001  1.0000
  C   C500      1.0  0.24681  0.48957  0.04748  1.0000
  C   C501      1.0  0.03033  0.52288  0.01036  1.0000
  H   H814      1.0  0.39271  0.90646  0.01841  1.0000
  H   H815      1.0  0.37604  0.87025  0.19547  1.0000
  H   H816      1.0  0.41232  0.82439  0.20664  1.0000
  H   H817      1.0  0.41208  0.83642  0.19111  1.0000
  H   H818      1.0  0.03447  0.50160  0.05291  1.0000
  H   H819      1.0  0.37635  0.85973  0.21716  1.0000
  H   H820      1.0  0.32974  0.83828  0.10919  1.0000
  C   C502      1.0  0.46081  0.73486  0.04396  1.0000
  H   H821      1.0  0.36145  0.82020  0.20900  1.0000
  H   H822      1.0  0.21775  0.56183  0.17036  1.0000
  C   C503      1.0  0.35512  0.94000  0.99582  1.0000
  C   C504      1.0  0.41185  0.90173  0.01744  1.0000
  H   H823      1.0  0.08532  0.54434  0.02966  1.0000
  H   H824      1.0  0.07089  0.50539  0.18109  1.0000
  H   H825      1.0  0.44881  0.88455  0.19443  1.0000
  C   C505      1.0  0.07036  0.54575  0.02241  1.0000
  H   H826      1.0  0.29229  0.80177  0.11241  1.0000
  C   C506      1.0  0.45649  0.90511  0.02645  1.0000
  H   H827      1.0  0.21836  0.53729  0.15219  1.0000
  H   H828      1.0  0.18740  0.52714  0.20808  1.0000
  H   H829      1.0  0.44462  0.77650  0.03990  1.0000
  H   H830      1.0  0.37411  0.87056  0.13944  1.0000
  H   H831      1.0  0.06093  0.53087  0.04784  1.0000
  C   C507      1.0  0.40598  0.90781  0.19672  1.0000
  H   H832      1.0  0.01630  0.58103  0.03181  1.0000
  H   H833      1.0  0.15894  0.71363  0.23427  1.0000
  C   C508      1.0  0.45311  0.54848  0.20330  1.0000
  C   C509      1.0  0.19615  0.57819  0.18984  1.0000
  H   H834      1.0  0.42090  0.86562  0.01436  1.0000
  H   H835      1.0  0.44778  0.89595  0.05321  1.0000
  C   C510      1.0  0.40839  0.50019  0.20447  1.0000
  H   H836      1.0  0.33207  0.84036  0.13155  1.0000
  H   H837      1.0  0.45854  0.84584  0.20123  1.0000
  H   H838      1.0  0.24425  0.52739  0.04410  1.0000
  H   H839      1.0  0.43616  0.49883  0.19035  1.0000
  N   N36       1.0  0.04855  0.51958  0.02091  1.0000
  C   C511      1.0  0.01014  0.64392  0.02685  1.0000
  H   H840      1.0  0.06832  0.50249  0.00773  1.0000
  H   H841      1.0  0.38847  0.86034  0.02237  1.0000
  H   H842      1.0  0.17575  0.50314  0.03293  1.0000
  N   N37       1.0  0.43034  0.91087  0.02847  1.0000
  H   H843      1.0  0.39222  0.86897  0.00604  1.0000
  C   C512      1.0  0.28875  0.82404  0.23371  1.0000
  H   H844      1.0  0.06089  0.67199  0.03288  1.0000
  H   H845      1.0  0.47588  0.55476  0.08809  1.0000
  C   C513      1.0  0.46912  0.51750  0.04074  1.0000
  H   H846      1.0  0.46588  0.56969  0.13456  1.0000
  C   C514      1.0  0.45440  0.77543  0.04911  1.0000
  H   H847      1.0  0.06488  0.68203  0.05584  1.0000
  C   C515      1.0  0.04876  0.51113  0.04497  1.0000
  H   H848      1.0  0.39504  0.89952  0.04102  1.0000
  H   H849      1.0  0.36546  0.78893  0.13997  1.0000
  C   C516      1.0  0.41271  0.51657  0.16850  1.0000
  H   H850      1.0  0.16390  0.54378  0.19618  1.0000
  C   C517      1.0  0.06234  0.50026  0.01786  1.0000
  C   C518      1.0  0.29597  0.79540  0.12209  1.0000
  H   H851      1.0  0.29295  0.80904  0.12877  1.0000
  C   C519      1.0  0.02561  0.63530  0.04789  1.0000
  C   C520      1.0  0.38270  0.79867  0.13336  1.0000
  H   H852      1.0  0.44324  0.86095  0.13839  1.0000
  H   H853      1.0  0.39836  0.81458  0.13801  1.0000
  N   N38       1.0  0.34890  0.81629  0.12112  1.0000
  H   H854      1.0  0.06115  0.55984  0.02589  1.0000
  H   H855      1.0  0.99880  0.68378  0.04134  1.0000
  H   H856      1.0  0.20084  0.52789  0.06309  1.0000
  H   H857      1.0  0.43629  0.50002  0.22794  1.0000
  C   C521      1.0  0.34665  0.83019  0.10879  1.0000
  H   H858      1.0  0.44212  0.57344  0.08618  1.0000
  H   H859      1.0  0.44875  0.53520  0.22894  1.0000
  C   C522      1.0  0.40316  0.87246  0.01511  1.0000
  H   H860      1.0  0.42179  0.91195  0.00851  1.0000
  C   C523      1.0  0.37427  0.80873  0.12069  1.0000
  H   H861      1.0  0.39276  0.78417  0.13157  1.0000
  H   H862      1.0  0.42836  0.91840  0.19626  1.0000
  C   C524      1.0  0.42972  0.90245  0.05270  1.0000
  H   H863      1.0  0.47744  0.53578  0.18493  1.0000
  H   H864      1.0  0.39203  0.82567  0.11713  1.0000
  H   H865      1.0  0.41524  0.94252  0.03129  1.0000
  H   H866      1.0  0.44805  0.73536  0.03558  1.0000
  H   H867      1.0  0.19279  0.50874  0.15865  1.0000
  C   C525      1.0  0.44802  0.95697  0.01759  1.0000
  H   H868      1.0  0.40933  0.49314  0.05746  1.0000
  C   C526      1.0  0.14127  0.49681  0.18976  1.0000
  C   C527      1.0  0.37953  0.96474  0.01708  1.0000
  H   H869      1.0  0.21291  0.57663  0.19596  1.0000
  H   H870      1.0  0.21550  0.51199  0.18604  1.0000
  H   H871      1.0  0.39700  0.91177  0.20548  1.0000
  H   H872      1.0  0.15343  0.59769  0.12728  1.0000
  H   H873      1.0  0.45705  0.81865  0.17443  1.0000
  H   H874      1.0  0.45340  0.85026  0.21764  1.0000
  H   H875      1.0  0.15356  0.50872  0.17081  1.0000
  H   H876      1.0  0.44556  0.72301  0.05114  1.0000
  C   C528      1.0  0.44802  0.55914  0.16613  1.0000
  C   C529      1.0  0.10246  0.48625  0.15753  1.0000
  H   H877      1.0  0.18552  0.58942  0.19486  1.0000
  C   C530      1.0  0.46191  0.84537  0.05527  1.0000
  H   H878      1.0  0.27974  0.77635  0.12432  1.0000
  C   C531      1.0  0.99748  0.66425  0.04552  1.0000
  H   H879      1.0  0.43647  0.54672  0.21016  1.0000
  H   H880      1.0  0.41227  0.49945  0.11985  1.0000
  H   H881      1.0  0.44776  0.89433  0.20995  1.0000
  H   H882      1.0  0.19279  0.49707  0.20498  1.0000
  H   H883      1.0  0.40186  0.51398  0.19828  1.0000
  H   H884      1.0  0.18350  0.49046  0.07468  1.0000
  C   C532      1.0  0.17522  0.55136  0.18723  1.0000
  H   H885      1.0  0.45481  0.97766  0.02001  1.0000
  C   C533      1.0  0.11872  0.49012  0.04360  1.0000
  C   C534      1.0  0.44187  0.56291  0.09542  1.0000
  H   H886      1.0  0.99213  0.64964  0.00899  1.0000
  H   H887      1.0  0.32375  0.79663  0.09770  1.0000
  H   H888      1.0  0.42501  0.54389  0.09541  1.0000
  C   C535      1.0  0.20972  0.52637  0.16117  1.0000
  C   C536      1.0  0.98246  0.56716  0.00387  1.0000
  H   H889      1.0  0.37179  0.79334  0.11392  1.0000
  H   H890      1.0  0.01028  0.59732  0.05765  1.0000
  H   H891      1.0  0.47409  0.79051  0.02435  1.0000
  S   S159      1.0  0.47883  0.57850  0.06249  1.0000
  H   H892      1.0  0.15956  0.55471  0.18078  1.0000
  C   C537      1.0  0.42912  0.50652  0.05435  1.0000
  H   H893      1.0  0.02263  0.53905  0.01212  1.0000
  C   C538      1.0  0.20886  0.52745  0.18990  1.0000
  C   C539      1.0  0.16423  0.50698  0.17969  1.0000
  H   H894      1.0  0.36247  0.82841  0.19223  1.0000
  H   H895      1.0  0.43281  0.95498  0.01001  1.0000
  C   C540      1.0  0.45736  0.52078  0.16009  1.0000
  C   C541      1.0  0.46029  0.84071  0.04249  1.0000
  N   N39       1.0  0.18688  0.53227  0.18186  1.0000
  C   C542      1.0  0.45468  0.51772  0.22799  1.0000
  C   C543      1.0  0.05717  0.69347  0.04883  1.0000
  H   H896      1.0  0.45328  0.83293  0.13884  1.0000
  H   H897      1.0  0.02156  0.52678  0.03457  1.0000
  H   H898      1.0  0.14897  0.49382  0.19918  1.0000
  H   H899      1.0  0.22804  0.54463  0.18954  1.0000
  H   H900      1.0  0.99326  0.62504  0.02764  1.0000
  H   H901      1.0  0.47234  0.74394  0.06725  1.0000
  H   H902      1.0  0.32442  0.78341  0.13317  1.0000
  H   H903      1.0  0.36058  0.80811  0.09514  1.0000
  C   C544      1.0  0.00174  0.61075  0.05228  1.0000
  S   S160      1.0  0.45989  0.59208  0.16958  1.0000
  C   C545      1.0  0.00516  0.49914  0.00765  1.0000
  H   H904      1.0  0.18497  0.55040  0.16344  1.0000
  C   C546      1.0  0.19967  0.54403  0.16926  1.0000
  C   C547      1.0  0.04466  0.67815  0.03722  1.0000
  H   H905      1.0  0.04275  0.70132  0.05344  1.0000
  H   H906      1.0  0.45508  0.54680  0.12269  1.0000
  H   H907      1.0  0.47487  0.48878  0.18763  1.0000
  C   C548      1.0  0.44026  0.53063  0.05979  1.0000
  H   H908      1.0  0.00210  0.66715  0.05566  1.0000
  H   H909      1.0  0.06255  0.49972  0.04378  1.0000
  H   H910      1.0  0.40486  0.87606  0.18545  1.0000
  H   H911      1.0  0.08184  0.50441  0.02305  1.0000
  H   H912      1.0  0.19581  0.56391  0.05058  1.0000
  H   H913      1.0  0.34528  0.93029  0.98762  1.0000
  H   H914      1.0  0.36539  0.84733  0.10675  1.0000
  C   C549      1.0  0.44344  0.50000  0.04473  1.0000
  H   H915      1.0  0.25371  0.49162  0.03751  1.0000
  C   C550      1.0  0.43113  0.50508  0.16422  1.0000
  H   H916      1.0  0.22041  0.52519  0.20944  1.0000
  H   H917      1.0  0.22638  0.52092  0.16574  1.0000
  H   H918      1.0  0.46709  0.59022  0.20526  1.0000
  C   C551      1.0  0.40658  0.84959  0.22839  1.0000
  H   H919      1.0  0.13643  0.69374  0.22310  1.0000
  H   H920      1.0  0.46241  0.90820  0.01630  1.0000
  C   C552      1.0  0.41505  0.89634  0.04011  1.0000
  H   H921      1.0  0.98780  0.61543  0.05887  1.0000
  C   C553      1.0  0.46579  0.54823  0.05568  1.0000
  H   H922      1.0  0.40651  0.50444  0.21436  1.0000
  H   H923      1.0  0.04195  0.52846  0.00130  1.0000
  H   H924      1.0  0.44450  0.55099  0.19392  1.0000
  H   H925      1.0  0.07734  0.62568  0.22462  1.0000
  H   H926      1.0  0.01950  0.67759  0.01315  1.0000
  H   H927      1.0  0.04123  0.62886  0.04322  1.0000
  H   H928      1.0  0.23915  0.51648  0.05985  1.0000
  C   C554      1.0  0.47316  0.52026  0.21641  1.0000
  H   H929      1.0  0.44790  0.94772  0.03738  1.0000
  H   H930      1.0  0.17087  0.51727  0.05402  1.0000
  H   H931      1.0  0.45316  0.88424  0.02889  1.0000
  H   H932      1.0  0.43795  0.49810  0.13134  1.0000
  H   H933      1.0  0.99119  0.49185  0.01588  1.0000
  C   C555      1.0  0.45796  0.85277  0.13431  1.0000
  H   H934      1.0  0.20468  0.58976  0.18102  1.0000
  C   C556      1.0  0.20315  0.54997  0.04570  1.0000
  H   H935      1.0  0.34038  0.82625  0.08878  1.0000
  N   N40       1.0  0.20272  0.50235  0.04841  1.0000
  C   C557      1.0  0.37326  0.96584  0.99437  1.0000
  C   C558      1.0  0.00454  0.58030  0.99576  1.0000
  C   C559      1.0  0.00155  0.66140  0.01705  1.0000
  C   C560      1.0  0.43738  0.50088  0.20069  1.0000
  H   H936      1.0  0.04127  0.69283  0.03041  1.0000
  H   H937      1.0  0.17725  0.64911  0.23061  1.0000
  H   H938      1.0  0.46847  0.70402  0.03416  1.0000
  H   H939      1.0  0.10493  0.57593  0.01334  1.0000
  H   H940      1.0  0.40710  0.83042  0.22594  1.0000
  H   H941      1.0  0.99300  0.50516  0.00024  1.0000
  C   C561      1.0  0.47882  0.71832  0.04116  1.0000
  H   H942      1.0  0.47156  0.51199  0.15661  1.0000
  C   C562      1.0  0.47598  0.57434  0.20565  1.0000
  H   H943      1.0  0.47235  0.89389  0.11532  1.0000
  H   H944      1.0  0.17270  0.49107  0.17845  1.0000
  C   C563      1.0  0.08763  0.55872  0.01058  1.0000
  N   N41       1.0  0.47517  0.76173  0.04836  1.0000
  H   H945      1.0  0.07563  0.56627  0.00370  1.0000
  H   H946      1.0  0.34908  0.88928  0.23130  1.0000
  H   H947      1.0  0.99010  0.59989  0.04446  1.0000
  H   H948      1.0  0.32054  0.97815  0.99264  1.0000
  H   H949      1.0  0.40515  0.49795  0.13627  1.0000
  C   C564      1.0  0.98704  0.56773  0.01693  1.0000
  H   H950      1.0  0.03494  0.64375  0.05672  1.0000
  C   C565      1.0  0.47290  0.56263  0.12608  1.0000
  H   H951      1.0  0.42643  0.86103  0.23247  1.0000
  H   H952      1.0  0.45441  0.85047  0.12413  1.0000
  C   C566      1.0  0.41588  0.49082  0.12904  1.0000
  H   H953      1.0  0.46056  0.90352  0.13500  1.0000
  H   H954      1.0  0.47822  0.92991  0.04211  1.0000
  H   H955      1.0  0.00150  0.58023  0.98572  1.0000
  H   H956      1.0  0.98620  0.66923  0.02076  1.0000
  H   H957      1.0  0.01125  0.48343  0.00382  1.0000
  C   C567      1.0  0.11100  0.48446  0.05625  1.0000
  C   C568      1.0  0.08557  0.48427  0.16799  1.0000
  H   H958      1.0  0.13208  0.73910  0.30805  1.0000
  N   N42       1.0  0.36110  0.49593  0.31676  1.0000
  Fe  Fe79      1.0  0.24834  0.95738  0.40411  1.0000
  S   S161      1.0  0.20720  0.96201  0.40380  1.0000
  H   H959      1.0  0.98269  0.72816  0.44277  1.0000
  Fe  Fe80      1.0  0.24261  0.93663  0.37722  1.0000
  S   S162      1.0  0.20082  0.94062  0.37510  1.0000
  S   S163      1.0  0.26107  0.91198  0.36560  1.0000
  H   H960      1.0  0.12848  0.69589  0.34807  1.0000
  Fe  Fe81      1.0  0.19246  0.92356  0.39490  1.0000
  S   S164      1.0  0.15612  0.89010  0.40282  1.0000
  H   H961      1.0  0.14279  0.72860  0.36409  1.0000
  S   S165      1.0  0.23297  0.91765  0.39674  1.0000
  Fe  Fe82      1.0  0.04236  0.74369  0.39887  1.0000
  S   S166      1.0  0.02039  0.77058  0.39192  1.0000
  S   S167      1.0  0.06050  0.75229  0.41832  1.0000
  Fe  Fe83      1.0  0.03906  0.71986  0.37277  1.0000
  S   S168      1.0  0.01590  0.74503  0.36438  1.0000
  S   S169      1.0  0.05471  0.69060  0.36312  1.0000
  Fe  Fe84      1.0  0.04664  0.77712  0.37462  1.0000
  S   S170      1.0  0.06990  0.81773  0.36645  1.0000
  S   S171      1.0  0.07074  0.75259  0.38202  1.0000
  Fe  Fe85      1.0  0.30120  0.80517  0.30484  1.0000
  S   S172      1.0  0.27355  0.82271  0.29448  1.0000
  S   S173      1.0  0.28592  0.76926  0.31787  1.0000
  Fe  Fe86      1.0  0.35340  0.84941  0.29652  1.0000
  S   S174      1.0  0.32895  0.87008  0.28542  1.0000
  S   S175      1.0  0.39934  0.87207  0.29631  1.0000
  Fe  Fe87      1.0  0.30005  0.86033  0.30215  1.0000
  S   S176      1.0  0.28243  0.89077  0.30866  1.0000
  Fe  Fe88      1.0  0.30487  0.83078  0.27878  1.0000
  S   S177      1.0  0.28842  0.81863  0.25942  1.0000
  S   S178      1.0  0.32593  0.84227  0.31360  1.0000
  S   S179      1.0  0.33099  0.81056  0.28877  1.0000
  Fe  Fe89      1.0  0.11203  0.59691  0.29403  1.0000
  S   S180      1.0  0.09343  0.62261  0.28244  1.0000
  S   S181      1.0  0.08704  0.55345  0.29674  1.0000
  Fe  Fe90      1.0  0.16183  0.64385  0.29986  1.0000
  S   S182      1.0  0.14701  0.67201  0.28879  1.0000
  S   S183      1.0  0.20168  0.65648  0.31019  1.0000
  Fe  Fe91      1.0  0.10635  0.65017  0.29823  1.0000
  S   S184      1.0  0.08163  0.67374  0.30618  1.0000
  Fe  Fe92      1.0  0.13587  0.64200  0.27413  1.0000
  S   S185      1.0  0.15380  0.65461  0.25423  1.0000
  S   S186      1.0  0.12196  0.62339  0.31018  1.0000
  S   S187      1.0  0.15358  0.61494  0.28489  1.0000
  C   C569      1.0  0.13693  0.50926  0.30053  1.0000
  C   C570      1.0  0.12772  0.53079  0.29943  1.0000
  C   C571      1.0  0.10000  0.52705  0.29743  1.0000
  C   C572      1.0  0.08174  0.50150  0.29643  1.0000
  H   H962      1.0  0.44365  0.86861  0.25955  1.0000
  H   H963      1.0  0.14203  0.55025  0.30030  1.0000
  H   H964      1.0  0.06026  0.49834  0.29488  1.0000
  H   H965      1.0  0.22809  0.86824  0.29302  1.0000
  H   H966      1.0  0.16874  0.75016  0.35389  1.0000
  C   C573      1.0  0.24550  0.86337  0.24258  1.0000
  C   C574      1.0  0.26258  0.73868  0.31431  1.0000
  C   C575      1.0  0.23996  0.73556  0.30647  1.0000
  C   C576      1.0  0.22051  0.71047  0.30514  1.0000
  C   C577      1.0  0.22424  0.68862  0.31140  1.0000
  C   C578      1.0  0.24697  0.69203  0.31903  1.0000
  C   C579      1.0  0.26575  0.71683  0.32060  1.0000
  H   H967      1.0  0.23711  0.75247  0.30178  1.0000
  H   H968      1.0  0.20282  0.70805  0.29931  1.0000
  H   H969      1.0  0.24998  0.67535  0.32393  1.0000
  H   H970      1.0  0.28291  0.71908  0.32678  1.0000
  C   C580      1.0  0.42640  0.86061  0.30094  1.0000
  C   C581      1.0  0.45362  0.87764  0.29960  1.0000
  H   H971      1.0  0.27086  0.87427  0.28132  1.0000
  H   H972      1.0  0.34582  0.86275  0.35463  1.0000
  C   C582      1.0  0.44369  0.82718  0.30965  1.0000
  C   C583      1.0  0.42154  0.83528  0.30595  1.0000
  H   H973      1.0  0.20011  0.71006  0.25412  1.0000
  H   H974      1.0  0.33399  0.86640  0.25219  1.0000
  H   H975      1.0  0.43970  0.80765  0.31369  1.0000
  H   H976      1.0  0.40074  0.82198  0.30710  1.0000
  C   C584      1.0  0.06183  0.68633  0.34718  1.0000
  C   C585      1.0  0.05617  0.70106  0.33707  1.0000
  C   C586      1.0  0.06210  0.69673  0.32462  1.0000
  C   C587      1.0  0.07419  0.67798  0.32208  1.0000
  C   C588      1.0  0.08005  0.66338  0.33220  1.0000
  C   C589      1.0  0.07365  0.66737  0.34461  1.0000
  H   H977      1.0  0.04695  0.71560  0.33884  1.0000
  H   H978      1.0  0.05738  0.70813  0.31691  1.0000
  H   H979      1.0  0.08937  0.64891  0.33048  1.0000
  H   H980      1.0  0.07803  0.65578  0.35234  1.0000
  C   C590      1.0  0.26638  0.90654  0.34962  1.0000
  C   C591      1.0  0.26137  0.92166  0.33951  1.0000
  C   C592      1.0  0.26621  0.91650  0.32705  1.0000
  C   C593      1.0  0.27586  0.89607  0.32451  1.0000
  C   C594      1.0  0.28037  0.88067  0.33461  1.0000
  C   C595      1.0  0.27593  0.88605  0.34705  1.0000
  H   H981      1.0  0.25404  0.93748  0.34130  1.0000
  H   H982      1.0  0.26258  0.92855  0.31933  1.0000
  H   H983      1.0  0.28725  0.86459  0.33283  1.0000
  H   H984      1.0  0.27976  0.87412  0.35478  1.0000
  C   C596      1.0  0.13272  0.87039  0.39241  1.0000
  C   C597      1.0  0.11933  0.84412  0.39598  1.0000
  C   C598      1.0  0.09980  0.82796  0.38816  1.0000
  C   C599      1.0  0.09371  0.83793  0.37660  1.0000
  C   C600      1.0  0.10733  0.86419  0.37295  1.0000
  C   C601      1.0  0.12669  0.88044  0.38087  1.0000
  H   H985      1.0  0.12445  0.83615  0.40475  1.0000
  H   H986      1.0  0.08961  0.80771  0.39103  1.0000
  H   H987      1.0  0.10265  0.87206  0.36404  1.0000
  H   H988      1.0  0.13667  0.90079  0.37811  1.0000
  H   H989      1.0  0.22384  0.84587  0.28102  1.0000
  H   H990      1.0  0.21119  0.87294  0.27896  1.0000
  H   H991      1.0  0.44260  0.81713  0.27276  1.0000
  H   H992      1.0  0.01750  0.81985  0.44644  1.0000
  H   H993      1.0  0.98987  0.58864  0.32296  1.0000
  C   C602      1.0  0.02642  0.72224  0.45813  1.0000
  C   C603      1.0  0.30988  0.91709  0.26622  1.0000
  C   C604      1.0  0.02866  0.71442  0.43581  1.0000
  C   C605      1.0  0.04613  0.74005  0.43339  1.0000
  C   C606      1.0  0.05394  0.75643  0.44342  1.0000
  C   C607      1.0  0.04372  0.74783  0.45565  1.0000
  H   H994      1.0  0.26698  0.93715  0.45577  1.0000
  H   H995      1.0  0.21533  0.85784  0.48293  1.0000
  H   H996      1.0  0.06830  0.77581  0.44178  1.0000
  H   H997      1.0  0.21595  0.91261  0.26846  1.0000
  C   C608      1.0  0.28969  0.89343  0.25998  1.0000
  H   H998      1.0  0.42616  0.88656  0.32496  1.0000
  H   H999      1.0  0.46623  0.51575  0.23656  1.0000
  H   H1000     1.0  0.35249  0.90824  0.34930  1.0000
  C   C609      1.0  0.30161  0.83471  0.24474  1.0000
  H   H1001     1.0  0.15875  0.65008  0.33169  1.0000
  C   C610      1.0  0.35905  0.51362  0.32678  1.0000
  H   H1002     1.0  0.37500  0.94368  0.31044  1.0000
  H   H1003     1.0  0.13770  0.85548  0.44539  1.0000
  S   S188      1.0  0.01249  0.70867  0.39050  1.0000
  H   H1004     1.0  0.27907  0.69650  0.27836  1.0000
  C   C611      1.0  0.07220  0.82024  0.42122  1.0000
  H   H1005     1.0  0.06732  0.59611  0.33356  1.0000
  C   C612      1.0  0.14864  0.73434  0.35406  1.0000
  H   H1006     1.0  0.40536  0.50570  0.31466  1.0000
  H   H1007     1.0  0.30439  0.73977  0.28412  1.0000
  H   H1008     1.0  0.45762  0.89734  0.29582  1.0000
  C   C613      1.0  0.09234  0.83461  0.43127  1.0000
  C   C614      1.0  0.26695  0.70982  0.27871  1.0000
  H   H1009     1.0  0.06153  0.61903  0.31413  1.0000
  H   H1010     1.0  0.09687  0.63598  0.24579  1.0000
  H   H1011     1.0  0.09549  0.89741  0.43622  1.0000
  H   H1012     1.0  0.06234  0.57466  0.32113  1.0000
  H   H1013     1.0  0.00575  0.79124  0.41629  1.0000
  H   H1014     1.0  0.21542  0.63661  0.27888  1.0000
  H   H1015     1.0  0.24114  0.65000  0.26696  1.0000
  H   H1016     1.0  0.13817  0.88790  0.44867  1.0000
  H   H1017     1.0  0.02897  0.55739  0.30592  1.0000
  H   H1018     1.0  0.13617  0.68111  0.32377  1.0000
  C   C615      1.0  0.45449  0.83810  0.27091  1.0000
  N   N43       1.0  0.25971  0.88728  0.26313  1.0000
  H   H1019     1.0  0.11316  0.84250  0.42685  1.0000
  C   C616      1.0  0.23593  0.69025  0.24605  1.0000
  C   C617      1.0  0.41678  0.89712  0.33112  1.0000
  H   H1020     1.0  0.23260  0.84419  0.23932  1.0000
  N   N44       1.0  0.24386  0.70283  0.26939  1.0000
  H   H1021     1.0  0.14578  0.74746  0.32984  1.0000
  H   H1022     1.0  0.12034  0.71659  0.32846  1.0000
  C   C618      1.0  0.46482  0.48475  0.31434  1.0000
  H   H1023     1.0  0.05099  0.86680  0.44318  1.0000
  C   C619      1.0  0.03229  0.57670  0.30097  1.0000
  C   C620      1.0  0.03989  0.82584  0.44806  1.0000
  H   H1024     1.0  0.24640  0.91373  0.44619  1.0000
  H   H1025     1.0  0.24839  0.65677  0.28340  1.0000
  H   H1026     1.0  0.29608  0.87635  0.26263  1.0000
  H   H1027     1.0  0.23026  0.73102  0.27835  1.0000
  H   H1028     1.0  0.26760  0.94698  0.47979  1.0000
  H   H1029     1.0  0.21606  0.91952  0.25172  1.0000
  H   H1030     1.0  0.41879  0.83635  0.25930  1.0000
  H   H1031     1.0  0.19658  0.73513  0.32300  1.0000
  H   H1032     1.0  0.18321  0.92072  0.46009  1.0000
  H   H1033     1.0  0.02313  0.70135  0.42823  1.0000
  H   H1034     1.0  0.36074  0.50758  0.28395  1.0000
  H   H1035     1.0  0.02904  0.55700  0.28362  1.0000
  H   H1036     1.0  0.00553  0.60970  0.29257  1.0000
  C   C621      1.0  0.01881  0.61613  0.30075  1.0000
  H   H1037     1.0  0.09056  0.87129  0.45626  1.0000
  H   H1038     1.0  0.16786  0.74468  0.30968  1.0000
  H   H1039     1.0  0.34463  0.51845  0.30363  1.0000
  C   C622      1.0  0.47109  0.82854  0.25097  1.0000
  C   C623      1.0  0.19850  0.91181  0.45726  1.0000
  N   N45       1.0  0.02159  0.59356  0.30877  1.0000
  H   H1040     1.0  0.24491  0.74161  0.26311  1.0000
  H   H1041     1.0  0.19705  0.73587  0.26275  1.0000
  H   H1042     1.0  0.18835  0.86345  0.47365  1.0000
  H   H1043     1.0  0.29376  0.89740  0.24971  1.0000
  C   C624      1.0  0.27222  0.97573  0.43564  1.0000
  H   H1044     1.0  0.06474  0.88110  0.41739  1.0000
  H   H1045     1.0  0.06360  0.83248  0.41515  1.0000
  N   N46       1.0  0.08543  0.85559  0.43774  1.0000
  H   H1046     1.0  0.00620  0.68544  0.45008  1.0000
  H   H1047     1.0  0.29984  0.92265  0.44752  1.0000
  C   C625      1.0  0.12895  0.86684  0.45133  1.0000
  C   C626      1.0  0.23300  0.65417  0.27589  1.0000
  H   H1048     1.0  0.12044  0.88629  0.42928  1.0000
  H   H1049     1.0  0.09730  0.90486  0.41365  1.0000
  C   C627      1.0  0.20235  0.71780  0.26354  1.0000
  H   H1050     1.0  0.99774  0.56056  0.32072  1.0000
  H   H1051     1.0  0.33688  0.92090  0.32989  1.0000
  H   H1052     1.0  0.21604  0.67579  0.24908  1.0000
  C   C628      1.0  0.24417  0.86236  0.25706  1.0000
  H   H1053     1.0  0.04295  0.83054  0.45807  1.0000
  H   H1054     1.0  0.40326  0.53510  0.32901  1.0000
  H   H1055     1.0  0.26949  0.68854  0.25771  1.0000
  S   S189      1.0  0.01348  0.71112  0.47353  1.0000
  H   H1056     1.0  0.34034  0.51910  0.32540  1.0000
  H   H1057     1.0  0.24419  0.86450  0.46311  1.0000
  H   H1058     1.0  0.36400  0.85953  0.34104  1.0000
  C   C629      1.0  0.22087  0.90679  0.25919  1.0000
  H   H1059     1.0  0.22835  0.96591  0.43505  1.0000
  H   H1060     1.0  0.09253  0.87208  0.41088  1.0000
  H   H1061     1.0  0.37792  0.88061  0.32201  1.0000
  C   C630      1.0  0.38375  0.53894  0.32756  1.0000
  H   H1062     1.0  0.01093  0.77898  0.43191  1.0000
  S   S190      1.0  0.07174  0.83791  0.48183  1.0000
  H   H1063     1.0  0.27848  0.75261  0.27930  1.0000
  H   H1064     1.0  0.38420  0.90300  0.35101  1.0000
  C   C631      1.0  0.08704  0.88456  0.41745  1.0000
  H   H1065     1.0  0.99856  0.56353  0.28731  1.0000
  H   H1066     1.0  0.33176  0.86542  0.33962  1.0000
  H   H1067     1.0  0.08304  0.81124  0.41496  1.0000
  N   N47       1.0  0.17835  0.85033  0.35931  1.0000
  C   C632      1.0  0.18236  0.87903  0.35834  1.0000
  C   C633      1.0  0.17368  0.84120  0.37298  1.0000
  C   C634      1.0  0.15333  0.83633  0.35183  1.0000
  C   C635      1.0  0.20386  0.84700  0.35407  1.0000
  C   C636      1.0  0.18399  0.89170  0.34492  1.0000
  C   C637      1.0  0.19556  0.85619  0.38218  1.0000
  C   C638      1.0  0.13661  0.80798  0.35626  1.0000
  C   C639      1.0  0.20505  0.81927  0.35472  1.0000
  H   H1068     1.0  0.16553  0.88290  0.36339  1.0000
  H   H1069     1.0  0.20162  0.89045  0.36293  1.0000
  H   H1070     1.0  0.17152  0.82039  0.37449  1.0000
  H   H1071     1.0  0.15390  0.84244  0.37627  1.0000
  H   H1072     1.0  0.13805  0.84663  0.35200  1.0000
  H   H1073     1.0  0.15888  0.83642  0.34174  1.0000
  H   H1074     1.0  0.20700  0.85377  0.34399  1.0000
  H   H1075     1.0  0.22229  0.85942  0.35888  1.0000
  H   H1076     1.0  0.16534  0.88259  0.33944  1.0000
  H   H1077     1.0  0.18589  0.91243  0.34564  1.0000
  H   H1078     1.0  0.20240  0.89173  0.33967  1.0000
  H   H1079     1.0  0.19492  0.87604  0.38315  1.0000
  H   H1080     1.0  0.19085  0.84621  0.39167  1.0000
  H   H1081     1.0  0.21652  0.85714  0.37952  1.0000
  H   H1082     1.0  0.12105  0.79932  0.34911  1.0000
  H   H1083     1.0  0.12499  0.80740  0.36507  1.0000
  H   H1084     1.0  0.14913  0.79531  0.35777  1.0000
  H   H1085     1.0  0.20352  0.81083  0.36448  1.0000
  H   H1086     1.0  0.22527  0.82003  0.35093  1.0000
  H   H1087     1.0  0.18931  0.80639  0.34876  1.0000
  H   H1088     1.0  0.03510  0.61592  0.32529  1.0000
  H   H1089     1.0  0.26233  0.92753  0.26331  1.0000
  H   H1090     1.0  0.20802  0.72654  0.35086  1.0000
  C   C640      1.0  0.25640  0.88363  0.27727  1.0000
  H   H1091     1.0  0.04432  0.84710  0.43023  1.0000
  C   C641      1.0  0.22805  0.86673  0.28266  1.0000
  H   H1092     1.0  0.30749  0.93562  0.26266  1.0000
  S   S191      1.0  0.27712  0.96564  0.42063  1.0000
  H   H1093     1.0  0.98247  0.78998  0.42856  1.0000
  H   H1094     1.0  0.39523  0.97831  0.34045  1.0000
  C   C642      1.0  0.36179  0.51047  0.30422  1.0000
  H   H1095     1.0  0.46718  0.79233  0.27770  1.0000
  C   C643      1.0  0.04266  0.60485  0.31861  1.0000
  C   C644      1.0  0.25593  0.70057  0.25684  1.0000
  C   C645      1.0  0.22286  0.67758  0.27429  1.0000
  H   H1096     1.0  0.17173  0.69145  0.32069  1.0000
  H   H1097     1.0  0.26187  0.90274  0.28163  1.0000
  H   H1098     1.0  0.18706  0.89125  0.45556  1.0000
  C   C646      1.0  0.43388  0.85027  0.26519  1.0000
  H   H1099     1.0  0.09094  0.49090  0.34024  1.0000
  C   C647      1.0  0.47094  0.84412  0.30823  1.0000
  C   C648      1.0  0.23153  0.72426  0.26877  1.0000
  H   H1100     1.0  0.05564  0.80341  0.42554  1.0000
  H   H1101     1.0  0.19943  0.83672  0.47085  1.0000
  Fe  Fe93      1.0  0.99138  0.73619  0.38266  1.0000
  H   H1102     1.0  0.22212  0.85526  0.25964  1.0000
  C   C649      1.0  0.47579  0.86941  0.30314  1.0000
  H   H1103     1.0  0.16226  0.70158  0.35348  1.0000
  H   H1104     1.0  0.15837  0.51243  0.30223  1.0000
  H   H1105     1.0  0.25879  0.70724  0.28850  1.0000
  H   H1106     1.0  0.41161  0.88550  0.34017  1.0000
  S   S192      1.0  0.00920  0.77687  0.47946  1.0000
  H   H1107     1.0  0.98618  0.62429  0.31125  1.0000
  C   C650      1.0  0.37952  0.95947  0.33834  1.0000
  C   C651      1.0  0.21007  0.72421  0.34068  1.0000
  H   H1108     1.0  0.13849  0.65821  0.34317  1.0000
  H   H1109     1.0  0.20816  0.92226  0.44838  1.0000
  H   H1110     1.0  0.13493  0.86403  0.46119  1.0000
  C   C652      1.0  0.15751  0.66612  0.33734  1.0000
  C   C653      1.0  0.25147  0.90987  0.25819  1.0000
  H   H1111     1.0  0.45017  0.51894  0.28382  1.0000
  C   C654      1.0  0.22816  0.87381  0.46357  1.0000
  H   H1112     1.0  0.25158  0.84645  0.26065  1.0000
  H   H1113     1.0  0.09316  0.81915  0.43833  1.0000
  C   C655      1.0  0.25869  0.91580  0.45488  1.0000
  C   C656      1.0  0.09745  0.85780  0.45074  1.0000
  H   H1114     1.0  0.02882  0.58934  0.28125  1.0000
  H   H1115     1.0  0.37765  0.48776  0.29169  1.0000
  C   C657      1.0  0.38683  0.48895  0.31768  1.0000
  N   N48       1.0  0.24094  0.90219  0.46604  1.0000
  H   H1116     1.0  0.33113  0.91838  0.26377  1.0000
  C   C658      1.0  0.45431  0.50947  0.29238  1.0000
  C   C659      1.0  0.28255  0.90612  0.45175  1.0000
  C   C660      1.0  0.99539  0.77952  0.42481  1.0000
  H   H1117     1.0  0.35684  0.91277  0.30422  1.0000
  H   H1118     1.0  0.23089  0.73774  0.33798  1.0000
  H   H1119     1.0  0.09005  0.83868  0.45616  1.0000
  C   C661      1.0  0.05500  0.84985  0.43932  1.0000
  C   C662      1.0  0.35125  0.87027  0.34475  1.0000
  C   C663      1.0  0.05199  0.58523  0.32677  1.0000
  H   H1120     1.0  0.26909  0.89097  0.47845  1.0000
  H   H1121     1.0  0.35626  0.50381  0.33629  1.0000
  H   H1122     1.0  0.20761  0.90699  0.47674  1.0000
  H   H1123     1.0  0.22919  0.93582  0.46898  1.0000
  H   H1124     1.0  0.14391  0.71222  0.30791  1.0000
  H   H1125     1.0  0.21462  0.68006  0.28357  1.0000
  C   C664      1.0  0.09798  0.88161  0.43068  1.0000
  H   H1126     1.0  0.20456  0.67141  0.26832  1.0000
  C   C665      1.0  0.28782  0.73775  0.27719  1.0000
  H   H1127     1.0  0.00597  0.65006  0.30059  1.0000
  C   C666      1.0  0.36651  0.89988  0.34460  1.0000
  C   C667      1.0  0.01927  0.70540  0.44820  1.0000
  C   C668      1.0  0.02113  0.57153  0.28759  1.0000
  H   H1128     1.0  0.43264  0.91621  0.33257  1.0000
  H   H1129     1.0  0.18692  0.70400  0.27002  1.0000
  H   H1130     1.0  0.29763  0.74226  0.26775  1.0000
  C   C669      1.0  0.14966  0.71024  0.34748  1.0000
  N   N49       1.0  0.37563  0.91352  0.33188  1.0000
  C   C670      1.0  0.20666  0.85734  0.47339  1.0000
  H   H1131     1.0  0.45825  0.83795  0.24554  1.0000
  S   S193      1.0  0.26185  0.97661  0.38485  1.0000
  H   H1132     1.0  0.45971  0.84503  0.28051  1.0000
  C   C671      1.0  0.15642  0.68892  0.32836  1.0000
  C   C672      1.0  0.13844  0.64336  0.23972  1.0000
  H   H1133     1.0  0.23734  0.87810  0.23826  1.0000
  H   H1134     1.0  0.04657  0.80901  0.44653  1.0000
  H   H1135     1.0  0.17537  0.67116  0.34357  1.0000
  C   C673      1.0  0.25736  0.90468  0.47792  1.0000
  H   H1136     1.0  0.40595  0.95027  0.32516  1.0000
  H   H1137     1.0  0.20686  0.88705  0.25748  1.0000
  C   C674      1.0  0.18917  0.73261  0.33290  1.0000
  H   H1138     1.0  0.27600  0.89058  0.44496  1.0000
  C   C675      1.0  0.14721  0.73089  0.31231  1.0000
  H   H1139     1.0  0.36628  0.96380  0.33096  1.0000
  C   C676      1.0  0.21944  0.91464  0.46786  1.0000
  C   C677      1.0  0.36004  0.49473  0.29247  1.0000
  H   H1140     1.0  0.19071  0.75228  0.33577  1.0000
  H   H1141     1.0  0.03907  0.62810  0.29652  1.0000
  H   H1142     1.0  0.36725  0.95170  0.34705  1.0000
  H   H1143     1.0  0.05487  0.58563  0.29964  1.0000
  H   H1144     1.0  0.30820  0.91533  0.27662  1.0000
  H   H1145     1.0  0.27009  0.71987  0.25324  1.0000
  H   H1146     1.0  0.25844  0.91582  0.24827  1.0000
  C   C678      1.0  0.39399  0.94099  0.33384  1.0000
  H   H1147     1.0  0.39878  0.91098  0.31542  1.0000
  C   C679      1.0  0.35594  0.92670  0.31127  1.0000
  N   N50       1.0  0.15981  0.71467  0.33401  1.0000
  C   C680      1.0  0.14245  0.72758  0.32670  1.0000
  C   C681      1.0  0.24645  0.97356  0.44064  1.0000
  H   H1148     1.0  0.22440  0.97929  0.45688  1.0000
  H   H1149     1.0  0.33908  0.93429  0.30883  1.0000
  H   H1150     1.0  0.13255  0.74158  0.35010  1.0000
  C   C682      1.0  0.32370  0.85810  0.24380  1.0000
  H   H1151     1.0  0.38071  0.54942  0.33576  1.0000
  H   H1152     1.0  0.02062  0.64456  0.31506  1.0000
  C   C683      1.0  0.43629  0.48463  0.29639  1.0000
  C   C684      1.0  0.35059  0.91314  0.32457  1.0000
  C   C685      1.0  0.39136  0.90018  0.32459  1.0000
  H   H1153     1.0  0.21024  0.70473  0.33856  1.0000
  H   H1154     1.0  0.21849  0.87127  0.45417  1.0000
  Fe  Fe94      1.0  0.21936  0.97929  0.38416  1.0000
  H   H1155     1.0  0.42271  0.85551  0.27290  1.0000
  H   H1156     1.0  0.04990  0.76081  0.46324  1.0000
  H   H1157     1.0  0.40988  0.94112  0.34091  1.0000
  H   H1158     1.0  0.29095  0.89871  0.46009  1.0000
  H   H1159     1.0  0.23235  0.70650  0.24045  1.0000
  H   H1160     1.0  0.33736  0.89288  0.32316  1.0000
  H   H1161     1.0  0.05523  0.48456  0.34245  1.0000
  H   H1162     1.0  0.38099  0.52751  0.30299  1.0000
  C   C686      1.0  0.00719  0.63452  0.30749  1.0000
  H   H1163     1.0  0.03490  0.57120  0.33237  1.0000
  H   H1164     1.0  0.26644  0.86673  0.23890  1.0000
  H   H1165     1.0  0.45762  0.80796  0.25274  1.0000
  H   H1166     1.0  0.38561  0.55236  0.31917  1.0000
  H   H1167     1.0  0.24496  0.67973  0.23970  1.0000
  H   H1168     1.0  0.39031  0.84507  0.23578  1.0000
  H   H1169     1.0  0.29498  0.93798  0.47318  1.0000
  C   C687      1.0  0.24422  0.98096  0.45302  1.0000
  C   C688      1.0  0.99523  0.57770  0.31546  1.0000
  C   C689      1.0  0.27770  0.93207  0.48007  1.0000
  H   H1170     1.0  0.99408  0.74136  0.42127  1.0000
  C   C690      1.0  0.11019  0.63631  0.23796  1.0000
  C   C691      1.0  0.47776  0.52214  0.29928  1.0000
  H   H1171     1.0  0.38617  0.48518  0.33870  1.0000
  C   C692      1.0  0.11877  0.48375  0.29939  1.0000
  Fe  Fe95      1.0  0.22782  0.94911  0.61065  1.0000
  S   S194      1.0  0.18543  0.94812  0.61538  1.0000
  S   S195      1.0  0.23115  0.93221  0.59187  1.0000
  H   H1172     1.0  0.99292  0.71953  0.54202  1.0000
  C   C693      1.0  0.00087  0.72966  0.55038  1.0000
  H   H1173     1.0  0.12080  0.82860  0.52103  1.0000
  Fe  Fe96      1.0  0.19077  0.93050  0.63415  1.0000
  S   S196      1.0  0.15433  0.89865  0.64380  1.0000
  H   H1174     1.0  0.03128  0.76382  0.58079  1.0000
  S   S197      1.0  0.23233  0.92894  0.62917  1.0000
  C   C694      1.0  0.21214  0.87892  0.65755  1.0000
  Fe  Fe97      1.0  0.03891  0.76148  0.62708  1.0000
  S   S198      1.0  0.02659  0.72011  0.62086  1.0000
  S   S199      1.0  0.08506  0.78394  0.62793  1.0000
  H   H1175     1.0  0.05741  0.67003  0.67738  1.0000
  H   H1176     1.0  0.09313  0.71404  0.63006  1.0000
  C   C695      1.0  0.02261  0.75428  0.57237  1.0000
  H   H1177     1.0  0.16458  0.88169  0.52660  1.0000
  Fe  Fe98      1.0  0.99735  0.73106  0.60785  1.0000
  C   C696      1.0  0.08858  0.69980  0.66465  1.0000
  S   S200      1.0  0.00801  0.75058  0.64316  1.0000
  S   S201      1.0  0.01156  0.77259  0.61309  1.0000
  C   C697      1.0  0.16244  0.97418  0.55294  1.0000
  S   S202      1.0  0.18431  0.94672  0.51804  1.0000
  H   H1178     1.0  0.10026  0.83480  0.55124  1.0000
  H   H1179     1.0  0.05557  0.75014  0.66429  1.0000
  H   H1180     1.0  0.30240  0.97992  0.71681  1.0000
  S   S203      1.0  0.20842  0.96953  0.64285  1.0000
  Fe  Fe99      1.0  0.20235  0.92897  0.50332  1.0000
  S   S204      1.0  0.19167  0.88580  0.50210  1.0000
  C   C698      1.0  0.17280  0.84606  0.53069  1.0000
  S   S205      1.0  0.24607  0.95389  0.50630  1.0000
  H   H1181     1.0  0.99550  0.79049  0.53270  1.0000
  S   S206      1.0  0.05604  0.76512  0.49777  1.0000
  C   C699      1.0  0.03466  0.76446  0.56051  1.0000
  Fe  Fe100     1.0  0.99384  0.70995  0.63616  1.0000
  H   H1182     1.0  0.08982  0.74476  0.65274  1.0000
  Fe  Fe101     1.0  0.02737  0.76270  0.51423  1.0000
  S   S207      1.0  0.04089  0.76549  0.53481  1.0000
  C   C700      1.0  0.99965  0.73161  0.57333  1.0000
  S   S208      1.0  0.01943  0.79904  0.50746  1.0000
  Fe  Fe102     1.0  0.18183  0.97411  0.50200  1.0000
  C   C701      1.0  0.15852  0.87216  0.49631  1.0000
  H   H1183     1.0  0.16652  0.93030  0.57124  1.0000
  C   C702      1.0  0.98327  0.80072  0.53724  1.0000
  C   C703      1.0  0.05140  0.73221  0.67050  1.0000
  C   C704      1.0  0.04360  0.70780  0.66277  1.0000
  H   H1184     1.0  0.98659  0.80032  0.54751  1.0000
  C   C705      1.0  0.11988  0.83428  0.49125  1.0000
  C   C706      1.0  0.05563  0.68056  0.64784  1.0000
  H   H1185     1.0  0.06417  0.73211  0.64157  1.0000
  Fe  Fe103     1.0  0.22757  0.97368  0.51991  1.0000
  C   C707      1.0  0.15771  0.93187  0.58049  1.0000
  C   C708      1.0  0.10232  0.72595  0.63808  1.0000
  H   H1186     1.0  0.23204  0.95243  0.67297  1.0000
  C   C709      1.0  0.02390  0.75228  0.54942  1.0000
  Fe  Fe104     1.0  0.23762  0.98003  0.49094  1.0000
  C   C710      1.0  0.24222  0.97501  0.55280  1.0000
  S   S209      1.0  0.99030  0.73621  0.50467  1.0000
  H   H1187     1.0  0.11766  0.71865  0.64273  1.0000
  C   C711      1.0  0.07999  0.72731  0.64729  1.0000
  H   H1188     1.0  0.15860  0.83273  0.49806  1.0000
  S   S210      1.0  0.19546  0.95379  0.48704  1.0000
  H   H1189     1.0  0.14065  0.91334  0.58263  1.0000
  H   H1190     1.0  0.03222  0.63944  0.64763  1.0000
  C   C712      1.0  0.20396  0.91356  0.66842  1.0000
  H   H1191     1.0  0.12858  0.94932  0.57417  1.0000
  H   H1192     1.0  0.10138  0.69036  0.65977  1.0000
  H   H1193     1.0  0.07424  0.82221  0.53287  1.0000
  H   H1194     1.0  0.13309  0.88187  0.55868  1.0000
  H   H1195     1.0  0.07201  0.67787  0.64197  1.0000
  H   H1196     1.0  0.17907  0.84339  0.65375  1.0000
  C   C713      1.0  0.13444  0.86791  0.63817  1.0000
  C   C714      1.0  0.14547  0.85458  0.63006  1.0000
  C   C715      1.0  0.12990  0.82914  0.62686  1.0000
  C   C716      1.0  0.10284  0.81692  0.63139  1.0000
  C   C717      1.0  0.09160  0.83051  0.63925  1.0000
  C   C718      1.0  0.10745  0.85565  0.64275  1.0000
  H   H1197     1.0  0.16625  0.86355  0.62654  1.0000
  H   H1198     1.0  0.13892  0.81880  0.62085  1.0000
  H   H1199     1.0  0.07095  0.82138  0.64292  1.0000
  H   H1200     1.0  0.09872  0.86564  0.64909  1.0000
  C   C719      1.0  0.23590  0.94919  0.57694  1.0000
  C   C720      1.0  0.22675  0.93516  0.56617  1.0000
  C   C721      1.0  0.22966  0.94799  0.55416  1.0000
  C   C722      1.0  0.98878  0.71949  0.56224  1.0000
  H   H1201     1.0  0.04051  0.68405  0.64114  1.0000
  C   C723      1.0  0.14690  0.84520  0.49541  1.0000
  H   H1202     1.0  0.21722  0.91425  0.56716  1.0000
  H   H1203     1.0  0.22229  0.93702  0.54597  1.0000
  C   C724      1.0  0.24390  0.86865  0.68042  1.0000
  N   N51       1.0  0.12834  0.85537  0.53619  1.0000
  H   H1204     1.0  0.20798  0.88835  0.64861  1.0000
  C   C725      1.0  0.25089  0.91857  0.66239  1.0000
  H   H1205     1.0  0.23611  0.85393  0.68834  1.0000
  H   H1206     1.0  0.19945  0.92099  0.65905  1.0000
  H   H1207     1.0  0.06925  0.73399  0.67655  1.0000
  H   H1208     1.0  0.26331  0.90156  0.64618  1.0000
  C   C726      1.0  0.08310  0.83508  0.52447  1.0000
  H   H1209     1.0  0.22675  0.86927  0.65482  1.0000
  H   H1210     1.0  0.19489  0.85680  0.52874  1.0000
  H   H1211     1.0  0.02787  0.70950  0.65597  1.0000
  C   C727      1.0  0.07848  0.68411  0.67728  1.0000
  H   H1212     1.0  0.24354  0.89891  0.48634  1.0000
  H   H1213     1.0  0.18391  0.90057  0.67237  1.0000
  C   C728      1.0  0.11467  0.84479  0.52418  1.0000
  Fe  Fe105     1.0  0.24996  0.96921  0.63674  1.0000
  H   H1214     1.0  0.20669  0.87671  0.68440  1.0000
  H   H1215     1.0  0.16817  0.86389  0.66315  1.0000
  H   H1216     1.0  0.24208  0.85722  0.67204  1.0000
  H   H1217     1.0  0.12130  0.85999  0.51638  1.0000
  C   C729      1.0  0.11748  0.80725  0.54474  1.0000
  H   H1218     1.0  0.09700  0.87157  0.54101  1.0000
  H   H1219     1.0  0.07565  0.82366  0.51609  1.0000
  H   H1220     1.0  0.18827  0.84511  0.66992  1.0000
  H   H1221     1.0  0.26586  0.87960  0.68202  1.0000
  C   C730      1.0  0.18544  0.85677  0.66153  1.0000
  C   C731      1.0  0.11940  0.87817  0.53892  1.0000
  C   C732      1.0  0.04180  0.65383  0.65471  1.0000
  C   C733      1.0  0.15899  0.86573  0.53412  1.0000
  H   H1222     1.0  0.07509  0.85151  0.52382  1.0000
  H   H1223     1.0  0.26240  0.92997  0.67021  1.0000
  H   H1224     1.0  0.12590  0.79879  0.55280  1.0000
  H   H1225     1.0  0.12224  0.90761  0.55227  1.0000
  H   H1226     1.0  0.11351  0.74582  0.63398  1.0000
  H   H1227     1.0  0.16963  0.87444  0.54270  1.0000
  H   H1228     1.0  0.03235  0.69105  0.66918  1.0000
  C   C734      1.0  0.21316  0.93719  0.67670  1.0000
  N   N52       1.0  0.22389  0.89905  0.66708  1.0000
  H   H1229     1.0  0.17185  0.83183  0.53863  1.0000
  H   H1230     1.0  0.09206  0.67266  0.67976  1.0000
  H   H1231     1.0  0.19692  0.94624  0.67663  1.0000
  H   H1232     1.0  0.23714  0.90251  0.68634  1.0000
  H   H1233     1.0  0.02508  0.65353  0.66118  1.0000
  H   H1234     1.0  0.16463  0.83609  0.52204  1.0000
  H   H1235     1.0  0.10290  0.71910  0.66721  1.0000
  H   H1236     1.0  0.29061  0.92449  0.65384  1.0000
  C   C735      1.0  0.27095  0.90822  0.65556  1.0000
  H   H1237     1.0  0.17306  0.93308  0.58790  1.0000
  H   H1238     1.0  0.03377  0.73109  0.67667  1.0000
  C   C736      1.0  0.13342  0.89423  0.55006  1.0000
  H   H1239     1.0  0.27574  0.89265  0.66104  1.0000
  H   H1240     1.0  0.05261  0.78179  0.55995  1.0000
  C   C737      1.0  0.14331  0.88815  0.49286  1.0000
  H   H1241     1.0  0.05700  0.64688  0.65974  1.0000
  H   H1242     1.0  0.12280  0.89202  0.53050  1.0000
  H   H1243     1.0  0.08064  0.69738  0.68503  1.0000
  C   C738      1.0  0.22699  0.88708  0.67980  1.0000
  Fe  Fe106     1.0  0.04497  0.79953  0.49061  1.0000
  H   H1244     1.0  0.21593  0.93159  0.68662  1.0000
  H   H1245     1.0  0.24728  0.93324  0.65561  1.0000
  H   H1246     1.0  0.17340  0.96649  0.54606  1.0000
  H   H1247     1.0  0.15480  0.90668  0.54762  1.0000
  C   C739      1.0  0.12042  0.83570  0.54724  1.0000
  H   H1248     1.0  0.12805  0.80454  0.53624  1.0000
  H   H1249     1.0  0.13534  0.84190  0.55496  1.0000
  H   H1250     1.0  0.09553  0.79503  0.54441  1.0000
  C   C740      1.0  0.10489  0.85046  0.48766  1.0000
  N   N53       1.0  0.06698  0.70346  0.65593  1.0000
  C   C741      1.0  0.14640  0.95462  0.58047  1.0000
  H   H1251     1.0  0.14298  0.95820  0.55500  1.0000
  Fe  Fe107     1.0  0.98459  0.77301  0.49700  1.0000
  H   H1252     1.0  0.15172  0.90882  0.49384  1.0000
  H   H1253     1.0  0.99180  0.82138  0.53369  1.0000
  H   H1254     1.0  0.13750  0.95439  0.59001  1.0000
  H   H1255     1.0  0.11080  0.81345  0.49063  1.0000
  S   S211      1.0  0.29000  0.98079  0.64835  1.0000
  C   C742      1.0  0.24856  0.97618  0.57555  1.0000
  S   S212      1.0  0.98379  0.71767  0.58807  1.0000
  H   H1256     1.0  0.10859  0.97972  0.57790  1.0000
  H   H1257     1.0  0.28669  0.93199  0.48954  1.0000
  H   H1258     1.0  0.20002  0.97376  0.58702  1.0000
  Fe  Fe108     1.0  0.01806  0.74204  0.48757  1.0000
  N   N54       1.0  0.16664  0.98127  0.57695  1.0000
  C   C743      1.0  0.11677  0.87737  0.48832  1.0000
  S   S213      1.0  0.98056  0.66975  0.64710  1.0000
  H   H1259     1.0  0.19448  0.97066  0.56508  1.0000
  H   H1260     1.0  0.28393  0.98137  0.73067  1.0000
  C   C744      1.0  0.18066  0.98230  0.56449  1.0000
  H   H1261     1.0  0.32812  0.97370  0.73507  1.0000
  Fe  Fe109     1.0  0.97980  0.75860  0.62855  1.0000
  H   H1262     1.0  0.10517  0.88991  0.48559  1.0000
  C   C745      1.0  0.98146  0.55733  0.84258  1.0000
  H   H1263     1.0  0.35218  0.97626  0.76052  1.0000
  H   H1264     1.0  0.03224  0.58751  0.84236  1.0000
  H   H1265     1.0  0.99185  0.56071  0.83323  1.0000
  C   C746      1.0  0.03417  0.57671  0.86208  1.0000
  H   H1266     1.0  0.01681  0.61287  0.82843  1.0000
  C   C747      1.0  0.99454  0.60921  0.82941  1.0000
  H   H1267     1.0  0.03076  0.61115  0.85284  1.0000
  H   H1268     1.0  0.04014  0.58949  0.87011  1.0000
  C   C748      1.0  0.98421  0.60255  0.84316  1.0000
  C   C749      1.0  0.02259  0.58994  0.85131  1.0000
  H   H1269     1.0  0.05344  0.57435  0.85876  1.0000
  N   N55       1.0  0.99181  0.58118  0.85013  1.0000
  C   C750      1.0  0.98494  0.53220  0.84829  1.0000
  H   H1270     1.0  0.98099  0.56010  0.86843  1.0000
  H   H1271     1.0  0.02073  0.55722  0.86555  1.0000
  C   C751      1.0  0.98318  0.59922  0.87102  1.0000
  H   H1272     1.0  0.00542  0.60971  0.87186  1.0000
  H   H1273     1.0  0.30912  0.97494  0.75484  1.0000
  H   H1274     1.0  0.36621  0.97494  0.74503  1.0000
  S   S214      1.0  0.37824  0.98231  0.97909  1.0000
  H   H1275     1.0  0.00679  0.53383  0.84874  1.0000
  H   H1276     1.0  0.99226  0.62107  0.84800  1.0000
  H   H1277     1.0  0.99077  0.62721  0.82593  1.0000
  H   H1278     1.0  0.98299  0.59382  0.82315  1.0000
  H   H1279     1.0  0.97120  0.28218  0.05966  1.0000
  C   C752      1.0  0.64047  0.98629  0.99877  1.0000
  H   H1280     1.0  0.54969  0.46304  0.99065  1.0000
  H   H1281     1.0  0.56781  0.26381  0.98817  1.0000
  H   H1282     1.0  0.83210  0.41425  0.99669  1.0000
  C   C753      1.0  0.59347  0.03048  0.99378  1.0000
  H   H1283     1.0  0.63516  0.99735  0.02972  1.0000
  H   H1284     1.0  0.61315  0.02756  0.99146  1.0000
  C   C754      1.0  0.59736  0.04094  0.00704  1.0000
  H   H1285     1.0  0.56380  0.46814  0.02414  1.0000
  H   H1286     1.0  0.96222  0.30187  0.07621  1.0000
  H   H1287     1.0  0.65276  0.02083  0.00917  1.0000
  C   C755      1.0  0.53112  0.02229  0.00003  1.0000
  H   H1288     1.0  0.95358  0.30652  0.00501  1.0000
  H   H1289     1.0  0.60407  0.02806  0.01372  1.0000
  H   H1290     1.0  0.54323  0.40564  0.98592  1.0000
  H   H1291     1.0  0.51440  0.25440  0.00153  1.0000
  H   H1292     1.0  0.97266  0.37526  0.23001  1.0000
  C   C756      1.0  0.54284  0.29955  0.98962  1.0000
  H   H1293     1.0  0.52087  0.43528  0.02666  1.0000
  H   H1294     1.0  0.93379  0.39310  0.99587  1.0000
  H   H1295     1.0  0.52189  0.29720  0.99320  1.0000
  C   C757      1.0  0.51308  0.24265  0.99326  1.0000
  H   H1296     1.0  0.80474  0.42546  0.99266  1.0000
  H   H1297     1.0  0.56074  0.44960  0.01097  1.0000
  H   H1298     1.0  0.55349  0.29389  0.99778  1.0000
  C   C758      1.0  0.64285  0.99995  0.00968  1.0000
  H   H1299     1.0  0.54016  0.04377  0.00023  1.0000
  H   H1300     1.0  0.80160  0.39186  0.99097  1.0000
  C   C759      1.0  0.55277  0.46393  0.01519  1.0000
  C   C760      1.0  0.52231  0.44962  0.01867  1.0000
  C   C761      1.0  0.56623  0.98684  0.00296  1.0000
  H   H1301     1.0  0.61405  0.06013  0.00662  1.0000
  C   C762      1.0  0.94018  0.37592  0.99780  1.0000
  H   H1302     1.0  0.51174  0.46296  0.02163  1.0000
  C   C763      1.0  0.97552  0.31576  0.00571  1.0000
  C   C764      1.0  0.81551  0.41217  0.98978  1.0000
  H   H1303     1.0  0.57891  0.04393  0.01079  1.0000
  C   C765      1.0  0.97187  0.32127  0.09320  1.0000
  H   H1304     1.0  0.55881  0.33909  0.99590  1.0000
  H   H1305     1.0  0.52733  0.99544  0.98540  1.0000
  C   C766      1.0  0.63281  0.98652  0.02135  1.0000
  H   H1306     1.0  0.96172  0.30558  0.10044  1.0000
  C   C767      1.0  0.54367  0.01222  0.98921  1.0000
  H   H1307     1.0  0.88011  0.39221  0.99156  1.0000
  H   H1308     1.0  0.50875  0.01730  0.99851  1.0000
  H   H1309     1.0  0.53281  0.01325  0.00936  1.0000
  H   H1310     1.0  0.59250  0.04667  0.98724  1.0000
  H   H1311     1.0  0.94961  0.37695  0.00719  1.0000
  C   C768      1.0  0.55622  0.32918  0.98692  1.0000
  H   H1312     1.0  0.92136  0.35844  0.99824  1.0000
  H   H1313     1.0  0.49256  0.22722  0.99372  1.0000
  N   N56       1.0  0.56946  0.00602  0.99186  1.0000
  H   H1314     1.0  0.97166  0.37848  0.20845  1.0000
  H   H1315     1.0  0.52838  0.23257  0.99396  1.0000
  H   H1316     1.0  0.56324  0.99497  0.01190  1.0000
  H   H1317     1.0  0.95711  0.33110  0.09020  1.0000
  H   H1318     1.0  0.97528  0.34010  0.06369  1.0000
  H   H1319     1.0  0.51111  0.43839  0.01080  1.0000
  H   H1320     1.0  0.96746  0.41907  0.20876  1.0000
  H   H1321     1.0  0.97410  0.32084  0.02562  1.0000
  H   H1322     1.0  0.52122  0.47109  0.99602  1.0000
  H   H1323     1.0  0.96590  0.35619  0.99046  1.0000
  C   C769      1.0  0.95954  0.37306  0.98749  1.0000
  H   H1324     1.0  0.56217  0.08618  0.98709  1.0000
  C   C770      1.0  0.54377  0.47912  0.99438  1.0000
  H   H1325     1.0  0.48021  0.46947  0.13537  1.0000
  H   H1326     1.0  0.51061  0.45882  0.28538  1.0000
  C   C771      1.0  0.88591  0.11626  0.43680  1.0000
  C   C772      1.0  0.83671  0.10872  0.41963  1.0000
  H   H1327     1.0  0.89182  0.04406  0.46837  1.0000
  S   S215      1.0  0.81182  0.03410  0.38667  1.0000
  H   H1328     1.0  0.76982  0.02664  0.34385  1.0000
  H   H1329     1.0  0.50158  0.48034  0.26669  1.0000
  H   H1330     1.0  0.70340  0.02712  0.34844  1.0000
  H   H1331     1.0  0.49640  0.42587  0.26649  1.0000
  H   H1332     1.0  0.77006  0.03925  0.36669  1.0000
  C   C773      1.0  0.82306  0.01747  0.46466  1.0000
  N   N57       1.0  0.72738  0.01663  0.36305  1.0000
  H   H1333     1.0  0.75533  0.01291  0.37747  1.0000
  S   S216      1.0  0.93884  0.10569  0.38640  1.0000
  S   S217      1.0  0.95091  0.18427  0.38149  1.0000
  C   C774      1.0  0.96579  0.19097  0.43672  1.0000
  H   H1334     1.0  0.87250  0.15578  0.42754  1.0000
  H   H1335     1.0  0.49258  0.45398  0.29997  1.0000
  H   H1336     1.0  0.74061  0.06348  0.37610  1.0000
  C   C775      1.0  0.84728  0.05366  0.38667  1.0000
  C   C776      1.0  0.86799  0.04305  0.38908  1.0000
  C   C777      1.0  0.89575  0.05930  0.38895  1.0000
  C   C778      1.0  0.90332  0.08637  0.38645  1.0000
  C   C779      1.0  0.88261  0.09702  0.38408  1.0000
  C   C780      1.0  0.85481  0.08077  0.38422  1.0000
  H   H1337     1.0  0.86267  0.02229  0.39094  1.0000
  H   H1338     1.0  0.91155  0.05076  0.39072  1.0000
  H   H1339     1.0  0.88804  0.11773  0.38200  1.0000
  H   H1340     1.0  0.83906  0.08925  0.38228  1.0000
  H   H1341     1.0  0.90466  0.08195  0.41626  1.0000
  C   C781      1.0  0.74612  0.04758  0.38099  1.0000
  C   C782      1.0  0.88987  0.15344  0.42223  1.0000
  H   H1342     1.0  0.83062  0.10077  0.42937  1.0000
  S   S218      1.0  0.96876  0.14075  0.48284  1.0000
  C   C783      1.0  0.92090  0.09871  0.42002  1.0000
  H   H1343     1.0  0.74341  0.99179  0.45756  1.0000
  H   H1344     1.0  0.74351  0.05177  0.33810  1.0000
  H   H1345     1.0  0.86721  0.11846  0.44094  1.0000
  H   H1346     1.0  0.66700  0.99919  0.35969  1.0000
  C   C784      1.0  0.91517  0.12442  0.41746  1.0000
  H   H1347     1.0  0.90807  0.16568  0.40325  1.0000
  C   C785      1.0  0.86534  0.10833  0.41603  1.0000
  C   C786      1.0  0.90939  0.13080  0.44547  1.0000
  C   C787      1.0  0.76412  0.00759  0.34911  1.0000
  Fe  Fe110     1.0  0.79172  0.98966  0.38949  1.0000
  H   H1348     1.0  0.89858  0.06579  0.45482  1.0000
  C   C788      1.0  0.95955  0.23245  0.43845  1.0000
  H   H1349     1.0  0.94024  0.10021  0.41506  1.0000
  H   H1350     1.0  0.76564  0.99325  0.34242  1.0000
  H   H1351     1.0  0.87096  0.15557  0.40369  1.0000
  H   H1352     1.0  0.77948  0.00816  0.35647  1.0000
  C   C789      1.0  0.75062  0.02853  0.37179  1.0000
  H   H1353     1.0  0.73644  0.07599  0.34691  1.0000
  Fe  Fe111     1.0  0.96385  0.14941  0.38603  1.0000
  H   H1354     1.0  0.91532  0.12769  0.40705  1.0000
  H   H1355     1.0  0.82087  0.00058  0.44061  1.0000
  C   C790      1.0  0.74176  0.05792  0.34773  1.0000
  Fe  Fe112     1.0  0.97139  0.19844  0.39975  1.0000
  C   C791      1.0  0.96623  0.23216  0.45119  1.0000
  H   H1356     1.0  0.86879  0.06160  0.46414  1.0000
  H   H1357     1.0  0.69663  0.01265  0.37758  1.0000
  H   H1358     1.0  0.95493  0.24890  0.43422  1.0000
  H   H1359     1.0  0.90854  0.16621  0.42680  1.0000
  H   H1360     1.0  0.92993  0.13561  0.44112  1.0000
  C   C792      1.0  0.95991  0.21225  0.43105  1.0000
  H   H1361     1.0  0.83511  0.12839  0.41830  1.0000
  H   H1362     1.0  0.79648  0.04063  0.46231  1.0000
  H   H1363     1.0  0.76209  0.06377  0.35212  1.0000
  C   C793      1.0  0.88995  0.16545  0.40880  1.0000
  H   H1364     1.0  0.88211  0.09500  0.43805  1.0000
  H   H1365     1.0  0.89129  0.18607  0.40936  1.0000
  H   H1366     1.0  0.97612  0.17386  0.45403  1.0000
  H   H1367     1.0  0.70829  0.04650  0.36131  1.0000
  H   H1368     1.0  0.93329  0.14045  0.42052  1.0000
  H   H1369     1.0  0.82697  0.05319  0.45289  1.0000
  H   H1370     1.0  0.90955  0.11805  0.45393  1.0000
  H   H1371     1.0  0.90690  0.14901  0.44850  1.0000
  H   H1372     1.0  0.76561  0.05682  0.38593  1.0000
  C   C794      1.0  0.70305  0.00047  0.37110  1.0000
  H   H1373     1.0  0.72060  0.99362  0.34658  1.0000
  H   H1374     1.0  0.73070  0.03744  0.38839  1.0000
  C   C795      1.0  0.71911  0.03671  0.35540  1.0000
  H   H1375     1.0  0.86428  0.08768  0.41718  1.0000
  S   S219      1.0  0.95232  0.21455  0.41490  1.0000
  C   C796      1.0  0.73474  0.99848  0.35466  1.0000
  H   H1376     1.0  0.92393  0.09483  0.43013  1.0000
  N   N58       1.0  0.88907  0.12561  0.42315  1.0000
  H   H1377     1.0  0.86822  0.11323  0.40577  1.0000
  H   H1378     1.0  0.85872  0.03819  0.44367  1.0000
  C   C797      1.0  0.88187  0.05117  0.46043  1.0000
  H   H1379     1.0  0.82142  0.09600  0.41335  1.0000
  C   C798      1.0  0.50363  0.46595  0.26026  1.0000
  C   C799      1.0  0.97130  0.19011  0.44972  1.0000
  C   C800      1.0  0.86605  0.02917  0.45193  1.0000
  C   C801      1.0  0.67687  0.98574  0.36399  1.0000
  C   C802      1.0  0.81102  0.03498  0.45646  1.0000
  H   H1380     1.0  0.79916  0.02470  0.44851  1.0000
  H   H1381     1.0  0.80517  0.00121  0.46860  1.0000
  H   H1382     1.0  0.96628  0.17532  0.43109  1.0000
  H   H1383     1.0  0.88162  0.02163  0.44806  1.0000
  H   H1384     1.0  0.96716  0.24860  0.45660  1.0000
  C   C803      1.0  0.48389  0.43767  0.26286  1.0000
  H   H1385     1.0  0.52514  0.46628  0.26097  1.0000
  H   H1386     1.0  0.50150  0.47294  0.25046  1.0000
  H   H1387     1.0  0.83270  0.02846  0.47287  1.0000
  N   N59       1.0  0.84283  0.00729  0.45816  1.0000
  H   H1388     1.0  0.48590  0.47496  0.28812  1.0000
  H   H1389     1.0  0.86437  0.00565  0.47547  1.0000
  C   C804      1.0  0.97210  0.21108  0.45694  1.0000
  H   H1390     1.0  0.70851  0.98584  0.37725  1.0000
  C   C805      1.0  0.49048  0.45672  0.28966  1.0000
  H   H1391     1.0  0.87141  0.98744  0.46368  1.0000
  H   H1392     1.0  0.86172  0.98747  0.43649  1.0000
  C   C806      1.0  0.82757  0.98954  0.44826  1.0000
  C   C807      1.0  0.85459  0.99293  0.46780  1.0000
  C   C808      1.0  0.79239  0.01455  0.69391  1.0000
  S   S220      1.0  0.77903  0.99466  0.62512  1.0000
  S   S221      1.0  0.85646  0.00172  0.62300  1.0000
  C   C809      1.0  0.93315  0.14990  0.56534  1.0000
  C   C810      1.0  0.79508  0.46502  0.69270  1.0000
  S   S222      1.0  0.92120  0.16247  0.62653  1.0000
  S   S223      1.0  0.92235  0.10613  0.64857  1.0000
  S   S224      1.0  0.92651  0.26201  0.69887  1.0000
  Fe  Fe113     1.0  0.90009  0.28241  0.70836  1.0000
  S   S225      1.0  0.86453  0.29115  0.69940  1.0000
  H   H1393     1.0  0.87075  0.23711  0.69056  1.0000
  Fe  Fe114     1.0  0.87686  0.32716  0.71066  1.0000
  S   S226      1.0  0.86801  0.36453  0.70504  1.0000
  Fe  Fe115     1.0  0.84116  0.26994  0.71666  1.0000
  S   S227      1.0  0.79675  0.24424  0.71574  1.0000
  S   S228      1.0  0.91451  0.32026  0.71838  1.0000
  S   S229      1.0  0.87572  0.25951  0.72536  1.0000
  H   H1394     1.0  0.89623  0.11919  0.60794  1.0000
  Fe  Fe116     1.0  0.67685  0.04308  0.71499  1.0000
  S   S230      1.0  0.68379  0.08372  0.70697  1.0000
  S   S231      1.0  0.67804  0.00862  0.70388  1.0000
  Fe  Fe117     1.0  0.64968  0.08347  0.72030  1.0000
  S   S232      1.0  0.61638  0.10171  0.71680  1.0000
  Fe  Fe118     1.0  0.71162  0.09625  0.72342  1.0000
  S   S233      1.0  0.75663  0.12117  0.72186  1.0000
  H   H1395     1.0  0.83901  0.47432  0.69762  1.0000
  C   C811      1.0  0.85056  0.07793  0.54679  1.0000
  Fe  Fe119     1.0  0.97152  0.16862  0.51634  1.0000
  C   C812      1.0  0.50502  0.44943  0.72620  1.0000
  H   H1396     1.0  0.84013  0.22342  0.69956  1.0000
  H   H1397     1.0  0.54518  0.14908  0.72052  1.0000
  H   H1398     1.0  0.55084  0.20095  0.68674  1.0000
  S   S234      1.0  0.85036  0.30616  0.72707  1.0000
  H   H1399     1.0  0.64860  0.00160  0.61956  1.0000
  Fe  Fe120     1.0  0.93626  0.13151  0.49783  1.0000
  Fe  Fe121     1.0  0.88710  0.29779  0.73452  1.0000
  S   S235      1.0  0.94193  0.17304  0.50154  1.0000
  C   C813      1.0  0.87552  0.01880  0.50199  1.0000
  C   C814      1.0  0.85576  0.02820  0.49676  1.0000
  C   C815      1.0  0.86195  0.05476  0.49377  1.0000
  C   C816      1.0  0.88825  0.07207  0.49571  1.0000
  H   H1400     1.0  0.85111  0.12133  0.60837  1.0000
  H   H1401     1.0  0.83148  0.16912  0.66308  1.0000
  H   H1402     1.0  0.83573  0.01490  0.49482  1.0000
  C   C817      1.0  0.73702  0.45208  0.70089  1.0000
  H   H1403     1.0  0.95273  0.43858  0.71140  1.0000
  H   H1404     1.0  0.54608  0.13151  0.69711  1.0000
  C   C818      1.0  0.58129  0.08447  0.71412  1.0000
  C   C819      1.0  0.56230  0.09759  0.71493  1.0000
  C   C820      1.0  0.53427  0.08489  0.71270  1.0000
  C   C821      1.0  0.52493  0.05897  0.70946  1.0000
  C   C822      1.0  0.54390  0.04579  0.70871  1.0000
  C   C823      1.0  0.57191  0.05838  0.71112  1.0000
  H   H1405     1.0  0.49127  0.44584  0.71807  1.0000
  H   H1406     1.0  0.51986  0.09508  0.71347  1.0000
  H   H1407     1.0  0.53692  0.02571  0.70623  1.0000
  H   H1408     1.0  0.58630  0.04804  0.71044  1.0000
  C   C824      1.0  0.56471  0.41686  0.71525  1.0000
  C   C825      1.0  0.55292  0.39152  0.72077  1.0000
  C   C826      1.0  0.52832  0.37411  0.71625  1.0000
  C   C827      1.0  0.51525  0.38170  0.70601  1.0000
  C   C828      1.0  0.52715  0.40696  0.70041  1.0000
  C   C829      1.0  0.55161  0.42451  0.70504  1.0000
  H   H1409     1.0  0.90714  0.06925  0.60100  1.0000
  H   H1410     1.0  0.51969  0.35467  0.72056  1.0000
  H   H1411     1.0  0.51734  0.41302  0.69244  1.0000
  H   H1412     1.0  0.56040  0.44386  0.70065  1.0000
  C   C830      1.0  0.88740  0.39715  0.70815  1.0000
  C   C831      1.0  0.87373  0.41524  0.70927  1.0000
  C   C832      1.0  0.88836  0.44152  0.71138  1.0000
  C   C833      1.0  0.91693  0.45009  0.71220  1.0000
  C   C834      1.0  0.93061  0.43206  0.71096  1.0000
  C   C835      1.0  0.91595  0.40570  0.70903  1.0000
  H   H1413     1.0  0.91448  0.13361  0.56707  1.0000
  H   H1414     1.0  0.87767  0.45524  0.71224  1.0000
  H   H1415     1.0  0.93104  0.09975  0.60481  1.0000
  H   H1416     1.0  0.92679  0.39218  0.70786  1.0000
  C   C836      1.0  0.78596  0.21006  0.71764  1.0000
  C   C837      1.0  0.80453  0.19698  0.72013  1.0000
  C   C838      1.0  0.79520  0.16970  0.72152  1.0000
  C   C839      1.0  0.76723  0.15535  0.72053  1.0000
  C   C840      1.0  0.74859  0.16842  0.71822  1.0000
  C   C841      1.0  0.75798  0.19572  0.71674  1.0000
  H   H1417     1.0  0.82607  0.20786  0.72097  1.0000
  C   C842      1.0  0.66179  0.00650  0.65205  1.0000
  S   S236      1.0  0.97563  0.17651  0.64463  1.0000
  C   C843      1.0  0.93406  0.23789  0.65835  1.0000
  H   H1418     1.0  0.84313  0.15752  0.69217  1.0000
  C   C844      1.0  0.91989  0.26480  0.67279  1.0000
  C   C845      1.0  0.92861  0.25292  0.68314  1.0000
  C   C846      1.0  0.81081  0.23422  0.68115  1.0000
  S   S237      1.0  0.93059  0.15678  0.59066  1.0000
  H   H1419     1.0  0.78724  0.40032  0.71828  1.0000
  C   C847      1.0  0.85480  0.21828  0.69358  1.0000
  H   H1420     1.0  0.78285  0.98518  0.59303  1.0000
  S   S238      1.0  0.70619  0.05552  0.73088  1.0000
  H   H1421     1.0  0.78024  0.04571  0.68614  1.0000
  C   C848      1.0  0.88661  0.11901  0.52738  1.0000
  H   H1422     1.0  0.88885  0.08994  0.61724  1.0000
  H   H1423     1.0  0.82928  0.45755  0.68327  1.0000
  C   C849      1.0  0.69684  0.00855  0.68994  1.0000
  C   C850      1.0  0.70854  0.03101  0.68216  1.0000
  C   C851      1.0  0.72427  0.03034  0.67149  1.0000
  S   S239      1.0  0.48976  0.04218  0.70658  1.0000
  H   H1424     1.0  0.70553  0.04892  0.68440  1.0000
  H   H1425     1.0  0.73336  0.04790  0.66561  1.0000
  C   C852      1.0  0.87515  0.02969  0.63082  1.0000
  C   C853      1.0  0.90188  0.04413  0.62667  1.0000
  C   C854      1.0  0.91655  0.06761  0.63205  1.0000
  C   C855      1.0  0.90458  0.07670  0.64167  1.0000
  C   C856      1.0  0.87809  0.06193  0.64604  1.0000
  C   C857      1.0  0.86328  0.03862  0.64054  1.0000
  H   H1426     1.0  0.91118  0.03723  0.61919  1.0000
  H   H1427     1.0  0.93711  0.07869  0.62876  1.0000
  H   H1428     1.0  0.86887  0.06873  0.65358  1.0000
  H   H1429     1.0  0.84266  0.02762  0.64378  1.0000
  H   H1430     1.0  0.91340  0.09777  0.59037  1.0000
  C   C858      1.0  0.72855  0.00726  0.66844  1.0000
  H   H1431     1.0  0.80098  0.00414  0.57178  1.0000
  H   H1432     1.0  0.56942  0.11768  0.71733  1.0000
  H   H1433     1.0  0.80493  0.18538  0.69403  1.0000
  Fe  Fe122     1.0  0.95152  0.19819  0.63426  1.0000
  C   C859      1.0  0.83012  0.05148  0.52847  1.0000
  H   H1434     1.0  0.91142  0.28002  0.67422  1.0000
  H   H1435     1.0  0.93845  0.37566  0.72843  1.0000
  H   H1436     1.0  0.86738  0.02764  0.54495  1.0000
  C   C860      1.0  0.94397  0.15629  0.55299  1.0000
  C   C861      1.0  0.85005  0.05895  0.60339  1.0000
  H   H1437     1.0  0.78113  0.09881  0.69621  1.0000
  C   C862      1.0  0.87617  0.03484  0.53550  1.0000
  H   H1438     1.0  0.83510  0.12129  0.58664  1.0000
  H   H1439     1.0  0.81455  0.14129  0.68254  1.0000
  C   C863      1.0  0.76141  0.08274  0.69560  1.0000
  H   H1440     1.0  0.82099  0.24776  0.68842  1.0000
  H   H1441     1.0  0.85182  0.05214  0.61323  1.0000
  C   C864      1.0  0.51054  0.15607  0.68461  1.0000
  H   H1442     1.0  0.84298  0.10458  0.52642  1.0000
  C   C865      1.0  0.91097  0.09046  0.60034  1.0000
  C   C866      1.0  0.82577  0.47205  0.68932  1.0000
  H   H1443     1.0  0.87931  0.11682  0.58696  1.0000
  S   S240      1.0  0.74930  0.00812  0.65504  1.0000
  C   C867      1.0  0.80295  0.05711  0.52906  1.0000
  H   H1444     1.0  0.78990  0.02131  0.71950  1.0000
  C   C868      1.0  0.49760  0.12670  0.68247  1.0000
  H   H1445     1.0  0.51036  0.11500  0.68561  1.0000
  H   H1446     1.0  0.81769  0.04802  0.58928  1.0000
  H   H1447     1.0  0.88501  0.19842  0.69779  1.0000
  H   H1448     1.0  0.81550  0.02389  0.60148  1.0000
  S   S241      1.0  0.86637  0.98602  0.50733  1.0000
  C   C869      1.0  0.83094  0.22356  0.67452  1.0000
  H   H1449     1.0  0.72700  0.15749  0.71744  1.0000
  N   N60       1.0  0.84078  0.20454  0.68226  1.0000
  H   H1450     1.0  0.78629  0.04024  0.52557  1.0000
  S   S242      1.0  0.59532  0.43800  0.72177  1.0000
  H   H1451     1.0  0.80929  0.14625  0.69849  1.0000
  C   C870      1.0  0.90873  0.06262  0.50016  1.0000
  C   C871      1.0  0.90230  0.03592  0.50336  1.0000
  H   H1452     1.0  0.82164  0.09384  0.60612  1.0000
  N   N61       1.0  0.77818  0.04740  0.70638  1.0000
  C   C872      1.0  0.77495  0.03237  0.69471  1.0000
  C   C873      1.0  0.75756  0.06133  0.70617  1.0000
  C   C874      1.0  0.77310  0.02952  0.71807  1.0000
  C   C875      1.0  0.80705  0.06636  0.70659  1.0000
  H   H1453     1.0  0.49454  0.12390  0.67226  1.0000
  C   C876      1.0  0.63295  0.98446  0.62414  1.0000
  H   H1454     1.0  0.88725  0.12650  0.53686  1.0000
  H   H1455     1.0  0.74540  0.46940  0.69432  1.0000
  H   H1456     1.0  0.66492  0.02749  0.65278  1.0000
  H   H1457     1.0  0.75941  0.07495  0.68614  1.0000
  H   H1458     1.0  0.49443  0.15706  0.70808  1.0000
  S   S243      1.0  0.93746  0.22971  0.64258  1.0000
  C   C877      1.0  0.52830  0.15722  0.71986  1.0000
  H   H1459     1.0  0.52069  0.16642  0.67573  1.0000
  H   H1460     1.0  0.82196  0.05584  0.70787  1.0000
  H   H1461     1.0  0.81273  0.07765  0.69741  1.0000
  H   H1462     1.0  0.88789  0.13543  0.52051  1.0000
  C   C878      1.0  0.78276  0.39583  0.70833  1.0000
  H   H1463     1.0  0.74137  0.41574  0.70665  1.0000
  H   H1464     1.0  0.80333  0.07425  0.52294  1.0000
  H   H1465     1.0  0.71477  0.98331  0.63074  1.0000
  H   H1466     1.0  0.89656  0.07535  0.53856  1.0000
  H   H1467     1.0  0.73715  0.45833  0.71062  1.0000
  H   H1468     1.0  0.85963  0.09218  0.51515  1.0000
  H   H1469     1.0  0.50449  0.12965  0.70712  1.0000
  H   H1470     1.0  0.49290  0.16306  0.68567  1.0000
  H   H1471     1.0  0.50423  0.20307  0.69163  1.0000
  C   C879      1.0  0.79327  0.42037  0.69938  1.0000
  H   H1472     1.0  0.74348  0.20574  0.71486  1.0000
  H   H1473     1.0  0.75717  0.07023  0.71526  1.0000
  S   S244      1.0  0.48417  0.36039  0.69992  1.0000
  C   C880      1.0  0.96762  0.17786  0.55055  1.0000
  C   C881      1.0  0.86224  0.09795  0.58849  1.0000
  N   N62       1.0  0.78249  0.44206  0.70193  1.0000
  H   H1474     1.0  0.50022  0.06443  0.73347  1.0000
  H   H1475     1.0  0.83511  0.09825  0.71642  1.0000
  C   C882      1.0  0.78092  0.98942  0.57277  1.0000
  H   H1476     1.0  0.78039  0.46723  0.71650  1.0000
  H   H1477     1.0  0.81764  0.08721  0.58453  1.0000
  H   H1478     1.0  0.80299  0.24568  0.67413  1.0000
  H   H1479     1.0  0.95080  0.21049  0.66729  1.0000
  H   H1480     1.0  0.80123  0.09945  0.71590  1.0000
  H   H1481     1.0  0.80541  0.05081  0.60497  1.0000
  H   H1482     1.0  0.93379  0.14494  0.54532  1.0000
  H   H1483     1.0  0.67900  0.01752  0.63352  1.0000
  C   C883      1.0  0.81631  0.18100  0.68611  1.0000
  H   H1484     1.0  0.80927  0.07632  0.72653  1.0000
  H   H1485     1.0  0.75328  0.02015  0.69354  1.0000
  C   C884      1.0  0.86859  0.20346  0.70248  1.0000
  C   C885      1.0  0.84249  0.05501  0.55674  1.0000
  S   S245      1.0  0.89414  0.10537  0.49317  1.0000
  H   H1486     1.0  0.86019  0.10141  0.62871  1.0000
  H   H1487     1.0  0.53155  0.22753  0.69854  1.0000
  C   C886      1.0  0.92282  0.25747  0.66050  1.0000
  H   H1488     1.0  0.79715  0.05925  0.53883  1.0000
  H   H1489     1.0  0.92925  0.07591  0.50150  1.0000
  H   H1490     1.0  0.73647  0.04740  0.70518  1.0000
  H   H1491     1.0  0.79357  0.38219  0.70598  1.0000
  H   H1492     1.0  0.90507  0.11370  0.52567  1.0000
  H   H1493     1.0  0.74746  0.42413  0.69031  1.0000
  H   H1494     1.0  0.83528  0.08811  0.54728  1.0000
  H   H1495     1.0  0.83390  0.04839  0.51849  1.0000
  H   H1496     1.0  0.71189  0.99181  0.60859  1.0000
  H   H1497     1.0  0.82974  0.03635  0.55311  1.0000
  H   H1498     1.0  0.86096  0.05256  0.56116  1.0000
  H   H1499     1.0  0.82769  0.47889  0.71753  1.0000
  C   C887      1.0  0.97033  0.18562  0.57306  1.0000
  H   H1500     1.0  0.84019  0.10731  0.57256  1.0000
  H   H1501     1.0  0.86291  0.05083  0.59775  1.0000
  H   H1502     1.0  0.82578  0.10084  0.62804  1.0000
  C   C888      1.0  0.75196  0.43209  0.69979  1.0000
  H   H1503     1.0  0.84815  0.20034  0.65475  1.0000
  C   C889      1.0  0.82038  0.04513  0.59948  1.0000
  H   H1504     1.0  0.86643  0.17847  0.65781  1.0000
  H   H1505     1.0  0.69827  0.01323  0.61595  1.0000
  C   C890      1.0  0.56776  0.15774  0.68189  1.0000
  H   H1506     1.0  0.80142  0.17628  0.67829  1.0000
  C   C891      1.0  0.55277  0.15276  0.69473  1.0000
  H   H1507     1.0  0.78841  0.41421  0.68961  1.0000
  C   C892      1.0  0.94234  0.22570  0.66872  1.0000
  H   H1508     1.0  0.81593  0.42675  0.69976  1.0000
  H   H1509     1.0  0.81585  0.45536  0.73054  1.0000
  H   H1510     1.0  0.89654  0.03232  0.53510  1.0000
  H   H1511     1.0  0.83242  0.07138  0.62610  1.0000
  C   C893      1.0  0.83710  0.10347  0.58287  1.0000
  Fe  Fe123     1.0  0.94647  0.14106  0.63605  1.0000
  Fe  Fe124     1.0  0.94980  0.16790  0.60989  1.0000
  H   H1512     1.0  0.85342  0.18616  0.70728  1.0000
  H   H1513     1.0  0.57575  0.17867  0.67890  1.0000
  H   H1514     1.0  0.79275  0.21860  0.68534  1.0000
  H   H1515     1.0  0.86740  0.08432  0.58238  1.0000
  N   N63       1.0  0.86036  0.08825  0.60214  1.0000
  H   H1516     1.0  0.88847  0.06799  0.52275  1.0000
  C   C894      1.0  0.84292  0.09967  0.60959  1.0000
  H   H1517     1.0  0.86464  0.36906  0.73402  1.0000
  H   H1518     1.0  0.86959  0.09229  0.55029  1.0000
  N   N64       1.0  0.52927  0.16303  0.69567  1.0000
  C   C895      1.0  0.82174  0.15547  0.68994  1.0000
  H   H1519     1.0  0.87885  0.21636  0.71001  1.0000
  H   H1520     1.0  0.71514  0.44280  0.69848  1.0000
  C   C896      1.0  0.93985  0.23335  0.68099  1.0000
  H   H1521     1.0  0.82605  0.03216  0.53337  1.0000
  C   C897      1.0  0.51283  0.15115  0.70742  1.0000
  S   S246      1.0  0.79572  0.99443  0.51188  1.0000
  H   H1522     1.0  0.84866  0.24067  0.67098  1.0000
  C   C898      1.0  0.94620  0.16458  0.57545  1.0000
  H   H1523     1.0  0.55765  0.19832  0.70290  1.0000
  C   C899      1.0  0.85083  0.18578  0.66183  1.0000
  H   H1524     1.0  0.55448  0.14660  0.67451  1.0000
  H   H1525     1.0  0.87911  0.21617  0.67189  1.0000
  H   H1526     1.0  0.85170  0.40884  0.70850  1.0000
  C   C900      1.0  0.54097  0.19226  0.69593  1.0000
  H   H1527     1.0  0.63965  0.99632  0.65068  1.0000
  H   H1528     1.0  0.91785  0.02869  0.50723  1.0000
  H   H1529     1.0  0.72783  0.01345  0.71888  1.0000
  H   H1530     1.0  0.74501  0.09139  0.69657  1.0000
  H   H1531     1.0  0.82011  0.21453  0.66603  1.0000
  C   C901      1.0  0.86146  0.19824  0.67430  1.0000
  H   H1532     1.0  0.91641  0.26713  0.65258  1.0000
  H   H1533     1.0  0.80968  0.15965  0.72338  1.0000
  H   H1534     1.0  0.51378  0.14792  0.72776  1.0000
  H   H1535     1.0  0.87085  0.18525  0.67935  1.0000
  C   C902      1.0  0.88883  0.09767  0.60744  1.0000
  H   H1536     1.0  0.70135  0.01065  0.64428  1.0000
  H   H1537     1.0  0.82952  0.05877  0.56414  1.0000
  C   C903      1.0  0.84049  0.09266  0.62387  1.0000
  H   H1538     1.0  0.77342  0.43514  0.72204  1.0000
  S   S247      1.0  0.64075  0.04194  0.72721  1.0000
  S   S248      1.0  0.96305  0.12615  0.51365  1.0000
  H   H1539     1.0  0.58562  0.15086  0.68266  1.0000
  C   C904      1.0  0.87989  0.06376  0.53248  1.0000
  H   H1540     1.0  0.94669  0.22400  0.68889  1.0000
  H   H1541     1.0  0.56864  0.16135  0.70180  1.0000
  C   C905      1.0  0.78696  0.45016  0.71527  1.0000
  C   C906      1.0  0.69451  0.99245  0.61449  1.0000
  C   C907      1.0  0.67975  0.00331  0.64116  1.0000
  H   H1542     1.0  0.51094  0.20067  0.70827  1.0000
  H   H1543     1.0  0.61914  0.99098  0.63003  1.0000
  H   H1544     1.0  0.86354  0.02228  0.52835  1.0000
  S   S249      1.0  0.77765  0.99651  0.54714  1.0000
  C   C908      1.0  0.81646  0.45811  0.72013  1.0000
  H   H1545     1.0  0.66799  0.99977  0.66121  1.0000
  H   H1546     1.0  0.52616  0.45920  0.72239  1.0000
  N   N65       1.0  0.85488  0.07189  0.53350  1.0000
  H   H1547     1.0  0.82818  0.44606  0.71692  1.0000
  H   H1548     1.0  0.76059  0.38527  0.70721  1.0000
  H   H1549     1.0  0.56293  0.38530  0.72862  1.0000
  C   C909      1.0  0.81311  0.08602  0.71700  1.0000
  C   C910      1.0  0.85974  0.09644  0.52525  1.0000
  Fe  Fe125     1.0  0.62756  0.47913  0.72022  1.0000
  C   C911      1.0  0.52043  0.20623  0.69877  1.0000
  S   S250      1.0  0.97320  0.14396  0.61906  1.0000
  H   H1550     1.0  0.78434  0.46185  0.68354  1.0000
  H   H1551     1.0  0.53628  0.17834  0.72131  1.0000
  H   H1552     1.0  0.77313  0.04046  0.72657  1.0000
  H   H1553     1.0  0.84619  0.06196  0.49014  1.0000
  C   C912      1.0  0.74567  0.00663  0.71870  1.0000
  H   H1554     1.0  0.51425  0.41406  0.72781  1.0000
  H   H1555     1.0  0.81463  0.02574  0.69359  1.0000
  H   H1556     1.0  0.50991  0.02467  0.73143  1.0000
  C   C913      1.0  0.50414  0.42432  0.73377  1.0000
  H   H1557     1.0  0.90156  0.40935  0.73407  1.0000
  H   H1558     1.0  0.50045  0.46332  0.73228  1.0000
  H   H1559     1.0  0.78758  0.00435  0.68501  1.0000
  Fe  Fe126     1.0  0.97641  0.18191  0.48740  1.0000
  H   H1560     1.0  0.94842  0.41772  0.73414  1.0000
  H   H1561     1.0  0.78766  0.99927  0.70165  1.0000
  H   H1562     1.0  0.74463  0.99479  0.72761  1.0000
  H   H1563     1.0  0.74344  0.99339  0.71096  1.0000
  S   S251      1.0  0.97784  0.20580  0.61661  1.0000
  C   C914      1.0  0.71638  0.98465  0.67606  1.0000
  C   C915      1.0  0.70052  0.98531  0.68671  1.0000
  H   H1564     1.0  0.67578  0.98395  0.60896  1.0000
  H   H1565     1.0  0.79235  0.48285  0.69610  1.0000
  S   S252      1.0  0.93635  0.48286  0.71503  1.0000
  H   H1566     1.0  0.87183  0.35792  0.74918  1.0000
  S   S253      1.0  0.53118  0.35025  0.94994  1.0000
  H   H1567     1.0  0.64002  0.04233  0.91631  1.0000
  Fe  Fe127     1.0  0.64301  0.07431  0.95560  1.0000
  S   S254      1.0  0.65135  0.03739  0.95311  1.0000
  S   S255      1.0  0.60295  0.07444  0.94730  1.0000
  Fe  Fe128     1.0  0.69980  0.10082  0.96629  1.0000
  S   S256      1.0  0.71154  0.06479  0.96486  1.0000
  S   S257      1.0  0.72531  0.14177  0.97211  1.0000
  Fe  Fe129     1.0  0.69236  0.06276  0.94571  1.0000
  S   S258      1.0  0.71172  0.05460  0.92803  1.0000
  Fe  Fe130     1.0  0.66877  0.04198  0.97259  1.0000
  S   S259      1.0  0.68294  0.09953  0.94676  1.0000
  Fe  Fe131     1.0  0.87681  0.25535  0.96738  1.0000
  S   S260      1.0  0.91691  0.26798  0.95637  1.0000
  H   H1568     1.0  0.88319  0.36177  0.86182  1.0000
  Fe  Fe132     1.0  0.88424  0.31190  0.97250  1.0000
  S   S261      1.0  0.92310  0.32718  0.96125  1.0000
  H   H1569     1.0  0.51200  0.36623  0.91207  1.0000
  Fe  Fe133     1.0  0.90170  0.29838  0.94712  1.0000
  S   S262      1.0  0.89665  0.31156  0.92678  1.0000
  Fe  Fe134     1.0  0.93452  0.29579  0.97186  1.0000
  S   S263      1.0  0.86169  0.28534  0.95780  1.0000
  C   C916      1.0  0.61319  0.07313  0.77465  1.0000
  S   S264      1.0  0.60586  0.41641  0.84348  1.0000
  Fe  Fe135     1.0  0.68056  0.07393  0.85803  1.0000
  S   S265      1.0  0.68170  0.11277  0.86399  1.0000
  S   S266      1.0  0.66628  0.04030  0.87261  1.0000
  Fe  Fe136     1.0  0.70347  0.09501  0.83133  1.0000
  S   S267      1.0  0.70723  0.13558  0.83598  1.0000
  S   S268      1.0  0.72057  0.09671  0.81148  1.0000
  Fe  Fe137     1.0  0.72294  0.12682  0.85462  1.0000
  S   S269      1.0  0.75924  0.15242  0.86470  1.0000
  Fe  Fe138     1.0  0.66567  0.11719  0.84482  1.0000
  S   S270      1.0  0.63451  0.13654  0.84080  1.0000
  S   S271      1.0  0.72308  0.08777  0.84950  1.0000
  S   S272      1.0  0.66066  0.07690  0.83932  1.0000
  S   S273      1.0  0.51364  0.05815  0.83814  1.0000
  Fe  Fe139     1.0  0.87389  0.27490  0.82643  1.0000
  S   S274      1.0  0.85125  0.30332  0.82551  1.0000
  S   S275      1.0  0.87750  0.25365  0.80903  1.0000
  Fe  Fe140     1.0  0.88145  0.27872  0.85554  1.0000
  S   S276      1.0  0.85942  0.30746  0.85628  1.0000
  S   S277      1.0  0.89859  0.26512  0.87337  1.0000
  Fe  Fe141     1.0  0.82996  0.28185  0.84316  1.0000
  S   S278      1.0  0.78435  0.26825  0.84589  1.0000
  Fe  Fe142     1.0  0.88335  0.32576  0.83867  1.0000
  S   S279      1.0  0.90790  0.36829  0.83595  1.0000
  S   S280      1.0  0.85038  0.25168  0.84332  1.0000
  S   S281      1.0  0.90764  0.29869  0.83861  1.0000
  S   S282      1.0  0.84107  0.44502  0.84043  1.0000
  H   H1570     1.0  0.76138  0.15768  0.81588  1.0000
  H   H1571     1.0  0.78048  0.12282  0.81549  1.0000
  S   S283      1.0  0.89587  0.31130  0.75446  1.0000
  C   C917      1.0  0.52265  0.43504  0.94998  1.0000
  H   H1572     1.0  0.96695  0.41422  0.74738  1.0000
  S   S284      1.0  0.66001  0.04341  0.76268  1.0000
  H   H1573     1.0  0.78591  0.17761  0.80468  1.0000
  C   C918      1.0  0.88281  0.26984  0.79389  1.0000
  C   C919      1.0  0.54472  0.05323  0.74685  1.0000
  C   C920      1.0  0.89087  0.29460  0.76947  1.0000
  C   C921      1.0  0.88887  0.30822  0.78001  1.0000
  C   C922      1.0  0.88476  0.29591  0.79215  1.0000
  H   H1574     1.0  0.89046  0.32842  0.77882  1.0000
  H   H1575     1.0  0.88335  0.30669  0.80017  1.0000
  C   C923      1.0  0.88892  0.38921  0.83705  1.0000
  C   C924      1.0  0.90273  0.41605  0.83654  1.0000
  C   C925      1.0  0.88816  0.43322  0.83770  1.0000
  C   C926      1.0  0.85971  0.42367  0.83936  1.0000
  C   C927      1.0  0.84583  0.39678  0.83972  1.0000
  C   C928      1.0  0.86043  0.37952  0.83861  1.0000
  H   H1576     1.0  0.92476  0.42358  0.83528  1.0000
  H   H1577     1.0  0.89896  0.45380  0.83708  1.0000
  H   H1578     1.0  0.82378  0.38928  0.84092  1.0000
  H   H1579     1.0  0.84965  0.35876  0.83900  1.0000
  C   C929      1.0  0.70296  0.08196  0.79805  1.0000
  C   C930      1.0  0.71189  0.09372  0.78605  1.0000
  C   C931      1.0  0.69899  0.08222  0.77512  1.0000
  C   C932      1.0  0.67728  0.05857  0.77609  1.0000
  C   C933      1.0  0.66850  0.04674  0.78809  1.0000
  C   C934      1.0  0.68121  0.05838  0.79901  1.0000
  H   H1580     1.0  0.72893  0.11179  0.78518  1.0000
  H   H1581     1.0  0.70602  0.09150  0.76595  1.0000
  H   H1582     1.0  0.65190  0.02832  0.78893  1.0000
  H   H1583     1.0  0.67456  0.04882  0.80817  1.0000
  C   C935      1.0  0.76315  0.18530  0.86191  1.0000
  C   C936      1.0  0.78729  0.20427  0.86550  1.0000
  C   C937      1.0  0.79294  0.23028  0.86132  1.0000
  C   C938      1.0  0.77442  0.23733  0.85360  1.0000
  C   C939      1.0  0.74917  0.21874  0.85098  1.0000
  C   C940      1.0  0.74353  0.19267  0.85514  1.0000
  H   H1584     1.0  0.80232  0.19875  0.87092  1.0000
  H   H1585     1.0  0.81202  0.24480  0.86376  1.0000
  H   H1586     1.0  0.73465  0.22422  0.84516  1.0000
  H   H1587     1.0  0.72447  0.17819  0.85268  1.0000
  C   C941      1.0  0.60106  0.11451  0.84039  1.0000
  C   C942      1.0  0.58041  0.12311  0.83549  1.0000
  C   C943      1.0  0.55347  0.10593  0.83507  1.0000
  C   C944      1.0  0.54715  0.07989  0.83923  1.0000
  C   C945      1.0  0.56786  0.07119  0.84408  1.0000
  C   C946      1.0  0.59477  0.08860  0.84483  1.0000
  H   H1588     1.0  0.58520  0.14310  0.83196  1.0000
  H   H1589     1.0  0.53777  0.11278  0.83124  1.0000
  H   H1590     1.0  0.56302  0.05106  0.84737  1.0000
  H   H1591     1.0  0.61053  0.08193  0.84885  1.0000
  C   C947      1.0  0.57027  0.40569  0.84202  1.0000
  C   C948      1.0  0.55680  0.38001  0.83897  1.0000
  C   C949      1.0  0.52835  0.37080  0.83765  1.0000
  C   C950      1.0  0.51317  0.38704  0.83969  1.0000
  C   C951      1.0  0.52658  0.41273  0.84282  1.0000
  C   C952      1.0  0.55521  0.42214  0.84391  1.0000
  H   H1592     1.0  0.56847  0.36730  0.83744  1.0000
  H   H1593     1.0  0.51830  0.35126  0.83485  1.0000
  H   H1594     1.0  0.51483  0.42532  0.84441  1.0000
  H   H1595     1.0  0.56555  0.44193  0.84639  1.0000
  C   C953      1.0  0.88663  0.37378  0.97510  1.0000
  C   C954      1.0  0.82297  0.42286  0.95371  1.0000
  C   C955      1.0  0.90188  0.42071  0.97702  1.0000
  C   C956      1.0  0.91318  0.42466  0.96488  1.0000
  C   C957      1.0  0.91070  0.40321  0.95781  1.0000
  C   C958      1.0  0.89718  0.37790  0.96283  1.0000
  H   H1596     1.0  0.76745  0.47144  0.96021  1.0000
  H   H1597     1.0  0.52807  0.38869  0.89390  1.0000
  H   H1598     1.0  0.91920  0.40617  0.94837  1.0000
  H   H1599     1.0  0.89455  0.36161  0.95709  1.0000
  C   C959      1.0  0.89526  0.29576  0.91259  1.0000
  C   C960      1.0  0.91189  0.28092  0.91028  1.0000
  C   C961      1.0  0.91228  0.27121  0.89831  1.0000
  C   C962      1.0  0.89607  0.27618  0.88854  1.0000
  C   C963      1.0  0.87867  0.29014  0.89103  1.0000
  C   C964      1.0  0.87852  0.30010  0.90292  1.0000
  H   H1600     1.0  0.55953  0.40657  0.87612  1.0000
  C   C965      1.0  0.89382  0.47356  0.79521  1.0000
  H   H1601     1.0  0.86562  0.29364  0.88372  1.0000
  H   H1602     1.0  0.86557  0.31154  0.90461  1.0000
  C   C966      1.0  0.76064  0.16104  0.96989  1.0000
  C   C967      1.0  0.81689  0.19295  0.96770  1.0000
  C   C968      1.0  0.79703  0.20359  0.97107  1.0000
  C   C969      1.0  0.76918  0.18768  0.97224  1.0000
  H   H1603     1.0  0.96198  0.40498  0.96782  1.0000
  C   C970      1.0  0.49290  0.35042  0.90986  1.0000
  C   C971      1.0  0.69463  0.05030  0.91353  1.0000
  C   C972      1.0  0.68861  0.02643  0.90801  1.0000
  C   C973      1.0  0.67912  0.02353  0.89565  1.0000
  C   C974      1.0  0.67680  0.04478  0.88839  1.0000
  C   C975      1.0  0.68268  0.06874  0.89389  1.0000
  C   C976      1.0  0.69093  0.07131  0.90653  1.0000
  H   H1604     1.0  0.48334  0.38452  0.88972  1.0000
  H   H1605     1.0  0.54261  0.08657  0.80238  1.0000
  H   H1606     1.0  0.57934  0.39613  0.80810  1.0000
  H   H1607     1.0  0.69543  0.08982  0.91073  1.0000
  C   C977      1.0  0.53192  0.07347  0.97275  1.0000
  C   C978      1.0  0.55859  0.08084  0.97746  1.0000
  C   C979      1.0  0.58067  0.08128  0.96973  1.0000
  C   C980      1.0  0.57610  0.07454  0.95726  1.0000
  C   C981      1.0  0.54954  0.06769  0.95250  1.0000
  C   C982      1.0  0.52749  0.06707  0.96022  1.0000
  S   S285      1.0  0.93192  0.45590  0.95851  1.0000
  H   H1608     1.0  0.60124  0.08713  0.97336  1.0000
  H   H1609     1.0  0.54591  0.06265  0.94283  1.0000
  H   H1610     1.0  0.50704  0.06157  0.95648  1.0000
  C   C983      1.0  0.57882  0.41773  0.97368  1.0000
  C   C984      1.0  0.55232  0.40175  0.97747  1.0000
  C   C985      1.0  0.53732  0.38103  0.97025  1.0000
  C   C986      1.0  0.54916  0.37570  0.95943  1.0000
  C   C987      1.0  0.57592  0.39121  0.95587  1.0000
  C   C988      1.0  0.59048  0.41253  0.96279  1.0000
  H   H1611     1.0  0.63738  0.17932  0.87476  1.0000
  H   H1612     1.0  0.51669  0.36911  0.97309  1.0000
  H   H1613     1.0  0.58525  0.38713  0.94754  1.0000
  H   H1614     1.0  0.61096  0.42465  0.95985  1.0000
  S   S286      1.0  0.65817  0.07818  0.97538  1.0000
  H   H1615     1.0  0.58877  0.00034  0.96084  1.0000
  H   H1616     1.0  0.65610  0.09313  0.81300  1.0000
  H   H1617     1.0  0.82418  0.36683  0.98358  1.0000
  H   H1618     1.0  0.56565  0.01671  0.96470  1.0000
  H   H1619     1.0  0.61155  0.05344  0.88210  1.0000
  H   H1620     1.0  0.70574  0.46565  0.78250  1.0000
  H   H1621     1.0  0.84002  0.20870  0.82573  1.0000
  C   C989      1.0  0.92913  0.43028  0.75605  1.0000
  H   H1622     1.0  0.69177  0.01018  0.91325  1.0000
  H   H1623     1.0  0.55520  0.15677  0.90040  1.0000
  C   C990      1.0  0.62580  0.09129  0.78531  1.0000
  H   H1624     1.0  0.67460  0.00492  0.89152  1.0000
  H   H1625     1.0  0.81406  0.46756  0.81628  1.0000
  H   H1626     1.0  0.77042  0.48116  0.82684  1.0000
  H   H1627     1.0  0.93947  0.38742  0.90279  1.0000
  H   H1628     1.0  0.58136  0.10037  0.78708  1.0000
  C   C991      1.0  0.52017  0.32297  0.87501  1.0000
  H   H1629     1.0  0.61950  0.04793  0.92828  1.0000
  H   H1630     1.0  0.69907  0.47554  0.88987  1.0000
  H   H1631     1.0  0.95829  0.32812  0.87562  1.0000
  H   H1632     1.0  0.60157  0.06717  0.82275  1.0000
  C   C992      1.0  0.52039  0.09391  0.74585  1.0000
  H   H1633     1.0  0.58971  0.00184  0.92964  1.0000
  H   H1634     1.0  0.54347  0.40867  0.81655  1.0000
  C   C993      1.0  0.59923  0.02684  0.89895  1.0000
  H   H1635     1.0  0.57515  0.04315  0.88572  1.0000
  C   C994      1.0  0.78044  0.15056  0.96621  1.0000
  H   H1636     1.0  0.52555  0.09753  0.75578  1.0000
  H   H1637     1.0  0.80926  0.14253  0.80568  1.0000
  H   H1638     1.0  0.60830  0.47107  0.90264  1.0000
  N   N66       1.0  0.92307  0.40380  0.75085  1.0000
  H   H1639     1.0  0.54737  0.02743  0.98145  1.0000
  C   C995      1.0  0.91851  0.38435  0.76191  1.0000
  H   H1640     1.0  0.91112  0.35743  0.90594  1.0000
  H   H1641     1.0  0.77334  0.38646  0.95869  1.0000
  C   C996      1.0  0.50157  0.37529  0.74750  1.0000
  N   N67       1.0  0.92790  0.36369  0.87883  1.0000
  H   H1642     1.0  0.91152  0.45027  0.74140  1.0000
  H   H1643     1.0  0.91322  0.42987  0.76314  1.0000
  S   S287      1.0  0.65942  0.48313  0.95742  1.0000
  H   H1644     1.0  0.91179  0.36415  0.75898  1.0000
  H   H1645     1.0  0.90133  0.38505  0.76796  1.0000
  C   C997      1.0  0.55236  0.04753  0.90755  1.0000
  H   H1646     1.0  0.52946  0.45593  0.79382  1.0000
  C   C998      1.0  0.60948  0.00798  0.92439  1.0000
  H   H1647     1.0  0.60844  0.99489  0.91669  1.0000
  H   H1648     1.0  0.53940  0.10028  0.73999  1.0000
  C   C999      1.0  0.85361  0.43078  0.95007  1.0000
  C   C1000     1.0  0.78322  0.39833  0.96668  1.0000
  S   S288      1.0  0.50202  0.17029  0.85082  1.0000
  H   H1649     1.0  0.48994  0.22016  0.77363  1.0000
  H   H1650     1.0  0.57211  0.11076  0.80805  1.0000
  H   H1651     1.0  0.75647  0.18803  0.76183  1.0000
  C   C1001     1.0  0.80783  0.24661  0.78477  1.0000
  N   N68       1.0  0.82768  0.22146  0.92526  1.0000
  C   C1002     1.0  0.79730  0.20754  0.92428  1.0000
  C   C1003     1.0  0.83941  0.23102  0.91228  1.0000
  C   C1004     1.0  0.83361  0.24456  0.93326  1.0000
  C   C1005     1.0  0.84052  0.20284  0.93126  1.0000
  C   C1006     1.0  0.78144  0.19847  0.93687  1.0000
  C   C1007     1.0  0.83745  0.20995  0.90293  1.0000
  C   C1008     1.0  0.81870  0.26399  0.92962  1.0000
  C   C1009     1.0  0.87213  0.21269  0.93156  1.0000
  H   H1652     1.0  0.78740  0.21971  0.91875  1.0000
  H   H1653     1.0  0.79324  0.18971  0.91900  1.0000
  H   H1654     1.0  0.86126  0.24330  0.91276  1.0000
  H   H1655     1.0  0.82909  0.24391  0.90771  1.0000
  H   H1656     1.0  0.82899  0.23824  0.94336  1.0000
  H   H1657     1.0  0.85585  0.25617  0.93291  1.0000
  H   H1658     1.0  0.83350  0.19773  0.94119  1.0000
  H   H1659     1.0  0.83376  0.18402  0.92663  1.0000
  H   H1660     1.0  0.78755  0.18315  0.94198  1.0000
  H   H1661     1.0  0.78372  0.21461  0.94310  1.0000
  H   H1662     1.0  0.75923  0.18969  0.93498  1.0000
  H   H1663     1.0  0.81593  0.19952  0.90042  1.0000
  H   H1664     1.0  0.84832  0.21962  0.89407  1.0000
  H   H1665     1.0  0.84748  0.19597  0.90638  1.0000
  H   H1666     1.0  0.79614  0.25509  0.93056  1.0000
  H   H1667     1.0  0.82449  0.27311  0.92004  1.0000
  H   H1668     1.0  0.82500  0.28012  0.93609  1.0000
  H   H1669     1.0  0.88152  0.21571  0.92203  1.0000
  H   H1670     1.0  0.87892  0.19785  0.93678  1.0000
  H   H1671     1.0  0.88043  0.23080  0.93662  1.0000
  C   C1010     1.0  0.59423  0.41612  0.80657  1.0000
  H   H1672     1.0  0.75799  0.46654  0.85446  1.0000
  H   H1673     1.0  0.61302  0.41427  0.80239  1.0000
  C   C1011     1.0  0.62356  0.10769  0.80585  1.0000
  N   N69       1.0  0.77824  0.10336  0.89488  1.0000
  C   C1012     1.0  0.76250  0.07498  0.89307  1.0000
  C   C1013     1.0  0.79589  0.10420  0.90625  1.0000
  C   C1014     1.0  0.79608  0.11417  0.88336  1.0000
  C   C1015     1.0  0.75778  0.11709  0.89653  1.0000
  C   C1016     1.0  0.74663  0.06877  0.88069  1.0000
  C   C1017     1.0  0.78030  0.09309  0.91872  1.0000
  C   C1018     1.0  0.81663  0.14210  0.88359  1.0000
  C   C1019     1.0  0.76832  0.14477  0.90146  1.0000
  H   H1674     1.0  0.77643  0.06326  0.89354  1.0000
  H   H1675     1.0  0.74709  0.06651  0.90075  1.0000
  H   H1676     1.0  0.80950  0.12405  0.90801  1.0000
  H   H1677     1.0  0.81021  0.09331  0.90469  1.0000
  H   H1678     1.0  0.80813  0.10137  0.88127  1.0000
  H   H1679     1.0  0.78327  0.11435  0.87498  1.0000
  H   H1680     1.0  0.74721  0.11841  0.88756  1.0000
  H   H1681     1.0  0.74108  0.10536  0.90306  1.0000
  H   H1682     1.0  0.73291  0.08029  0.87898  1.0000
  H   H1683     1.0  0.76064  0.07149  0.87250  1.0000
  H   H1684     1.0  0.73347  0.04795  0.88121  1.0000
  H   H1685     1.0  0.79507  0.09673  0.92655  1.0000
  H   H1686     1.0  0.76502  0.10240  0.92093  1.0000
  H   H1687     1.0  0.77011  0.07170  0.91878  1.0000
  H   H1688     1.0  0.82905  0.14650  0.87476  1.0000
  H   H1689     1.0  0.83141  0.14476  0.89133  1.0000
  H   H1690     1.0  0.80616  0.15669  0.88357  1.0000
  H   H1691     1.0  0.76565  0.15900  0.89416  1.0000
  H   H1692     1.0  0.78991  0.15167  0.90427  1.0000
  H   H1693     1.0  0.75591  0.14560  0.90980  1.0000
  N   N70       1.0  0.57516  0.16286  0.86865  1.0000
  C   C1020     1.0  0.55203  0.14020  0.86403  1.0000
  C   C1021     1.0  0.56945  0.18755  0.86492  1.0000
  C   C1022     1.0  0.57736  0.16066  0.88272  1.0000
  C   C1023     1.0  0.60164  0.16295  0.86286  1.0000
  C   C1024     1.0  0.55215  0.11283  0.86841  1.0000
  C   C1025     1.0  0.57363  0.19643  0.85086  1.0000
  H   H1694     1.0  0.53383  0.14036  0.88818  1.0000
  C   C1026     1.0  0.62773  0.18522  0.86634  1.0000
  H   H1695     1.0  0.53176  0.14127  0.86677  1.0000
  H   H1696     1.0  0.55182  0.14094  0.85361  1.0000
  H   H1697     1.0  0.58201  0.20410  0.87035  1.0000
  H   H1698     1.0  0.54794  0.18549  0.86736  1.0000
  H   H1699     1.0  0.58401  0.14391  0.88571  1.0000
  H   H1700     1.0  0.59370  0.17802  0.88606  1.0000
  H   H1701     1.0  0.60576  0.14475  0.86563  1.0000
  H   H1702     1.0  0.60049  0.16269  0.85246  1.0000
  H   H1703     1.0  0.54936  0.10904  0.87871  1.0000
  H   H1704     1.0  0.53469  0.09801  0.86409  1.0000
  H   H1705     1.0  0.57079  0.10919  0.86530  1.0000
  H   H1706     1.0  0.59562  0.20358  0.84809  1.0000
  H   H1707     1.0  0.56211  0.18085  0.84472  1.0000
  H   H1708     1.0  0.56582  0.21287  0.84904  1.0000
  H   H1709     1.0  0.49934  0.21698  0.81060  1.0000
  Fe  Fe143     1.0  0.62671  0.47881  0.97205  1.0000
  C   C1027     1.0  0.85248  0.47349  0.80631  1.0000
  H   H1710     1.0  0.63414  0.09013  0.92293  1.0000
  H   H1711     1.0  0.62403  0.20349  0.86809  1.0000
  H   H1712     1.0  0.64263  0.19001  0.85835  1.0000
  S   S289      1.0  0.50420  0.07158  0.98265  1.0000
  C   C1028     1.0  0.59362  0.29359  0.97563  1.0000
  C   C1029     1.0  0.84996  0.45470  0.78514  1.0000
  H   H1713     1.0  0.86706  0.44022  0.95777  1.0000
  H   H1714     1.0  0.51821  0.43101  0.74177  1.0000
  S   S290      1.0  0.87082  0.34201  0.98171  1.0000
  H   H1715     1.0  0.74824  0.19121  0.74565  1.0000
  H   H1716     1.0  0.50609  0.42959  0.81479  1.0000
  C   C1030     1.0  0.54957  0.47118  0.81794  1.0000
  H   H1717     1.0  0.61176  0.05275  0.77711  1.0000
  H   H1718     1.0  0.54154  0.33653  0.87530  1.0000
  H   H1719     1.0  0.55260  0.27255  0.95345  1.0000
  C   C1031     1.0  0.88155  0.36966  0.74056  1.0000
  C   C1032     1.0  0.53872  0.39268  0.87443  1.0000
  H   H1720     1.0  0.49516  0.39565  0.81273  1.0000
  C   C1033     1.0  0.91260  0.47799  0.80677  1.0000
  H   H1721     1.0  0.83052  0.26225  0.74802  1.0000
  H   H1722     1.0  0.73678  0.45710  0.87646  1.0000
  H   H1723     1.0  0.62920  0.11156  0.78153  1.0000
  H   H1724     1.0  0.96836  0.35314  0.86287  1.0000
  H   H1725     1.0  0.96160  0.36012  0.89008  1.0000
  H   H1726     1.0  0.64660  0.09003  0.78675  1.0000
  H   H1727     1.0  0.54398  0.36663  0.88920  1.0000
  H   H1728     1.0  0.48235  0.06216  0.74781  1.0000
  H   H1729     1.0  0.63580  0.07478  0.90161  1.0000
  N   N71       1.0  0.53175  0.44043  0.93638  1.0000
  N   N72       1.0  0.54137  0.28221  0.97882  1.0000
  H   H1730     1.0  0.52249  0.38865  0.74497  1.0000
  C   C1034     1.0  0.73629  0.46424  0.85644  1.0000
  H   H1731     1.0  0.77527  0.13334  0.79997  1.0000
  C   C1035     1.0  0.80834  0.16637  0.96522  1.0000
  H   H1732     1.0  0.94666  0.36648  0.97914  1.0000
  H   H1733     1.0  0.77433  0.13011  0.96446  1.0000
  H   H1734     1.0  0.48489  0.11869  0.93140  1.0000
  H   H1735     1.0  0.87041  0.19304  0.81677  1.0000
  H   H1736     1.0  0.68073  0.08523  0.88845  1.0000
  H   H1737     1.0  0.87283  0.43465  0.81283  1.0000
  H   H1738     1.0  0.56856  0.06628  0.79092  1.0000
  C   C1036     1.0  0.58328  0.43332  0.79753  1.0000
  H   H1739     1.0  0.56100  0.40661  0.91707  1.0000
  C   C1037     1.0  0.55877  0.03362  0.75135  1.0000
  H   H1740     1.0  0.50567  0.22150  0.85685  1.0000
  H   H1741     1.0  0.77196  0.22657  0.82552  1.0000
  C   C1038     1.0  0.88890  0.26849  0.77118  1.0000
  H   H1742     1.0  0.92508  0.27762  0.91759  1.0000
  C   C1039     1.0  0.50411  0.22042  0.84676  1.0000
  H   H1743     1.0  0.49240  0.41221  0.91376  1.0000
  S   S291      1.0  0.97850  0.30983  0.97977  1.0000
  C   C1040     1.0  0.78788  0.13945  0.80844  1.0000
  H   H1744     1.0  0.84826  0.17902  0.80417  1.0000
  C   C1041     1.0  0.56402  0.09020  0.80546  1.0000
  C   C1042     1.0  0.88487  0.25618  0.78335  1.0000
  H   H1745     1.0  0.92571  0.26031  0.89652  1.0000
  C   C1043     1.0  0.48879  0.41455  0.92381  1.0000
  N   N73       1.0  0.86380  0.45846  0.79770  1.0000
  C   C1044     1.0  0.53767  0.41503  0.80720  1.0000
  H   H1746     1.0  0.53637  0.39901  0.80093  1.0000
  H   H1747     1.0  0.60944  0.28402  0.97568  1.0000
  N   N74       1.0  0.55919  0.44002  0.80232  1.0000
  H   H1748     1.0  0.80841  0.19815  0.76701  1.0000
  H   H1749     1.0  0.81956  0.40854  0.79884  1.0000
  H   H1750     1.0  0.49573  0.40734  0.96362  1.0000
  C   C1045     1.0  0.78349  0.16399  0.81307  1.0000
  H   H1751     1.0  0.57809  0.42299  0.78865  1.0000
  H   H1752     1.0  0.85723  0.22559  0.75109  1.0000
  H   H1753     1.0  0.66053  0.12590  0.81628  1.0000
  C   C1046     1.0  0.54829  0.45191  0.79133  1.0000
  H   H1754     1.0  0.66754  0.11892  0.80081  1.0000
  C   C1047     1.0  0.56558  0.27285  0.97881  1.0000
  H   H1755     1.0  0.58988  0.02143  0.87918  1.0000
  H   H1756     1.0  0.79506  0.24548  0.79326  1.0000
  C   C1048     1.0  0.50212  0.19726  0.84122  1.0000
  H   H1757     1.0  0.83822  0.26907  0.76376  1.0000
  H   H1758     1.0  0.59755  0.04388  0.79702  1.0000
  H   H1759     1.0  0.55278  0.01621  0.74569  1.0000
  C   C1049     1.0  0.88852  0.39527  0.98211  1.0000
  H   H1760     1.0  0.81896  0.44150  0.95435  1.0000
  Fe  Fe144     1.0  0.62816  0.45920  0.84028  1.0000
  H   H1761     1.0  0.49929  0.30742  0.78062  1.0000
  H   H1762     1.0  0.90259  0.46395  0.78824  1.0000
  H   H1763     1.0  0.82330  0.42028  0.81468  1.0000
  H   H1764     1.0  0.90388  0.43722  0.98256  1.0000
  C   C1050     1.0  0.58091  0.08527  0.79462  1.0000
  H   H1765     1.0  0.85920  0.41415  0.94701  1.0000
  H   H1766     1.0  0.77712  0.21396  0.77725  1.0000
  H   H1767     1.0  0.57463  0.04816  0.92484  1.0000
  H   H1768     1.0  0.51560  0.26448  0.95454  1.0000
  H   H1769     1.0  0.59295  0.07395  0.77176  1.0000
  H   H1770     1.0  0.82347  0.15784  0.96266  1.0000
  H   H1771     1.0  0.89102  0.25798  0.76318  1.0000
  C   C1051     1.0  0.86190  0.43234  0.80378  1.0000
  H   H1772     1.0  0.88372  0.23609  0.78463  1.0000
  H   H1773     1.0  0.93792  0.36162  0.74415  1.0000
  C   C1052     1.0  0.82922  0.19446  0.81875  1.0000
  H   H1774     1.0  0.96834  0.38821  0.87243  1.0000
  C   C1053     1.0  0.65360  0.11130  0.80905  1.0000
  H   H1775     1.0  0.58131  0.04294  0.75002  1.0000
  H   H1776     1.0  0.82725  0.20705  0.81051  1.0000
  C   C1054     1.0  0.95140  0.33638  0.86704  1.0000
  H   H1777     1.0  0.51611  0.30782  0.88280  1.0000
  H   H1778     1.0  0.50191  0.26677  0.77355  1.0000
  C   C1055     1.0  0.49899  0.40954  0.95327  1.0000
  C   C1056     1.0  0.94713  0.40476  0.74268  1.0000
  C   C1057     1.0  0.50003  0.19587  0.82819  1.0000
  H   H1779     1.0  0.48284  0.03142  0.76341  1.0000
  C   C1058     1.0  0.84915  0.18091  0.81449  1.0000
  H   H1780     1.0  0.84600  0.16171  0.81928  1.0000
  H   H1781     1.0  0.93794  0.37092  0.77763  1.0000
  N   N75       1.0  0.80132  0.17746  0.82362  1.0000
  H   H1782     1.0  0.63007  0.05812  0.80300  1.0000
  H   H1783     1.0  0.60442  0.07866  0.89784  1.0000
  H   H1784     1.0  0.81766  0.34338  0.97209  1.0000
  H   H1785     1.0  0.59330  0.98645  0.98241  1.0000
  H   H1786     1.0  0.49725  0.26471  0.97988  1.0000
  H   H1787     1.0  0.93164  0.41344  0.88530  1.0000
  H   H1788     1.0  0.55547  0.07144  0.75149  1.0000
  H   H1789     1.0  0.51283  0.32964  0.89935  1.0000
  H   H1790     1.0  0.82721  0.22157  0.74208  1.0000
  C   C1059     1.0  0.56939  0.45853  0.81265  1.0000
  H   H1791     1.0  0.61256  0.10574  0.81493  1.0000
  N   N76       1.0  0.60104  0.04402  0.90981  1.0000
  C   C1060     1.0  0.52808  0.37530  0.88643  1.0000
  C   C1061     1.0  0.93309  0.36600  0.90316  1.0000
  H   H1792     1.0  0.53800  0.45954  0.82622  1.0000
  H   H1793     1.0  0.57570  0.44865  0.82087  1.0000
  C   C1062     1.0  0.55623  0.42427  0.91925  1.0000
  H   H1794     1.0  0.77877  0.18466  0.74945  1.0000
  H   H1795     1.0  0.58645  0.47524  0.78114  1.0000
  H   H1796     1.0  0.52576  0.40454  0.87183  1.0000
  C   C1063     1.0  0.50343  0.24206  0.83930  1.0000
  H   H1797     1.0  0.83492  0.39459  0.81091  1.0000
  H   H1798     1.0  0.49434  0.36071  0.74033  1.0000
  H   H1799     1.0  0.50454  0.25981  0.84363  1.0000
  C   C1064     1.0  0.54469  0.42084  0.93279  1.0000
  C   C1065     1.0  0.83491  0.21466  0.75073  1.0000
  H   H1800     1.0  0.54089  0.38140  0.86642  1.0000
  C   C1066     1.0  0.51575  0.25873  0.98067  1.0000
  H   H1801     1.0  0.50734  0.00405  0.74515  1.0000
  H   H1802     1.0  0.72897  0.47557  0.84921  1.0000
  C   C1067     1.0  0.49907  0.33725  0.87490  1.0000
  H   H1803     1.0  0.60004  0.42462  0.81577  1.0000
  H   H1804     1.0  0.94652  0.32100  0.86015  1.0000
  H   H1805     1.0  0.97811  0.35929  0.96566  1.0000
  H   H1806     1.0  0.55678  0.31402  0.96457  1.0000
  H   H1807     1.0  0.79742  0.28488  0.76523  1.0000
  H   H1808     1.0  0.79018  0.35330  0.97685  1.0000
  C   C1068     1.0  0.53889  0.29608  0.96648  1.0000
  H   H1809     1.0  0.78922  0.23080  0.74208  1.0000
  H   H1810     1.0  0.62807  0.11198  0.91132  1.0000
  C   C1069     1.0  0.55405  0.46675  0.93527  1.0000
  C   C1070     1.0  0.88649  0.37461  0.86973  1.0000
  H   H1811     1.0  0.57468  0.04079  0.81614  1.0000
  S   S292      1.0  0.65234  0.00201  0.98364  1.0000
  C   C1071     1.0  0.53569  0.28034  0.95466  1.0000
  N   N77       1.0  0.80272  0.23479  0.76144  1.0000
  C   C1072     1.0  0.78081  0.22511  0.75177  1.0000
  C   C1073     1.0  0.89951  0.36464  0.88104  1.0000
  H   H1812     1.0  0.83681  0.22572  0.76971  1.0000
  C   C1074     1.0  0.82032  0.21784  0.76284  1.0000
  H   H1813     1.0  0.57229  0.46643  0.94076  1.0000
  H   H1814     1.0  0.62694  0.07953  0.76624  1.0000
  H   H1815     1.0  0.60117  0.02900  0.96930  1.0000
  C   C1075     1.0  0.94735  0.38916  0.87331  1.0000
  H   H1816     1.0  0.77321  0.24410  0.77299  1.0000
  C   C1076     1.0  0.50051  0.21790  0.82068  1.0000
  H   H1817     1.0  0.53616  0.29349  0.94627  1.0000
  H   H1818     1.0  0.80922  0.14221  0.83025  1.0000
  C   C1077     1.0  0.78758  0.19474  0.82927  1.0000
  H   H1819     1.0  0.82162  0.15227  0.85147  1.0000
  C   C1078     1.0  0.61927  0.09204  0.91577  1.0000
  C   C1079     1.0  0.58319  0.01123  0.96825  1.0000
  S   S293      1.0  0.85251  0.21175  0.96638  1.0000
  S   S294      1.0  0.66881  0.47492  0.84953  1.0000
  H   H1820     1.0  0.57583  0.44081  0.91829  1.0000
  H   H1821     1.0  0.80317  0.22391  0.97305  1.0000
  H   H1822     1.0  0.81570  0.18239  0.85012  1.0000
  H   H1823     1.0  0.61887  0.02300  0.89772  1.0000
  H   H1824     1.0  0.78180  0.14739  0.83798  1.0000
  C   C1080     1.0  0.80265  0.15779  0.83386  1.0000
  C   C1081     1.0  0.60932  0.05967  0.80305  1.0000
  H   H1825     1.0  0.56287  0.01824  0.91805  1.0000
  H   H1826     1.0  0.76969  0.20757  0.81229  1.0000
  H   H1827     1.0  0.78304  0.43562  0.97370  1.0000
  H   H1828     1.0  0.50176  0.34838  0.86568  1.0000
  C   C1082     1.0  0.78284  0.21587  0.82027  1.0000
  H   H1829     1.0  0.54196  0.43793  0.78375  1.0000
  N   N78       1.0  0.60963  0.08575  0.79752  1.0000
  H   H1830     1.0  0.54030  0.43522  0.95604  1.0000
  H   H1831     1.0  0.80243  0.23058  0.81688  1.0000
  H   H1832     1.0  0.90900  0.32482  0.87239  1.0000
  H   H1833     1.0  0.57656  0.33500  0.98227  1.0000
  H   H1834     1.0  0.76726  0.18284  0.83345  1.0000
  H   H1835     1.0  0.54994  0.05815  0.73669  1.0000
  H   H1836     1.0  0.76499  0.23460  0.75247  1.0000
  H   H1837     1.0  0.89868  0.39479  0.86646  1.0000
  H   H1838     1.0  0.83216  0.19382  0.74974  1.0000
  C   C1083     1.0  0.50308  0.06538  0.74380  1.0000
  C   C1084     1.0  0.61523  0.07217  0.90561  1.0000
  C   C1085     1.0  0.59713  0.05114  0.81638  1.0000
  H   H1839     1.0  0.56290  0.07722  0.81387  1.0000
  H   H1840     1.0  0.51252  0.23212  0.78628  1.0000
  N   N79       1.0  0.50041  0.35440  0.88568  1.0000
  C   C1086     1.0  0.95063  0.41360  0.88059  1.0000
  H   H1841     1.0  0.60107  0.45124  0.79516  1.0000
  H   H1842     1.0  0.49847  0.17797  0.82390  1.0000
  C   C1087     1.0  0.82078  0.26193  0.75734  1.0000
  C   C1088     1.0  0.82863  0.42085  0.97655  1.0000
  H   H1843     1.0  0.51399  0.24474  0.97326  1.0000
  H   H1844     1.0  0.69849  0.48066  0.76846  1.0000
  H   H1845     1.0  0.51775  0.04723  0.78137  1.0000
  H   H1846     1.0  0.51660  0.45310  0.91920  1.0000
  H   H1847     1.0  0.82203  0.30161  0.75334  1.0000
  Fe  Fe145     1.0  0.48674  0.32606  0.95396  1.0000
  H   H1848     1.0  0.54168  0.42702  0.91216  1.0000
  H   H1849     1.0  0.48735  0.14914  0.92413  1.0000
  H   H1850     1.0  0.82216  0.23609  0.78735  1.0000
  C   C1089     1.0  0.93898  0.35524  0.89083  1.0000
  H   H1851     1.0  0.53068  0.40054  0.93424  1.0000
  H   H1852     1.0  0.56237  0.25718  0.97214  1.0000
  C   C1090     1.0  0.78884  0.23431  0.77391  1.0000
  H   H1853     1.0  0.86596  0.37479  0.87256  1.0000
  H   H1854     1.0  0.50840  0.10653  0.74279  1.0000
  C   C1091     1.0  0.82211  0.16865  0.84475  1.0000
  H   H1855     1.0  0.59966  0.30830  0.98279  1.0000
  H   H1856     1.0  0.72416  0.44348  0.85530  1.0000
  C   C1092     1.0  0.76540  0.19552  0.75239  1.0000
  H   H1857     1.0  0.53899  0.06946  0.77009  1.0000
  H   H1858     1.0  0.91925  0.34934  0.86010  1.0000
  C   C1093     1.0  0.50802  0.41490  0.80850  1.0000
  H   H1859     1.0  0.53729  0.05126  0.91390  1.0000
  H   H1860     1.0  0.88203  0.40503  0.74811  1.0000
  H   H1861     1.0  0.79966  0.20537  0.83711  1.0000
  H   H1862     1.0  0.94895  0.43623  0.76106  1.0000
  H   H1863     1.0  0.91596  0.45990  0.81034  1.0000
  H   H1864     1.0  0.88525  0.34499  0.88418  1.0000
  H   H1865     1.0  0.96717  0.41665  0.88759  1.0000
  H   H1866     1.0  0.62320  0.12650  0.80142  1.0000
  H   H1867     1.0  0.84364  0.17809  0.84148  1.0000
  H   H1868     1.0  0.93057  0.33369  0.89246  1.0000
  C   C1094     1.0  0.92540  0.34333  0.86943  1.0000
  H   H1869     1.0  0.89885  0.37712  0.88878  1.0000
  C   C1095     1.0  0.94780  0.37891  0.73783  1.0000
  C   C1096     1.0  0.50841  0.44104  0.92800  1.0000
  H   H1870     1.0  0.50918  0.01853  0.76557  1.0000
  H   H1871     1.0  0.58329  0.00741  0.90087  1.0000
  H   H1872     1.0  0.81952  0.26752  0.78274  1.0000
  S   S295      1.0  0.67864  0.10008  0.73601  1.0000
  H   H1873     1.0  0.85807  0.44521  0.94192  1.0000
  H   H1874     1.0  0.82793  0.44308  0.78603  1.0000
  C   C1097     1.0  0.82109  0.46771  0.80642  1.0000
  N   N80       1.0  0.51405  0.04448  0.74880  1.0000
  C   C1098     1.0  0.55108  0.15816  0.89020  1.0000
  C   C1099     1.0  0.59346  0.03713  0.88585  1.0000
  H   H1875     1.0  0.51840  0.31267  0.86620  1.0000
  C   C1100     1.0  0.73160  0.47126  0.86989  1.0000
  H   H1876     1.0  0.50323  0.36439  0.75639  1.0000
  H   H1877     1.0  0.59965  0.09072  0.92034  1.0000
  H   H1878     1.0  0.54109  0.03193  0.90133  1.0000
  C   C1101     1.0  0.50546  0.03674  0.76234  1.0000
  H   H1879     1.0  0.85872  0.44313  0.77924  1.0000
  C   C1102     1.0  0.61854  0.03692  0.91975  1.0000
  S   S296      1.0  0.50135  0.26807  0.81694  1.0000
  C   C1103     1.0  0.97392  0.41519  0.97582  1.0000
  C   C1104     1.0  0.56810  0.47769  0.78543  1.0000
  H   H1880     1.0  0.81295  0.37250  0.95537  1.0000
  H   H1881     1.0  0.96124  0.38603  0.76500  1.0000
  C   C1105     1.0  0.49576  0.33738  0.89768  1.0000
  H   H1882     1.0  0.83761  0.47512  0.76935  1.0000
  H   H1883     1.0  0.94785  0.45619  0.73939  1.0000
  C   C1106     1.0  0.93105  0.45294  0.74636  1.0000
  C   C1107     1.0  0.83303  0.41321  0.80708  1.0000
  S   S297      1.0  0.64437  0.47444  0.82093  1.0000
  C   C1108     1.0  0.50199  0.24093  0.82625  1.0000
  H   H1884     1.0  0.53511  0.47469  0.81106  1.0000
  S   S298      1.0  0.59721  0.44368  0.98278  1.0000
  H   H1885     1.0  0.84399  0.38676  0.96342  1.0000
  H   H1886     1.0  0.79070  0.27803  0.74880  1.0000
  H   H1887     1.0  0.60687  0.03772  0.82090  1.0000
  H   H1888     1.0  0.87220  0.42226  0.79775  1.0000
  C   C1109     1.0  0.89720  0.39823  0.74329  1.0000
  H   H1889     1.0  0.83063  0.44170  0.97507  1.0000
  C   C1110     1.0  0.48746  0.25589  0.78127  1.0000
  H   H1890     1.0  0.94215  0.39306  0.86341  1.0000
  H   H1891     1.0  0.81103  0.41325  0.94555  1.0000
  H   H1892     1.0  0.80859  0.44893  0.80283  1.0000
  H   H1893     1.0  0.54470  0.17544  0.88845  1.0000
  H   H1894     1.0  0.56148  0.06600  0.90194  1.0000
  H   H1895     1.0  0.48938  0.39717  0.92941  1.0000
  S   S299      1.0  0.89568  0.28077  0.98349  1.0000
  H   H1896     1.0  0.48540  0.38373  0.86519  1.0000
  C   C1111     1.0  0.81250  0.36046  0.97492  1.0000
  H   H1897     1.0  0.95604  0.43086  0.87385  1.0000
  H   H1898     1.0  0.96942  0.37975  0.73694  1.0000
  H   H1899     1.0  0.52096  0.30283  0.96686  1.0000
  H   H1900     1.0  0.75413  0.19602  0.97515  1.0000
  H   H1901     1.0  0.84996  0.42079  0.97697  1.0000
  C   C1112     1.0  0.57316  0.03931  0.91558  1.0000
  H   H1902     1.0  0.56213  0.42182  0.93908  1.0000
  C   C1113     1.0  0.51748  0.05728  0.77205  1.0000
  H   H1903     1.0  0.94946  0.40544  0.77543  1.0000
  Fe  Fe146     1.0  0.67125  0.05853  0.74233  1.0000
  C   C1114     1.0  0.80648  0.28248  0.75619  1.0000
  H   H1904     1.0  0.93574  0.47124  0.75132  1.0000
  S   S300      1.0  0.48641  0.11384  0.82548  1.0000
  H   H1905     1.0  0.49889  0.41697  0.79926  1.0000
  H   H1906     1.0  0.50334  0.39210  0.95054  1.0000
  H   H1907     1.0  0.70909  0.46679  0.87088  1.0000
  H   H1908     1.0  0.95925  0.42183  0.98108  1.0000
  H   H1909     1.0  0.58869  0.47444  0.80980  1.0000
  H   H1910     1.0  0.55490  0.02779  0.76147  1.0000
  C   C1115     1.0  0.82144  0.38177  0.96423  1.0000
  C   C1116     1.0  0.94347  0.38727  0.77035  1.0000
  H   H1911     1.0  0.59430  0.30310  0.96613  1.0000
  H   H1912     1.0  0.51528  0.45045  0.95328  1.0000
  C   C1117     1.0  0.57590  0.99367  0.98049  1.0000
  H   H1913     1.0  0.56148  0.47195  0.92538  1.0000
  C   C1118     1.0  0.49153  0.22923  0.78279  1.0000
  C   C1119     1.0  0.50170  0.02081  0.74126  1.0000
  H   H1914     1.0  0.77341  0.43092  0.95743  1.0000
  S   S301      1.0  0.48059  0.09883  0.85599  1.0000
  C   C1120     1.0  0.77216  0.42115  0.96691  1.0000
  H   H1915     1.0  0.75016  0.41365  0.96973  1.0000
  H   H1916     1.0  0.62497  0.00528  0.93104  1.0000
  N   N81       1.0  0.81396  0.40585  0.96565  1.0000
  H   H1917     1.0  0.48880  0.40221  0.75770  1.0000
  H   H1918     1.0  0.94460  0.36003  0.91087  1.0000
  H   H1919     1.0  0.50468  0.06985  0.77289  1.0000
  H   H1920     1.0  0.85852  0.47057  0.81615  1.0000
  C   C1121     1.0  0.48123  0.38988  0.74958  1.0000
  H   H1921     1.0  0.48869  0.33562  0.91785  1.0000
  C   C1122     1.0  0.85195  0.47989  0.77733  1.0000
  H   H1922     1.0  0.49568  0.45090  0.93262  1.0000
  Fe  Fe147     1.0  0.48309  0.07913  0.83846  1.0000
  H   H1923     1.0  0.49540  0.26633  0.78991  1.0000
  H   H1924     1.0  0.54259  0.33674  0.98105  1.0000
  H   H1925     1.0  0.77472  0.38564  0.97515  1.0000
  H   H1926     1.0  0.89437  0.36022  0.73591  1.0000
  S   S302      1.0  0.47958  0.30520  0.84507  1.0000
  Fe  Fe148     1.0  0.47951  0.13177  0.84300  1.0000
  Fe  Fe149     1.0  0.57679  0.61661  0.04391  1.0000
  S   S303      1.0  0.53795  0.62265  0.03733  1.0000
  S   S304      1.0  0.60560  0.60197  0.03245  1.0000
  Fe  Fe150     1.0  0.57194  0.63653  0.07020  1.0000
  S   S305      1.0  0.53325  0.64405  0.06511  1.0000
  S   S306      1.0  0.58823  0.64999  0.08944  1.0000
  Fe  Fe151     1.0  0.52111  0.60536  0.05649  1.0000
  H   H1927     1.0  0.62749  0.69926  0.99290  1.0000
  Fe  Fe152     1.0  0.55373  0.66097  0.04669  1.0000
  S   S307      1.0  0.54938  0.69759  0.03696  1.0000
  S   S308      1.0  0.55877  0.59670  0.06263  1.0000
  S   S309      1.0  0.59363  0.65610  0.05216  1.0000
  Fe  Fe153     1.0  0.57899  0.84456  0.05264  1.0000
  S   S310      1.0  0.59673  0.88211  0.06252  1.0000
  S   S311      1.0  0.59799  0.81263  0.05600  1.0000
  Fe  Fe154     1.0  0.52927  0.85845  0.04442  1.0000
  S   S312      1.0  0.54256  0.89595  0.05399  1.0000
  H   H1928     1.0  0.50530  0.91610  0.09929  1.0000
  Fe  Fe155     1.0  0.58411  0.90172  0.04535  1.0000
  S   S313      1.0  0.60803  0.94347  0.03746  1.0000
  Fe  Fe156     1.0  0.55407  0.87358  0.07022  1.0000
  S   S314      1.0  0.53732  0.87174  0.09029  1.0000
  S   S315      1.0  0.56992  0.86472  0.03496  1.0000
  S   S316      1.0  0.53712  0.83548  0.06110  1.0000
  Fe  Fe157     1.0  0.55999  0.85005  0.16215  1.0000
  S   S317      1.0  0.51519  0.83106  0.15912  1.0000
  S   S318      1.0  0.58732  0.86616  0.14473  1.0000
  Fe  Fe158     1.0  0.55283  0.84008  0.19148  1.0000
  S   S319      1.0  0.50733  0.82094  0.18980  1.0000
  S   S320      1.0  0.57061  0.83406  0.21069  1.0000
  Fe  Fe159     1.0  0.51758  0.80103  0.17367  1.0000
  H   H1929     1.0  0.62693  0.66117  0.02878  1.0000
  Fe  Fe160     1.0  0.51024  0.85318  0.17540  1.0000
  H   H1930     1.0  0.64394  0.56593  0.99874  1.0000
  S   S321      1.0  0.56299  0.81834  0.17586  1.0000
  S   S322      1.0  0.55514  0.87421  0.17796  1.0000
  Fe  Fe161     1.0  0.55052  0.60458  0.18976  1.0000
  S   S323      1.0  0.52569  0.63111  0.18824  1.0000
  S   S324      1.0  0.55180  0.58391  0.20879  1.0000
  Fe  Fe162     1.0  0.55863  0.60724  0.16058  1.0000
  S   S325      1.0  0.53434  0.63384  0.15751  1.0000
  S   S326      1.0  0.57468  0.59279  0.14364  1.0000
  Fe  Fe163     1.0  0.55744  0.65393  0.17395  1.0000
  S   S327      1.0  0.57826  0.69715  0.17298  1.0000
  Fe  Fe164     1.0  0.50554  0.60769  0.17202  1.0000
  H   H1931     1.0  0.54182  0.82008  0.08842  1.0000
  S   S328      1.0  0.58397  0.62900  0.17631  1.0000
  S   S329      1.0  0.52844  0.57972  0.17429  1.0000
  C   C1123     1.0  0.56107  0.60125  0.22266  1.0000
  H   H1932     1.0  0.55859  0.52743  0.00637  1.0000
  H   H1933     1.0  0.59466  0.66167  0.23281  1.0000
  C   C1124     1.0  0.56893  0.84776  0.22532  1.0000
  H   H1934     1.0  0.48591  0.55984  0.15769  1.0000
  H   H1935     1.0  0.62970  0.51456  0.01068  1.0000
  C   C1125     1.0  0.56236  0.87042  0.22617  1.0000
  C   C1126     1.0  0.49130  0.94076  0.13411  1.0000
  H   H1936     1.0  0.64160  0.72292  0.13337  1.0000
  H   H1937     1.0  0.55758  0.87988  0.21775  1.0000
  H   H1938     1.0  0.65947  0.74612  0.15153  1.0000
  C   C1127     1.0  0.55441  0.71317  0.17074  1.0000
  C   C1128     1.0  0.52649  0.70006  0.17311  1.0000
  C   C1129     1.0  0.50805  0.71386  0.17260  1.0000
  C   C1130     1.0  0.51753  0.74071  0.16968  1.0000
  C   C1131     1.0  0.54509  0.75332  0.16640  1.0000
  C   C1132     1.0  0.56359  0.73964  0.16708  1.0000
  H   H1939     1.0  0.51919  0.67949  0.17576  1.0000
  H   H1940     1.0  0.50328  0.59815  0.08513  1.0000
  H   H1941     1.0  0.55221  0.77364  0.16342  1.0000
  H   H1942     1.0  0.58508  0.74972  0.16497  1.0000
  C   C1133     1.0  0.55291  0.86824  0.10483  1.0000
  C   C1134     1.0  0.53706  0.85109  0.11438  1.0000
  C   C1135     1.0  0.54774  0.84951  0.12646  1.0000
  C   C1136     1.0  0.57412  0.86573  0.12929  1.0000
  C   C1137     1.0  0.59028  0.88235  0.11964  1.0000
  C   C1138     1.0  0.57976  0.88362  0.10747  1.0000
  H   H1943     1.0  0.51631  0.83902  0.11245  1.0000
  H   H1944     1.0  0.53539  0.83598  0.13363  1.0000
  H   H1945     1.0  0.61079  0.89488  0.12167  1.0000
  H   H1946     1.0  0.59211  0.89719  0.10028  1.0000
  C   C1139     1.0  0.56356  0.72945  0.04234  1.0000
  C   C1140     1.0  0.57921  0.73457  0.05321  1.0000
  C   C1141     1.0  0.58990  0.76018  0.05718  1.0000
  C   C1142     1.0  0.58460  0.78082  0.05049  1.0000
  C   C1143     1.0  0.56918  0.77573  0.03956  1.0000
  C   C1144     1.0  0.55888  0.75021  0.03548  1.0000
  H   H1947     1.0  0.58322  0.71882  0.05851  1.0000
  H   H1948     1.0  0.60235  0.76402  0.06546  1.0000
  H   H1949     1.0  0.56555  0.79156  0.03417  1.0000
  H   H1950     1.0  0.54720  0.74653  0.02693  1.0000
  C   C1145     1.0  0.55234  0.51304  0.02576  1.0000
  C   C1146     1.0  0.53671  0.74085  0.20397  1.0000
  H   H1951     1.0  0.57308  0.78961  0.19921  1.0000
  C   C1147     1.0  0.57992  0.63063  0.10367  1.0000
  C   C1148     1.0  0.59086  0.61080  0.10633  1.0000
  C   C1149     1.0  0.58843  0.59887  0.11852  1.0000
  C   C1150     1.0  0.57497  0.60655  0.12817  1.0000
  C   C1151     1.0  0.56303  0.62560  0.12536  1.0000
  C   C1152     1.0  0.56597  0.63792  0.11325  1.0000
  H   H1952     1.0  0.60226  0.60544  0.09912  1.0000
  H   H1953     1.0  0.59770  0.58412  0.12057  1.0000
  H   H1954     1.0  0.55214  0.63136  0.13258  1.0000
  H   H1955     1.0  0.55782  0.65351  0.11134  1.0000
  H   H1956     1.0  0.56791  0.57779  0.99027  1.0000
  H   H1957     1.0  0.64212  0.63255  0.14056  1.0000
  H   H1958     1.0  0.48166  0.85228  0.05971  1.0000
  N   N82       1.0  0.63553  0.68317  0.14046  1.0000
  H   H1959     1.0  0.63068  0.67933  0.10757  1.0000
  H   H1960     1.0  0.50746  0.79181  0.01990  1.0000
  C   C1153     1.0  0.62765  0.95905  0.99975  1.0000
  C   C1154     1.0  0.61743  0.94564  0.01140  1.0000
  C   C1155     1.0  0.62009  0.95925  0.02235  1.0000
  H   H1961     1.0  0.52381  0.61474  0.09731  1.0000
  C   C1156     1.0  0.56061  0.70115  0.20828  1.0000
  H   H1962     1.0  0.57338  0.68841  0.20829  1.0000
  H   H1963     1.0  0.60784  0.92472  0.01194  1.0000
  H   H1964     1.0  0.55971  0.53433  0.02702  1.0000
  N   N83       1.0  0.49190  0.57896  0.10363  1.0000
  H   H1965     1.0  0.59355  0.51597  0.99669  1.0000
  C   C1157     1.0  0.62686  0.57166  0.00152  1.0000
  C   C1158     1.0  0.62603  0.58082  0.01359  1.0000
  C   C1159     1.0  0.60421  0.58871  0.01741  1.0000
  C   C1160     1.0  0.58296  0.58698  0.00899  1.0000
  C   C1161     1.0  0.58414  0.57845  0.99679  1.0000
  H   H1966     1.0  0.50086  0.85771  0.13404  1.0000
  H   H1967     1.0  0.64263  0.58206  0.01998  1.0000
  H   H1968     1.0  0.56593  0.59282  0.01175  1.0000
  C   C1162     1.0  0.49747  0.77801  0.03933  1.0000
  H   H1969     1.0  0.52253  0.96343  0.00100  1.0000
  C   C1163     1.0  0.52867  0.90730  0.13421  1.0000
  H   H1970     1.0  0.52643  0.91936  0.15355  1.0000
  S   S330      1.0  0.49002  0.84497  0.03358  1.0000
  H   H1971     1.0  0.54650  0.55671  0.09712  1.0000
  C   C1164     1.0  0.48902  0.78010  0.02553  1.0000
  H   H1972     1.0  0.48601  0.81732  0.23387  1.0000
  H   H1973     1.0  0.59566  0.65416  0.14416  1.0000
  C   C1165     1.0  0.63667  0.67351  0.12752  1.0000
  C   C1166     1.0  0.63881  0.64849  0.00113  1.0000
  H   H1974     1.0  0.57680  0.76748  0.18843  1.0000
  H   H1975     1.0  0.60551  0.67673  0.15557  1.0000
  H   H1976     1.0  0.62284  0.77078  0.19899  1.0000
  H   H1977     1.0  0.56509  0.77850  0.22086  1.0000
  H   H1978     1.0  0.65451  0.66463  0.99583  1.0000
  H   H1979     1.0  0.63179  0.63196  0.99489  1.0000
  H   H1980     1.0  0.67318  0.67759  0.14671  1.0000
  C   C1167     1.0  0.51522  0.75790  0.06236  1.0000
  H   H1981     1.0  0.61783  0.79563  0.20837  1.0000
  C   C1168     1.0  0.52147  0.76068  0.20398  1.0000
  H   H1982     1.0  0.52261  0.78639  0.08981  1.0000
  C   C1169     1.0  0.53659  0.90832  0.14816  1.0000
  C   C1170     1.0  0.48219  0.92124  0.03355  1.0000
  C   C1171     1.0  0.61231  0.78527  0.19957  1.0000
  H   H1983     1.0  0.59741  0.73293  0.21208  1.0000
  H   H1984     1.0  0.63051  0.73364  0.01498  1.0000
  H   H1985     1.0  0.65729  0.67783  0.01993  1.0000
  H   H1986     1.0  0.54633  0.94885  0.99486  1.0000
  H   H1987     1.0  0.53456  0.73329  0.19443  1.0000
  C   C1172     1.0  0.58094  0.77328  0.19827  1.0000
  S   S331      1.0  0.49538  0.75856  0.17125  1.0000
  S   S332      1.0  0.48067  0.87492  0.17314  1.0000
  C   C1173     1.0  0.55525  0.58760  0.23446  1.0000
  H   H1988     1.0  0.56224  0.66077  0.00283  1.0000
  C   C1174     1.0  0.60638  0.67523  0.14524  1.0000
  C   C1175     1.0  0.63213  0.69025  0.11618  1.0000
  H   H1989     1.0  0.64955  0.67584  0.15908  1.0000
  H   H1990     1.0  0.51923  0.75352  0.07232  1.0000
  C   C1176     1.0  0.48652  0.76041  0.06138  1.0000
  H   H1991     1.0  0.52316  0.77017  0.21300  1.0000
  H   H1992     1.0  0.60222  0.65625  0.99635  1.0000
  H   H1993     1.0  0.56717  0.50541  0.03055  1.0000
  H   H1994     1.0  0.60044  0.63937  0.01118  1.0000
  C   C1177     1.0  0.48251  0.91135  0.13756  1.0000
  N   N84       1.0  0.56657  0.75073  0.20739  1.0000
  H   H1995     1.0  0.62024  0.63199  0.15385  1.0000
  H   H1996     1.0  0.48529  0.57420  0.21502  1.0000
  H   H1997     1.0  0.52476  0.72408  0.21027  1.0000
  H   H1998     1.0  0.61295  0.69466  0.11692  1.0000
  H   H1999     1.0  0.53963  0.89581  0.12962  1.0000
  H   H2000     1.0  0.48025  0.51252  0.03330  1.0000
  C   C1178     1.0  0.57064  0.76058  0.22044  1.0000
  H   H2001     1.0  0.48664  0.70394  0.17497  1.0000
  C   C1179     1.0  0.64120  0.64056  0.14981  1.0000
  H   H2002     1.0  0.62861  0.72101  0.15651  1.0000
  H   H2003     1.0  0.53231  0.50517  0.03084  1.0000
  H   H2004     1.0  0.55907  0.91826  0.14883  1.0000
  C   C1180     1.0  0.60831  0.50771  0.01440  1.0000
  H   H2005     1.0  0.57164  0.68897  0.14597  1.0000
  H   H2006     1.0  0.64979  0.70852  0.11463  1.0000
  H   H2007     1.0  0.66171  0.71829  0.16028  1.0000
  H   H2008     1.0  0.53129  0.77659  0.05940  1.0000
  H   H2009     1.0  0.59261  0.76657  0.22300  1.0000
  H   H2010     1.0  0.59830  0.71009  0.13660  1.0000
  N   N85       1.0  0.49843  0.89643  0.13156  1.0000
  C   C1181     1.0  0.65093  0.67056  0.14924  1.0000
  H   H2011     1.0  0.65700  0.67145  0.12573  1.0000
  H   H2012     1.0  0.53072  0.58147  0.11210  1.0000
  H   H2013     1.0  0.50835  0.51086  0.18403  1.0000
  N   N86       1.0  0.59321  0.81169  0.09556  1.0000
  C   C1182     1.0  0.59952  0.83812  0.08883  1.0000
  C   C1183     1.0  0.56660  0.79427  0.09041  1.0000
  C   C1184     1.0  0.61622  0.80180  0.09247  1.0000
  C   C1185     1.0  0.59162  0.81503  0.10946  1.0000
  C   C1186     1.0  0.62723  0.85879  0.09184  1.0000
  C   C1187     1.0  0.54103  0.80148  0.09331  1.0000
  C   C1188     1.0  0.61088  0.77243  0.09488  1.0000
  C   C1189     1.0  0.58009  0.79029  0.11823  1.0000
  H   H2014     1.0  0.59917  0.83647  0.07849  1.0000
  H   H2015     1.0  0.58364  0.84680  0.09085  1.0000
  H   H2016     1.0  0.56166  0.77374  0.09385  1.0000
  H   H2017     1.0  0.56830  0.79384  0.08001  1.0000
  H   H2018     1.0  0.62211  0.80615  0.08231  1.0000
  H   H2019     1.0  0.63494  0.81204  0.09777  1.0000
  H   H2020     1.0  0.61225  0.82573  0.11310  1.0000
  H   H2021     1.0  0.57967  0.82795  0.11134  1.0000
  H   H2022     1.0  0.62879  0.86323  0.10188  1.0000
  H   H2023     1.0  0.64489  0.85328  0.08887  1.0000
  H   H2024     1.0  0.62896  0.87727  0.08645  1.0000
  C   C1190     1.0  0.58346  0.64100  0.23332  1.0000
  H   H2025     1.0  0.53781  0.80228  0.10352  1.0000
  H   H2026     1.0  0.56167  0.72431  0.23222  1.0000
  H   H2027     1.0  0.60425  0.76535  0.10462  1.0000
  H   H2028     1.0  0.63027  0.76860  0.09319  1.0000
  H   H2029     1.0  0.59589  0.76075  0.08820  1.0000
  H   H2030     1.0  0.59697  0.78458  0.12246  1.0000
  H   H2031     1.0  0.56560  0.77344  0.11379  1.0000
  H   H2032     1.0  0.56823  0.79442  0.12602  1.0000
  N   N87       1.0  0.62015  0.68099  0.01163  1.0000
  C   C1191     1.0  0.61390  0.65588  0.00509  1.0000
  C   C1192     1.0  0.59314  0.68250  0.01603  1.0000
  H   H2033     1.0  0.49513  0.63805  0.08755  1.0000
  C   C1193     1.0  0.63548  0.70332  0.00256  1.0000
  C   C1194     1.0  0.64481  0.70214  0.03158  1.0000
  H   H2034     1.0  0.50648  0.79816  0.04250  1.0000
  H   H2035     1.0  0.95744  0.64319  0.05423  1.0000
  H   H2036     1.0  0.50002  0.55500  0.04301  1.0000
  H   H2037     1.0  0.51323  0.93746  0.11191  1.0000
  H   H2038     1.0  0.97021  0.55761  0.02332  1.0000
  H   H2039     1.0  0.65377  0.74553  0.00213  1.0000
  H   H2040     1.0  0.58339  0.66650  0.02323  1.0000
  H   H2041     1.0  0.50103  0.60067  0.12039  1.0000
  H   H2042     1.0  0.49881  0.72955  0.03674  1.0000
  H   H2043     1.0  0.58545  0.98230  0.00430  1.0000
  H   H2044     1.0  0.65942  0.72001  0.02690  1.0000
  H   H2045     1.0  0.54578  0.69502  0.20055  1.0000
  C   C1195     1.0  0.48345  0.58552  0.11619  1.0000
  H   H2046     1.0  0.50797  0.54922  0.11107  1.0000
  H   H2047     1.0  0.65474  0.63378  0.15617  1.0000
  H   H2048     1.0  0.96344  0.62748  0.04096  1.0000
  H   H2049     1.0  0.49622  0.93665  0.02715  1.0000
  C   C1196     1.0  0.96704  0.64673  0.04470  1.0000
  H   H2050     1.0  0.62667  0.70591  0.03530  1.0000
  H   H2051     1.0  0.62568  0.94817  0.99142  1.0000
  H   H2052     1.0  0.54151  0.94921  0.01131  1.0000
  C   C1197     1.0  0.60606  0.57068  0.99297  1.0000
  C   C1198     1.0  0.55492  0.74145  0.23114  1.0000
  H   H2053     1.0  0.62145  0.65368  0.12678  1.0000
  C   C1199     1.0  0.54855  0.50838  0.01156  1.0000
  H   H2054     1.0  0.53835  0.92726  0.12999  1.0000
  C   C1200     1.0  0.58780  0.68926  0.13910  1.0000
  H   H2055     1.0  0.57752  0.67939  0.13075  1.0000
  C   C1201     1.0  0.64975  0.72470  0.15297  1.0000
  C   C1202     1.0  0.65011  0.71215  0.14039  1.0000
  H   H2056     1.0  0.67193  0.71700  0.13740  1.0000
  C   C1203     1.0  0.53090  0.56557  0.09417  1.0000
  H   H2057     1.0  0.54930  0.69722  0.21734  1.0000
  H   H2058     1.0  0.57963  0.63882  0.21315  1.0000
  C   C1204     1.0  0.54263  0.96073  0.00229  1.0000
  H   H2059     1.0  0.58734  0.73064  0.19617  1.0000
  H   H2060     1.0  0.52850  0.77559  0.19612  1.0000
  C   C1205     1.0  0.57930  0.72979  0.20594  1.0000
  H   H2061     1.0  0.62044  0.80013  0.19173  1.0000
  C   C1206     1.0  0.57182  0.68101  0.00571  1.0000
  C   C1207     1.0  0.49385  0.89549  0.11754  1.0000
  C   C1208     1.0  0.63402  0.73044  0.00510  1.0000
  C   C1209     1.0  0.51277  0.91820  0.10909  1.0000
  C   C1210     1.0  0.57493  0.62810  0.22215  1.0000
  H   H2062     1.0  0.48212  0.70749  0.04979  1.0000
  C   C1211     1.0  0.51523  0.56864  0.10595  1.0000
  H   H2063     1.0  0.49398  0.90834  0.03654  1.0000
  H   H2064     1.0  0.59562  0.70045  0.02091  1.0000
  H   H2065     1.0  0.53243  0.73535  0.22999  1.0000
  H   H2066     1.0  0.60547  0.52460  0.01871  1.0000
  H   H2067     1.0  0.51369  0.95052  0.13332  1.0000
  C   C1212     1.0  0.48793  0.86886  0.13718  1.0000
  S   S333      1.0  0.94875  0.55032  0.99835  1.0000
  C   C1213     1.0  0.63733  0.67929  0.02288  1.0000
  H   H2068     1.0  0.51742  0.55273  0.08739  1.0000
  H   H2069     1.0  0.50286  0.54409  0.19667  1.0000
  C   C1214     1.0  0.50236  0.60324  0.09502  1.0000
  H   H2070     1.0  0.51486  0.77073  0.03907  1.0000
  H   H2071     1.0  0.64814  0.64153  0.00936  1.0000
  H   H2072     1.0  0.53232  0.88863  0.15268  1.0000
  H   H2073     1.0  0.48989  0.63282  0.10410  1.0000
  H   H2074     1.0  0.49668  0.87778  0.11394  1.0000
  H   H2075     1.0  0.65549  0.69718  0.03988  1.0000
  H   H2076     1.0  0.60687  0.49185  0.02155  1.0000
  H   H2077     1.0  0.65752  0.70519  0.00201  1.0000
  H   H2078     1.0  0.48101  0.76084  0.02143  1.0000
  H   H2079     1.0  0.55502  0.68691  0.00953  1.0000
  H   H2080     1.0  0.54228  0.58466  0.08938  1.0000
  H   H2081     1.0  0.49208  0.57956  0.19824  1.0000
  H   H2082     1.0  0.61827  0.73474  0.99914  1.0000
  H   H2083     1.0  0.48921  0.86847  0.14756  1.0000
  H   H2084     1.0  0.51758  0.74218  0.05691  1.0000
  H   H2085     1.0  0.50054  0.49770  0.19975  1.0000
  C   C1215     1.0  0.49195  0.50488  0.19138  1.0000
  C   C1216     1.0  0.48363  0.52873  0.19404  1.0000
  C   C1217     1.0  0.48033  0.54154  0.04622  1.0000
  H   H2086     1.0  0.58066  0.69410  0.99737  1.0000
  H   H2087     1.0  0.49277  0.53630  0.21794  1.0000
  H   H2088     1.0  0.54394  0.51763  0.98653  1.0000
  H   H2089     1.0  0.48817  0.77829  0.06635  1.0000
  H   H2090     1.0  0.53395  0.91753  0.10879  1.0000
  C   C1218     1.0  0.48673  0.62274  0.09517  1.0000
  H   H2091     1.0  0.52621  0.50358  0.00984  1.0000
  H   H2092     1.0  0.48101  0.87304  0.20868  1.0000
  H   H2093     1.0  0.95542  0.65686  0.03893  1.0000
  N   N88       1.0  0.55852  0.48787  0.00646  1.0000
  C   C1219     1.0  0.58878  0.49870  0.00337  1.0000
  H   H2094     1.0  0.48181  0.90839  0.14800  1.0000
  H   H2095     1.0  0.49935  0.75039  0.20239  1.0000
  H   H2096     1.0  0.48929  0.55498  0.12920  1.0000
  H   H2097     1.0  0.48147  0.94464  0.12530  1.0000
  H   H2098     1.0  0.48484  0.95039  0.14183  1.0000
  H   H2099     1.0  0.54459  0.56685  0.23496  1.0000
  H   H2100     1.0  0.59532  0.48417  0.99855  1.0000
  C   C1220     1.0  0.49779  0.82954  0.27052  1.0000
  C   C1221     1.0  0.56312  0.88149  0.23789  1.0000
  S   S334      1.0  0.72909  0.71669  0.47523  1.0000
  Fe  Fe165     1.0  0.73899  0.94502  0.38290  1.0000
  S   S335      1.0  0.78054  0.96245  0.37352  1.0000
  S   S336      1.0  0.69669  0.92995  0.37342  1.0000
  Fe  Fe166     1.0  0.76483  0.94605  0.40973  1.0000
  H   H2101     1.0  0.83393  0.71981  0.47994  1.0000
  C   C1222     1.0  0.75827  0.94241  0.44455  1.0000
  Fe  Fe167     1.0  0.79299  0.93500  0.38676  1.0000
  S   S337      1.0  0.81720  0.90893  0.38247  1.0000
  S   S338      1.0  0.75118  0.91612  0.39520  1.0000
  N   N89       1.0  0.76323  0.81709  0.41718  1.0000
  S   S339      1.0  0.94613  0.72528  0.38862  1.0000
  H   H2102     1.0  0.74139  0.66317  0.47317  1.0000
  Fe  Fe168     1.0  0.76536  0.72479  0.39929  1.0000
  S   S340      1.0  0.79332  0.75934  0.38780  1.0000
  S   S341      1.0  0.77960  0.72806  0.41974  1.0000
  Fe  Fe169     1.0  0.73354  0.70113  0.37537  1.0000
  S   S342      1.0  0.76048  0.73388  0.36275  1.0000
  S   S343      1.0  0.69410  0.67017  0.36858  1.0000
  Fe  Fe170     1.0  0.79608  0.73038  0.37423  1.0000
  S   S344      1.0  0.83723  0.73685  0.36438  1.0000
  Fe  Fe171     1.0  0.75576  0.75970  0.37756  1.0000
  S   S345      1.0  0.74217  0.79407  0.37240  1.0000
  S   S346      1.0  0.76963  0.69545  0.38595  1.0000
  S   S347      1.0  0.72736  0.72747  0.38990  1.0000
  Fe  Fe172     1.0  0.58820  0.82759  0.30037  1.0000
  S   S348      1.0  0.61536  0.86646  0.29232  1.0000
  S   S349      1.0  0.60577  0.79510  0.29982  1.0000
  Fe  Fe173     1.0  0.54274  0.84860  0.30683  1.0000
  S   S350      1.0  0.56754  0.88926  0.29976  1.0000
  S   S351      1.0  0.49798  0.83315  0.31345  1.0000
  Fe  Fe174     1.0  0.57736  0.86963  0.28318  1.0000
  S   S352      1.0  0.57098  0.88495  0.26340  1.0000
  Fe  Fe175     1.0  0.60361  0.88233  0.30971  1.0000
  S   S353      1.0  0.64108  0.91155  0.31903  1.0000
  S   S354      1.0  0.55134  0.82949  0.28998  1.0000
  S   S355      1.0  0.57785  0.84291  0.31805  1.0000
  Fe  Fe176     1.0  0.57552  0.62999  0.27892  1.0000
  S   S356      1.0  0.53230  0.62210  0.28521  1.0000
  S   S357      1.0  0.59045  0.64430  0.25883  1.0000
  Fe  Fe177     1.0  0.59472  0.62351  0.30629  1.0000
  S   S358      1.0  0.55160  0.61354  0.31413  1.0000
  S   S359      1.0  0.63744  0.63532  0.31546  1.0000
  Fe  Fe178     1.0  0.53733  0.58888  0.29730  1.0000
  H   H2103     1.0  0.70944  0.76922  0.40331  1.0000
  Fe  Fe179     1.0  0.54970  0.64688  0.30126  1.0000
  S   S360      1.0  0.53271  0.67685  0.30821  1.0000
  S   S361      1.0  0.58071  0.59619  0.29029  1.0000
  S   S362      1.0  0.59266  0.65756  0.29415  1.0000
  C   C1223     1.0  0.96979  0.56660  0.30729  1.0000
  C   C1224     1.0  0.58295  0.76288  0.30062  1.0000
  C   C1225     1.0  0.59054  0.74378  0.29492  1.0000
  C   C1226     1.0  0.57428  0.71746  0.29655  1.0000
  C   C1227     1.0  0.55080  0.70995  0.30421  1.0000
  C   C1228     1.0  0.54272  0.72915  0.30958  1.0000
  C   C1229     1.0  0.55865  0.75561  0.30771  1.0000
  H   H2104     1.0  0.60920  0.74933  0.28933  1.0000
  H   H2105     1.0  0.58029  0.70302  0.29206  1.0000
  H   H2106     1.0  0.52441  0.72352  0.31543  1.0000
  H   H2107     1.0  0.55262  0.77025  0.31211  1.0000
  C   C1230     1.0  0.65221  0.64582  0.33034  1.0000
  C   C1231     1.0  0.63847  0.63608  0.34179  1.0000
  C   C1232     1.0  0.65162  0.64376  0.35330  1.0000
  C   C1233     1.0  0.67863  0.66150  0.35363  1.0000
  C   C1234     1.0  0.69228  0.67145  0.34217  1.0000
  C   C1235     1.0  0.67926  0.66345  0.33065  1.0000
  H   H2108     1.0  0.61806  0.62192  0.34181  1.0000
  H   H2109     1.0  0.64087  0.63568  0.36205  1.0000
  H   H2110     1.0  0.71306  0.68493  0.34219  1.0000
  H   H2111     1.0  0.69036  0.67090  0.32192  1.0000
  C   C1236     1.0  0.91634  0.72915  0.38161  1.0000
  C   C1237     1.0  0.89151  0.72038  0.38853  1.0000
  C   C1238     1.0  0.86730  0.72300  0.38350  1.0000
  C   C1239     1.0  0.86745  0.73398  0.37134  1.0000
  C   C1240     1.0  0.89224  0.74274  0.36439  1.0000
  C   C1241     1.0  0.91660  0.74052  0.36951  1.0000
  H   H2112     1.0  0.89086  0.71117  0.39781  1.0000
  H   H2113     1.0  0.84839  0.71598  0.38893  1.0000
  H   H2114     1.0  0.89259  0.75113  0.35495  1.0000
  H   H2115     1.0  0.93545  0.74724  0.36403  1.0000
  C   C1242     1.0  0.79636  0.87701  0.37974  1.0000
  C   C1243     1.0  0.80639  0.85641  0.38208  1.0000
  C   C1244     1.0  0.78985  0.83077  0.37998  1.0000
  C   C1245     1.0  0.76343  0.82576  0.37532  1.0000
  C   C1246     1.0  0.75344  0.84636  0.37303  1.0000
  C   C1247     1.0  0.76979  0.87190  0.37528  1.0000
  H   H2116     1.0  0.82678  0.86031  0.38574  1.0000
  H   H2117     1.0  0.79741  0.81489  0.38199  1.0000
  H   H2118     1.0  0.73294  0.84256  0.36955  1.0000
  H   H2119     1.0  0.76197  0.88771  0.37338  1.0000
  C   C1248     1.0  0.68224  0.92311  0.35814  1.0000
  C   C1249     1.0  0.65381  0.91007  0.35718  1.0000
  C   C1250     1.0  0.64097  0.90572  0.34537  1.0000
  C   C1251     1.0  0.65629  0.91491  0.33425  1.0000
  C   C1252     1.0  0.68475  0.92784  0.33520  1.0000
  C   C1253     1.0  0.69771  0.93149  0.34700  1.0000
  H   H2120     1.0  0.64150  0.90355  0.36567  1.0000
  H   H2121     1.0  0.61908  0.89592  0.34489  1.0000
  H   H2122     1.0  0.69690  0.93503  0.32670  1.0000
  H   H2123     1.0  0.71958  0.94126  0.34745  1.0000
  C   C1254     1.0  0.95814  0.69250  0.42477  1.0000
  H   H2124     1.0  0.76425  0.92945  0.47604  1.0000
  C   C1255     1.0  0.57769  0.62738  0.24512  1.0000
  H   H2125     1.0  0.48295  0.88921  0.27537  1.0000
  S   S363      1.0  0.76121  0.92900  0.43005  1.0000
  H   H2126     1.0  0.55872  0.58988  0.25465  1.0000
  H   H2127     1.0  0.51548  0.90708  0.26827  1.0000
  N   N90       1.0  0.47977  0.84152  0.26312  1.0000
  C   C1256     1.0  0.57572  0.84678  0.24814  1.0000
  C   C1257     1.0  0.56996  0.86986  0.24893  1.0000
  H   H2128     1.0  0.58107  0.83762  0.25652  1.0000
  C   C1258     1.0  0.74295  0.72152  0.45966  1.0000
  C   C1259     1.0  0.77081  0.73464  0.45714  1.0000
  C   C1260     1.0  0.78141  0.73662  0.44484  1.0000
  C   C1261     1.0  0.76432  0.72599  0.43482  1.0000
  C   C1262     1.0  0.73626  0.71380  0.43721  1.0000
  C   C1263     1.0  0.72568  0.71151  0.44959  1.0000
  H   H2129     1.0  0.78432  0.74293  0.46468  1.0000
  H   H2130     1.0  0.80310  0.74637  0.44307  1.0000
  H   H2131     1.0  0.72282  0.70554  0.42961  1.0000
  H   H2132     1.0  0.70406  0.70146  0.45139  1.0000
  H   H2133     1.0  0.81840  0.97293  0.47990  1.0000
  H   H2134     1.0  0.48579  0.87868  0.25289  1.0000
  H   H2135     1.0  0.70061  0.80338  0.48285  1.0000
  H   H2136     1.0  0.75837  0.79848  0.39953  1.0000
  C   C1264     1.0  0.74922  0.79463  0.40915  1.0000
  H   H2137     1.0  0.75446  0.78611  0.44658  1.0000
  C   C1265     1.0  0.75293  0.81244  0.43064  1.0000
  H   H2138     1.0  0.58318  0.74192  0.35012  1.0000
  H   H2139     1.0  0.80120  0.79549  0.43074  1.0000
  H   H2140     1.0  0.67257  0.63042  0.23958  1.0000
  C   C1266     1.0  0.76072  0.93945  0.46753  1.0000
  C   C1267     1.0  0.78558  0.68014  0.47669  1.0000
  H   H2141     1.0  0.79298  0.61908  0.47649  1.0000
  S   S364      1.0  0.50028  0.55283  0.29324  1.0000
  H   H2142     1.0  0.97306  0.75201  0.41119  1.0000
  H   H2143     1.0  0.97559  0.69978  0.41799  1.0000
  H   H2144     1.0  0.51299  0.88022  0.27894  1.0000
  H   H2145     1.0  0.81475  0.71009  0.45746  1.0000
  S   S365      1.0  0.80766  0.96347  0.40181  1.0000
  N   N91       1.0  0.66297  0.83637  0.33233  1.0000
  C   C1268     1.0  0.67992  0.85766  0.34036  1.0000
  C   C1269     1.0  0.63568  0.82161  0.33870  1.0000
  C   C1270     1.0  0.65644  0.84931  0.32044  1.0000
  C   C1271     1.0  0.67907  0.81910  0.32929  1.0000
  C   C1272     1.0  0.68487  0.84966  0.35395  1.0000
  C   C1273     1.0  0.63425  0.79777  0.34751  1.0000
  C   C1274     1.0  0.68109  0.86754  0.31262  1.0000
  C   C1275     1.0  0.66593  0.79870  0.31961  1.0000
  H   H2146     1.0  0.70058  0.86769  0.33606  1.0000
  H   H2147     1.0  0.67025  0.87281  0.34099  1.0000
  H   H2148     1.0  0.61932  0.81396  0.33167  1.0000
  H   H2149     1.0  0.62833  0.83502  0.34406  1.0000
  H   H2150     1.0  0.64381  0.83473  0.31403  1.0000
  H   H2151     1.0  0.64328  0.86095  0.32268  1.0000
  H   H2152     1.0  0.69988  0.83087  0.32564  1.0000
  H   H2153     1.0  0.68374  0.80889  0.33783  1.0000
  H   H2154     1.0  0.69409  0.83408  0.35445  1.0000
  H   H2155     1.0  0.69959  0.86678  0.35830  1.0000
  H   H2156     1.0  0.66580  0.84409  0.35972  1.0000
  H   H2157     1.0  0.61423  0.79101  0.35261  1.0000
  H   H2158     1.0  0.63523  0.78139  0.34211  1.0000
  H   H2159     1.0  0.65039  0.80183  0.35465  1.0000
  H   H2160     1.0  0.67329  0.87441  0.30388  1.0000
  H   H2161     1.0  0.69530  0.85758  0.30973  1.0000
  H   H2162     1.0  0.69222  0.88526  0.31759  1.0000
  H   H2163     1.0  0.67262  0.80670  0.30990  1.0000
  H   H2164     1.0  0.64326  0.79201  0.32005  1.0000
  H   H2165     1.0  0.67174  0.78112  0.32161  1.0000
  H   H2166     1.0  0.73223  0.97960  0.35991  1.0000
  H   H2167     1.0  0.65131  0.71372  0.32285  1.0000
  C   C1276     1.0  0.79383  0.82308  0.41649  1.0000
  C   C1277     1.0  0.74904  0.97453  0.45708  1.0000
  C   C1278     1.0  0.82571  0.69835  0.46257  1.0000
  H   H2168     1.0  0.94511  0.67328  0.42162  1.0000
  C   C1279     1.0  0.94092  0.71066  0.42478  1.0000
  H   H2169     1.0  0.73342  0.81663  0.43141  1.0000
  H   H2170     1.0  0.80464  0.83938  0.42246  1.0000
  H   H2171     1.0  0.92021  0.74566  0.41032  1.0000
  C   C1280     1.0  0.77318  0.86687  0.41713  1.0000
  H   H2172     1.0  0.83749  0.65621  0.46996  1.0000
  H   H2173     1.0  0.72655  0.77578  0.48415  1.0000
  H   H2174     1.0  0.77211  0.86591  0.42752  1.0000
  H   H2175     1.0  0.92635  0.72515  0.45363  1.0000
  H   H2176     1.0  0.80742  0.65201  0.45216  1.0000
  H   H2177     1.0  0.93655  0.69745  0.45028  1.0000
  C   C1281     1.0  0.80528  0.63369  0.48289  1.0000
  C   C1282     1.0  0.67277  0.62209  0.24930  1.0000
  C   C1283     1.0  0.75742  0.84064  0.41152  1.0000
  H   H2178     1.0  0.73530  0.83819  0.41246  1.0000
  H   H2179     1.0  0.71341  0.80280  0.40136  1.0000
  H   H2180     1.0  0.75243  0.77638  0.41248  1.0000
  H   H2181     1.0  0.97357  0.75492  0.44665  1.0000
  H   H2182     1.0  0.76393  0.88157  0.41380  1.0000
  H   H2183     1.0  0.66182  0.97227  0.37079  1.0000
  C   C1284     1.0  0.71806  0.78814  0.40774  1.0000
  H   H2184     1.0  0.76763  0.82625  0.43676  1.0000
  N   N92       1.0  0.59977  0.70431  0.33627  1.0000
  C   C1285     1.0  0.57228  0.70706  0.33892  1.0000
  C   C1286     1.0  0.59428  0.67702  0.33222  1.0000
  C   C1287     1.0  0.61380  0.72397  0.32578  1.0000
  C   C1288     1.0  0.61620  0.70958  0.34812  1.0000
  C   C1289     1.0  0.57252  0.73475  0.34134  1.0000
  C   C1290     1.0  0.57976  0.65489  0.34202  1.0000
  C   C1291     1.0  0.63483  0.71777  0.31745  1.0000
  C   C1292     1.0  0.64481  0.70697  0.34772  1.0000
  H   H2185     1.0  0.55813  0.70017  0.33098  1.0000
  H   H2186     1.0  0.56207  0.69460  0.34730  1.0000
  H   H2187     1.0  0.61328  0.67361  0.32944  1.0000
  H   H2188     1.0  0.58161  0.67381  0.32359  1.0000
  H   H2189     1.0  0.59844  0.72685  0.31913  1.0000
  H   H2190     1.0  0.62426  0.74339  0.32948  1.0000
  H   H2191     1.0  0.61985  0.72980  0.35079  1.0000
  H   H2192     1.0  0.60465  0.69757  0.35636  1.0000
  S   S366      1.0  0.75022  0.97461  0.48294  1.0000
  H   H2193     1.0  0.58137  0.74894  0.33336  1.0000
  H   H2194     1.0  0.55101  0.73411  0.34251  1.0000
  H   H2195     1.0  0.57811  0.63605  0.33809  1.0000
  H   H2196     1.0  0.59158  0.65611  0.35078  1.0000
  H   H2197     1.0  0.55851  0.65397  0.34408  1.0000
  H   H2198     1.0  0.95394  0.71913  0.46183  1.0000
  H   H2199     1.0  0.86173  0.70961  0.47484  1.0000
  H   H2200     1.0  0.66054  0.72540  0.34414  1.0000
  H   H2201     1.0  0.64567  0.69104  0.34206  1.0000
  H   H2202     1.0  0.65045  0.70182  0.35733  1.0000
  N   N93       1.0  0.66441  0.63171  0.27222  1.0000
  C   C1293     1.0  0.66112  0.63700  0.25835  1.0000
  C   C1294     1.0  0.64963  0.64644  0.27918  1.0000
  C   C1295     1.0  0.65049  0.60293  0.27509  1.0000
  C   C1296     1.0  0.69458  0.63998  0.27514  1.0000
  H   H2203     1.0  0.50176  0.79341  0.27827  1.0000
  C   C1297     1.0  0.65924  0.67605  0.27608  1.0000
  C   C1298     1.0  0.65064  0.59285  0.28884  1.0000
  C   C1299     1.0  0.70282  0.64676  0.28885  1.0000
  H   H2204     1.0  0.63908  0.63251  0.25605  1.0000
  H   H2205     1.0  0.67123  0.65797  0.25556  1.0000
  H   H2206     1.0  0.65075  0.64362  0.28946  1.0000
  H   H2207     1.0  0.62735  0.63869  0.27727  1.0000
  H   H2208     1.0  0.62868  0.59691  0.27211  1.0000
  H   H2209     1.0  0.66021  0.59145  0.26970  1.0000
  H   H2210     1.0  0.70315  0.62473  0.27262  1.0000
  H   H2211     1.0  0.70596  0.65774  0.26921  1.0000
  H   H2212     1.0  0.82976  0.96215  0.43470  1.0000
  H   H2213     1.0  0.51602  0.87207  0.25587  1.0000
  C   C1300     1.0  0.78459  0.87355  0.48243  1.0000
  H   H2214     1.0  0.65128  0.68542  0.28342  1.0000
  H   H2215     1.0  0.68183  0.68503  0.27580  1.0000
  H   H2216     1.0  0.65067  0.68056  0.26703  1.0000
  H   H2217     1.0  0.67157  0.59427  0.29183  1.0000
  H   H2218     1.0  0.63809  0.57188  0.28968  1.0000
  H   H2219     1.0  0.64130  0.60256  0.29540  1.0000
  H   H2220     1.0  0.72109  0.64124  0.29119  1.0000
  H   H2221     1.0  0.68717  0.63686  0.29615  1.0000
  H   H2222     1.0  0.70945  0.66811  0.28978  1.0000
  N   N94       1.0  0.95479  0.73719  0.42969  1.0000
  H   H2223     1.0  0.72335  0.82276  0.46339  1.0000
  C   C1301     1.0  0.93412  0.75108  0.42992  1.0000
  H   H2224     1.0  0.75604  0.84709  0.46260  1.0000
  H   H2225     1.0  0.83895  0.69409  0.45539  1.0000
  C   C1302     1.0  0.75160  0.96504  0.44527  1.0000
  C   C1303     1.0  0.92702  0.76120  0.41703  1.0000
  C   C1304     1.0  0.50189  0.88726  0.27146  1.0000
  C   C1305     1.0  0.80464  0.80096  0.42057  1.0000
  H   H2226     1.0  0.55877  0.89942  0.23837  1.0000
  C   C1306     1.0  0.48697  0.79960  0.27247  1.0000
  H   H2227     1.0  0.94080  0.76787  0.43604  1.0000
  H   H2228     1.0  0.91443  0.73808  0.43425  1.0000
  H   H2229     1.0  0.93449  0.71238  0.41492  1.0000
  H   H2230     1.0  0.76267  0.67773  0.45324  1.0000
  H   H2231     1.0  0.76828  0.91239  0.45527  1.0000
  H   H2232     1.0  0.50071  0.51920  0.31579  1.0000
  H   H2233     1.0  0.65973  0.60132  0.24925  1.0000
  H   H2234     1.0  0.88305  0.89556  0.35733  1.0000
  H   H2235     1.0  0.85497  0.73615  0.46677  1.0000
  H   H2236     1.0  0.69424  0.62381  0.25140  1.0000
  H   H2237     1.0  0.76370  0.65454  0.44227  1.0000
  H   H2238     1.0  0.77722  0.63797  0.46108  1.0000
  H   H2239     1.0  0.62463  0.70124  0.31153  1.0000
  C   C1307     1.0  0.75355  0.96181  0.46828  1.0000
  H   H2240     1.0  0.84929  0.96089  0.44833  1.0000
  C   C1308     1.0  0.96512  0.73532  0.44280  1.0000
  H   H2241     1.0  0.50118  0.83711  0.28009  1.0000
  C   C1309     1.0  0.75809  0.81471  0.48139  1.0000
  C   C1310     1.0  0.94391  0.71818  0.45254  1.0000
  H   H2242     1.0  0.82718  0.80788  0.41901  1.0000
  C   C1311     1.0  0.49465  0.82906  0.24203  1.0000
  N   N95       1.0  0.85410  0.82752  0.35615  1.0000
  C   C1312     1.0  0.86918  0.85369  0.36125  1.0000
  C   C1313     1.0  0.85040  0.80740  0.36688  1.0000
  C   C1314     1.0  0.82659  0.82788  0.35151  1.0000
  C   C1315     1.0  0.87108  0.82353  0.34552  1.0000
  C   C1316     1.0  0.87166  0.87777  0.35242  1.0000
  C   C1317     1.0  0.87685  0.80392  0.37204  1.0000
  C   C1318     1.0  0.80318  0.80154  0.35101  1.0000
  C   C1319     1.0  0.86094  0.79688  0.33965  1.0000
  H   H2243     1.0  0.85911  0.85619  0.37007  1.0000
  H   H2244     1.0  0.89048  0.85532  0.36383  1.0000
  H   H2245     1.0  0.83717  0.78787  0.36435  1.0000
  H   H2246     1.0  0.83938  0.81195  0.37487  1.0000
  H   H2247     1.0  0.81843  0.83965  0.35756  1.0000
  H   H2248     1.0  0.82867  0.83765  0.34195  1.0000
  H   H2249     1.0  0.87252  0.83802  0.33759  1.0000
  H   H2250     1.0  0.89285  0.82762  0.34823  1.0000
  H   H2251     1.0  0.85142  0.87940  0.35008  1.0000
  H   H2252     1.0  0.94455  0.77742  0.41283  1.0000
  H   H2253     1.0  0.88340  0.87823  0.34370  1.0000
  H   H2254     1.0  0.89054  0.82161  0.37626  1.0000
  H   H2255     1.0  0.87117  0.78820  0.37964  1.0000
  H   H2256     1.0  0.88807  0.79753  0.36478  1.0000
  H   H2257     1.0  0.78523  0.80469  0.34639  1.0000
  H   H2258     1.0  0.79610  0.79306  0.36060  1.0000
  H   H2259     1.0  0.80867  0.78722  0.34567  1.0000
  H   H2260     1.0  0.84640  0.79669  0.33195  1.0000
  H   H2261     1.0  0.85135  0.78045  0.34648  1.0000
  H   H2262     1.0  0.87875  0.79265  0.33577  1.0000
  H   H2263     1.0  0.49661  0.88278  0.30217  1.0000
  H   H2264     1.0  0.92157  0.70010  0.43008  1.0000
  C   C1320     1.0  0.74692  0.78476  0.43679  1.0000
  H   H2265     1.0  0.72450  0.77419  0.43752  1.0000
  H   H2266     1.0  0.79090  0.68490  0.44215  1.0000
  C   C1321     1.0  0.56327  0.60062  0.24565  1.0000
  H   H2267     1.0  0.70742  0.78636  0.41690  1.0000
  C   C1322     1.0  0.79195  0.65703  0.45774  1.0000
  H   H2268     1.0  0.95111  0.56445  0.31294  1.0000
  C   C1323     1.0  0.84502  0.71679  0.47167  1.0000
  H   H2269     1.0  0.90991  0.76883  0.41824  1.0000
  H   H2270     1.0  0.64468  0.73481  0.31085  1.0000
  H   H2271     1.0  0.76189  0.84312  0.40123  1.0000
  C   C1324     1.0  0.82174  0.65972  0.47601  1.0000
  H   H2272     1.0  0.80152  0.82970  0.40672  1.0000
  H   H2273     1.0  0.72167  0.86574  0.45611  1.0000
  N   N96       1.0  0.74147  0.83267  0.48155  1.0000
  H   H2274     1.0  0.73381  0.78695  0.46784  1.0000
  H   H2275     1.0  0.79487  0.87439  0.41382  1.0000
  H   H2276     1.0  0.77622  0.82295  0.47499  1.0000
  C   C1325     1.0  0.76285  0.92974  0.45574  1.0000
  H   H2277     1.0  0.79628  0.78376  0.41491  1.0000
  H   H2278     1.0  0.75667  0.77262  0.43214  1.0000
  S   S367      1.0  0.74902  0.97385  0.39828  1.0000
  C   C1326     1.0  0.77650  0.66952  0.44843  1.0000
  H   H2279     1.0  0.78126  0.69738  0.47253  1.0000
  C   C1327     1.0  0.74278  0.78700  0.47727  1.0000
  C   C1328     1.0  0.73654  0.84007  0.46816  1.0000
  N   N97       1.0  0.80557  0.67345  0.46841  1.0000
  H   H2280     1.0  0.78192  0.88227  0.47311  1.0000
  C   C1329     1.0  0.75715  0.65900  0.47918  1.0000
  C   C1330     1.0  0.72258  0.86087  0.46633  1.0000
  H   H2281     1.0  0.51866  0.83526  0.26618  1.0000
  C   C1331     1.0  0.83399  0.96829  0.47435  1.0000
  H   H2282     1.0  0.70116  0.85371  0.46994  1.0000
  H   H2283     1.0  0.83320  0.67195  0.48355  1.0000
  H   H2284     1.0  0.75628  0.63875  0.47829  1.0000
  H   H2285     1.0  0.75754  0.77630  0.47683  1.0000
  H   H2286     1.0  0.82375  0.95326  0.46771  1.0000
  C   C1332     1.0  0.84340  0.97436  0.44171  1.0000
  H   H2287     1.0  0.73406  0.87929  0.47064  1.0000
  H   H2288     1.0  0.50592  0.84908  0.23820  1.0000
  H   H2289     1.0  0.96886  0.57944  0.29908  1.0000
  H   H2290     1.0  0.55948  0.75134  0.24012  1.0000
  H   H2291     1.0  0.96560  0.68904  0.43422  1.0000
  H   H2292     1.0  0.80840  0.97517  0.45226  1.0000
  H   H2293     1.0  0.74791  0.97495  0.43675  1.0000
  H   H2294     1.0  0.96837  0.54718  0.30413  1.0000
  C   C1333     1.0  0.48278  0.50973  0.31038  1.0000
  H   H2295     1.0  0.79924  0.86285  0.48172  1.0000
  C   C1334     1.0  0.57545  0.83597  0.23639  1.0000
  H   H2296     1.0  0.48532  0.78987  0.26352  1.0000
  C   C1335     1.0  0.49584  0.86985  0.26018  1.0000
  H   H2297     1.0  0.84518  0.95952  0.48113  1.0000
  H   H2298     1.0  0.50934  0.82069  0.24653  1.0000
  H   H2299     1.0  0.68060  0.97361  0.35673  1.0000
  C   C1336     1.0  0.97891  0.75168  0.42124  1.0000
  H   H2300     1.0  0.58074  0.81855  0.23587  1.0000
  Fe  Fe180     1.0  0.77442  0.92762  0.64095  1.0000
  S   S368      1.0  0.73734  0.93970  0.63763  1.0000
  S   S369      1.0  0.77120  0.88857  0.65090  1.0000
  H   H2301     1.0  0.87037  0.86731  0.65640  1.0000
  Fe  Fe181     1.0  0.75669  0.95497  0.61861  1.0000
  S   S370      1.0  0.73041  0.94701  0.60122  1.0000
  H   H2302     1.0  0.91180  0.84482  0.64537  1.0000
  S   S371      1.0  0.79191  0.94034  0.62151  1.0000
  S   S372      1.0  0.94971  0.77994  0.63010  1.0000
  Fe  Fe182     1.0  0.79383  0.71138  0.63835  1.0000
  S   S373      1.0  0.76636  0.67447  0.63063  1.0000
  S   S374      1.0  0.83111  0.70900  0.64861  1.0000
  Fe  Fe183     1.0  0.75744  0.74246  0.62977  1.0000
  S   S375      1.0  0.72645  0.70717  0.62182  1.0000
  S   S376      1.0  0.75593  0.78295  0.62416  1.0000
  Fe  Fe184     1.0  0.73227  0.68444  0.63946  1.0000
  S   S377      1.0  0.69561  0.65234  0.64912  1.0000
  Fe  Fe185     1.0  0.76278  0.69963  0.61371  1.0000
  S   S378      1.0  0.76825  0.68626  0.59429  1.0000
  S   S379      1.0  0.76005  0.72066  0.64811  1.0000
  S   S380      1.0  0.79350  0.73555  0.62079  1.0000
  H   H2303     1.0  0.67215  0.64581  0.56814  1.0000
  C   C1337     1.0  0.75711  0.85623  0.48852  1.0000
  Fe  Fe186     1.0  0.92935  0.57464  0.71212  1.0000
  S   S381      1.0  0.90830  0.53931  0.70137  1.0000
  H   H2304     1.0  0.83964  0.87018  0.66235  1.0000
  Fe  Fe187     1.0  0.87149  0.53537  0.71340  1.0000
  S   S382      1.0  0.83156  0.53103  0.70376  1.0000
  Fe  Fe188     1.0  0.91921  0.51582  0.71730  1.0000
  S   S383      1.0  0.89160  0.57136  0.72350  1.0000
  S   S384      1.0  0.94351  0.55157  0.72748  1.0000
  H   H2305     1.0  0.89746  0.61915  0.70885  1.0000
  S   S385      1.0  0.62347  0.51915  0.71792  1.0000
  H   H2306     1.0  0.87781  0.65544  0.69141  1.0000
  H   H2307     1.0  0.94209  0.79224  0.55925  1.0000
  S   S386      1.0  0.68691  0.54247  0.72724  1.0000
  H   H2308     1.0  0.90104  0.67203  0.67215  1.0000
  H   H2309     1.0  0.59740  0.59209  0.71005  1.0000
  Fe  Fe189     1.0  0.66585  0.53268  0.70876  1.0000
  S   S387      1.0  0.68761  0.56547  0.69375  1.0000
  H   H2310     1.0  0.61995  0.97389  0.61652  1.0000
  Fe  Fe190     1.0  0.77708  0.97325  0.53002  1.0000
  H   H2311     1.0  0.88983  0.64736  0.71233  1.0000
  H   H2312     1.0  0.75048  0.66002  0.48895  1.0000
  H   H2313     1.0  0.89780  0.83532  0.63059  1.0000
  C   C1338     1.0  0.88647  0.63940  0.69251  1.0000
  Fe  Fe191     1.0  0.77253  0.92161  0.52022  1.0000
  S   S388      1.0  0.75633  0.87970  0.52707  1.0000
  S   S389      1.0  0.74337  0.94413  0.51980  1.0000
  Fe  Fe192     1.0  0.75670  0.72747  0.52234  1.0000
  S   S390      1.0  0.80241  0.74612  0.52210  1.0000
  S   S391      1.0  0.73337  0.72265  0.54095  1.0000
  H   H2314     1.0  0.93110  0.72766  0.49795  1.0000
  H   H2315     1.0  0.67200  0.65786  0.70853  1.0000
  Fe  Fe193     1.0  0.80159  0.71799  0.50746  1.0000
  H   H2316     1.0  0.70711  0.66737  0.56868  1.0000
  Fe  Fe194     1.0  0.79588  0.77108  0.50590  1.0000
  H   H2317     1.0  0.93886  0.70821  0.54097  1.0000
  S   S392      1.0  0.75617  0.69719  0.50865  1.0000
  S   S393      1.0  0.75006  0.75456  0.50683  1.0000
  H   H2318     1.0  0.73281  0.80337  0.50393  1.0000
  C   C1339     1.0  0.86433  0.72080  0.50382  1.0000
  C   C1340     1.0  0.86674  0.74704  0.50321  1.0000
  C   C1341     1.0  0.70021  0.63906  0.70297  1.0000
  H   H2319     1.0  0.81989  0.62533  0.48756  1.0000
  H   H2320     1.0  0.79228  0.63661  0.49051  1.0000
  C   C1342     1.0  0.88753  0.71374  0.50188  1.0000
  H   H2321     1.0  0.96237  0.61636  0.65662  1.0000
  H   H2322     1.0  0.96881  0.66926  0.69341  1.0000
  H   H2323     1.0  0.93640  0.76541  0.57037  1.0000
  S   S394      1.0  0.94693  0.78422  0.49671  1.0000
  C   C1343     1.0  0.77682  0.86212  0.52233  1.0000
  C   C1344     1.0  0.80102  0.87445  0.51541  1.0000
  C   C1345     1.0  0.81493  0.85954  0.51001  1.0000
  C   C1346     1.0  0.80479  0.83239  0.51166  1.0000
  C   C1347     1.0  0.78173  0.82028  0.51933  1.0000
  C   C1348     1.0  0.76766  0.83512  0.52461  1.0000
  H   H2324     1.0  0.80850  0.89536  0.51384  1.0000
  H   H2325     1.0  0.86883  0.65775  0.66419  1.0000
  H   H2326     1.0  0.77431  0.79940  0.52098  1.0000
  H   H2327     1.0  0.74911  0.82554  0.53009  1.0000
  C   C1349     1.0  0.80243  0.52360  0.71357  1.0000
  C   C1350     1.0  0.77740  0.52282  0.70828  1.0000
  C   C1351     1.0  0.75332  0.51471  0.71566  1.0000
  H   H2328     1.0  0.90166  0.78987  0.52673  1.0000
  H   H2329     1.0  0.61584  0.59728  0.58430  1.0000
  C   C1352     1.0  0.80345  0.51674  0.72634  1.0000
  H   H2330     1.0  0.77652  0.52822  0.69841  1.0000
  H   H2331     1.0  0.63681  0.58785  0.59544  1.0000
  C   C1353     1.0  0.88961  0.65678  0.66580  1.0000
  N   N98       1.0  0.87432  0.61916  0.68306  1.0000
  C   C1354     1.0  0.76108  0.69932  0.57958  1.0000
  C   C1355     1.0  0.74544  0.71575  0.57864  1.0000
  C   C1356     1.0  0.73763  0.72326  0.56674  1.0000
  C   C1357     1.0  0.74615  0.71520  0.55564  1.0000
  C   C1358     1.0  0.76275  0.69965  0.55659  1.0000
  C   C1359     1.0  0.76985  0.69149  0.56849  1.0000
  H   H2332     1.0  0.73878  0.72217  0.58706  1.0000
  H   H2333     1.0  0.72478  0.73527  0.56611  1.0000
  H   H2334     1.0  0.76927  0.69311  0.54815  1.0000
  H   H2335     1.0  0.78189  0.67874  0.56909  1.0000
  C   C1360     1.0  0.69414  0.62799  0.66135  1.0000
  C   C1361     1.0  0.71757  0.62591  0.66726  1.0000
  C   C1362     1.0  0.71521  0.60646  0.67695  1.0000
  C   C1363     1.0  0.68947  0.58874  0.68094  1.0000
  C   C1364     1.0  0.66607  0.59071  0.67496  1.0000
  C   C1365     1.0  0.66842  0.61019  0.66531  1.0000
  H   H2336     1.0  0.73753  0.63934  0.66438  1.0000
  H   H2337     1.0  0.73351  0.60526  0.68146  1.0000
  H   H2338     1.0  0.64611  0.57724  0.67779  1.0000
  H   H2339     1.0  0.65012  0.61145  0.66083  1.0000
  C   C1366     1.0  0.91680  0.76003  0.63513  1.0000
  C   C1367     1.0  0.91325  0.73869  0.64359  1.0000
  C   C1368     1.0  0.88682  0.72338  0.64778  1.0000
  C   C1369     1.0  0.86383  0.72879  0.64321  1.0000
  C   C1370     1.0  0.86735  0.74968  0.63446  1.0000
  C   C1371     1.0  0.89384  0.76554  0.63058  1.0000
  H   H2340     1.0  0.93092  0.73435  0.64712  1.0000
  H   H2341     1.0  0.88418  0.70723  0.65454  1.0000
  H   H2342     1.0  0.84975  0.75359  0.63067  1.0000
  H   H2343     1.0  0.89659  0.78187  0.62391  1.0000
  C   C1372     1.0  0.64130  0.60814  0.70493  1.0000
  C   C1373     1.0  0.76572  0.85911  0.64333  1.0000
  C   C1374     1.0  0.76562  0.85832  0.63025  1.0000
  C   C1375     1.0  0.76200  0.83469  0.62460  1.0000
  C   C1376     1.0  0.75857  0.81160  0.63194  1.0000
  C   C1377     1.0  0.75838  0.81230  0.64503  1.0000
  C   C1378     1.0  0.76193  0.83595  0.65067  1.0000
  H   H2344     1.0  0.76846  0.87594  0.62449  1.0000
  H   H2345     1.0  0.76213  0.83435  0.61448  1.0000
  H   H2346     1.0  0.75541  0.79466  0.65080  1.0000
  H   H2347     1.0  0.76174  0.83633  0.66080  1.0000
  H   H2348     1.0  0.96310  0.75823  0.55334  1.0000
  C   C1379     1.0  0.72882  0.95205  0.57550  1.0000
  C   C1380     1.0  0.73935  0.96213  0.56343  1.0000
  C   C1381     1.0  0.66594  0.59753  0.72295  1.0000
  H   H2349     1.0  0.70849  0.93775  0.57651  1.0000
  H   H2350     1.0  0.72699  0.95587  0.55525  1.0000
  H   H2351     1.0  0.67761  0.92453  0.63768  1.0000
  H   H2352     1.0  0.66380  0.96021  0.65597  1.0000
  H   H2353     1.0  0.91052  0.63002  0.67104  1.0000
  C   C1382     1.0  0.71531  0.81011  0.50196  1.0000
  C   C1383     1.0  0.90753  0.75405  0.53447  1.0000
  H   H2354     1.0  0.69677  0.79298  0.50431  1.0000
  H   H2355     1.0  0.69145  0.96777  0.69262  1.0000
  H   H2356     1.0  0.62866  0.63928  0.72005  1.0000
  H   H2357     1.0  0.83026  0.58586  0.69764  1.0000
  H   H2358     1.0  0.64193  0.94850  0.62608  1.0000
  N   N99       1.0  0.67285  0.97617  0.63668  1.0000
  C   C1384     1.0  0.95718  0.61560  0.67677  1.0000
  H   H2359     1.0  0.81148  0.82847  0.65591  1.0000
  S   S395      1.0  0.79862  0.96564  0.64936  1.0000
  H   H2360     1.0  0.85596  0.80583  0.62202  1.0000
  H   H2361     1.0  0.61913  0.60780  0.72787  1.0000
  H   H2362     1.0  0.69770  0.96511  0.65084  1.0000
  C   C1385     1.0  0.97315  0.66999  0.67321  1.0000
  H   H2363     1.0  0.84090  0.63372  0.67938  1.0000
  C   C1386     1.0  0.93149  0.77100  0.56073  1.0000
  S   S396      1.0  0.83215  0.69711  0.50678  1.0000
  C   C1387     1.0  0.69329  0.64703  0.57044  1.0000
  N   N100      1.0  0.93766  0.76172  0.53767  1.0000
  H   H2364     1.0  0.68022  0.66981  0.60711  1.0000
  H   H2365     1.0  0.84382  0.87108  0.64586  1.0000
  N   N101      1.0  0.88690  0.70102  0.60177  1.0000
  C   C1388     1.0  0.88865  0.72710  0.59558  1.0000
  C   C1389     1.0  0.86127  0.68120  0.59709  1.0000
  C   C1390     1.0  0.91164  0.69494  0.59748  1.0000
  C   C1391     1.0  0.88656  0.70299  0.61582  1.0000
  C   C1392     1.0  0.91506  0.75009  0.59791  1.0000
  C   C1393     1.0  0.83420  0.68558  0.60027  1.0000
  C   C1394     1.0  0.91404  0.66875  0.60225  1.0000
  C   C1395     1.0  0.87547  0.67735  0.62409  1.0000
  H   H2366     1.0  0.88651  0.72587  0.58521  1.0000
  H   H2367     1.0  0.87148  0.73321  0.59883  1.0000
  H   H2368     1.0  0.85891  0.66119  0.60062  1.0000
  H   H2369     1.0  0.86239  0.68056  0.58668  1.0000
  H   H2370     1.0  0.91287  0.69582  0.58702  1.0000
  H   H2371     1.0  0.93080  0.70973  0.60049  1.0000
  H   H2372     1.0  0.90741  0.71381  0.61915  1.0000
  H   H2373     1.0  0.87382  0.71483  0.61832  1.0000
  H   H2374     1.0  0.91231  0.76851  0.59435  1.0000
  H   H2375     1.0  0.91981  0.75205  0.60800  1.0000
  H   H2376     1.0  0.93300  0.74862  0.59277  1.0000
  H   H2377     1.0  0.81673  0.66811  0.59798  1.0000
  H   H2378     1.0  0.83211  0.68858  0.61036  1.0000
  H   H2379     1.0  0.83174  0.70215  0.59451  1.0000
  H   H2380     1.0  0.93261  0.66678  0.59785  1.0000
  H   H2381     1.0  0.89652  0.65180  0.59959  1.0000
  H   H2382     1.0  0.91738  0.66812  0.61251  1.0000
  H   H2383     1.0  0.88969  0.67801  0.63199  1.0000
  H   H2384     1.0  0.87311  0.65934  0.61934  1.0000
  H   H2385     1.0  0.85552  0.67569  0.62852  1.0000
  H   H2386     1.0  0.83800  0.82315  0.61276  1.0000
  C   C1396     1.0  0.64874  0.63019  0.59099  1.0000
  H   H2387     1.0  0.82615  0.77673  0.64043  1.0000
  C   C1397     1.0  0.88346  0.63014  0.70651  1.0000
  H   H2388     1.0  0.88572  0.69342  0.50232  1.0000
  H   H2389     1.0  0.69878  0.63503  0.56354  1.0000
  H   H2390     1.0  0.87586  0.81645  0.65668  1.0000
  C   C1398     1.0  0.97161  0.65530  0.66270  1.0000
  H   H2391     1.0  0.69129  0.63707  0.69344  1.0000
  C   C1399     1.0  0.93619  0.71611  0.53145  1.0000
  H   H2392     1.0  0.90214  0.59822  0.68762  1.0000
  H   H2393     1.0  0.82248  0.61547  0.69890  1.0000
  H   H2394     1.0  0.70984  0.67724  0.59736  1.0000
  C   C1400     1.0  0.82458  0.60115  0.69234  1.0000
  H   H2395     1.0  0.74446  0.86867  0.49017  1.0000
  H   H2396     1.0  0.64376  0.64188  0.58314  1.0000
  C   C1401     1.0  0.67635  0.68653  0.58901  1.0000
  H   H2397     1.0  0.83636  0.60415  0.67274  1.0000
  C   C1402     1.0  0.91537  0.75932  0.49885  1.0000
  S   S397      1.0  0.66859  0.49197  0.70982  1.0000
  C   C1403     1.0  0.69373  0.97623  0.62682  1.0000
  H   H2398     1.0  0.87937  0.61625  0.66301  1.0000
  Fe  Fe195     1.0  0.68711  0.50177  0.72875  1.0000
  H   H2399     1.0  0.87145  0.58633  0.69629  1.0000
  H   H2400     1.0  0.90392  0.74717  0.52479  1.0000
  H   H2401     1.0  0.71881  0.64645  0.58603  1.0000
  C   C1404     1.0  0.74433  0.96045  0.58625  1.0000
  H   H2402     1.0  0.87153  0.76601  0.53330  1.0000
  H   H2403     1.0  0.71693  0.65339  0.61478  1.0000
  S   S398      1.0  0.79975  0.74495  0.49115  1.0000
  H   H2404     1.0  0.86234  0.61825  0.70940  1.0000
  H   H2405     1.0  0.60768  0.57648  0.69769  1.0000
  H   H2406     1.0  0.76715  0.81280  0.49071  1.0000
  C   C1405     1.0  0.75413  0.50691  0.72832  1.0000
  H   H2407     1.0  0.83276  0.49103  0.68382  1.0000
  H   H2408     1.0  0.84592  0.56638  0.67691  1.0000
  H   H2409     1.0  0.87245  0.55454  0.68201  1.0000
  H   H2410     1.0  0.72709  0.63194  0.60507  1.0000
  C   C1406     1.0  0.67604  0.95882  0.64769  1.0000
  H   H2411     1.0  0.95120  0.59466  0.67800  1.0000
  C   C1407     1.0  0.95909  0.63031  0.68730  1.0000
  S   S399      1.0  0.96382  0.71774  0.62263  1.0000
  C   C1408     1.0  0.89394  0.77517  0.53467  1.0000
  C   C1409     1.0  0.77063  0.97886  0.58482  1.0000
  C   C1410     1.0  0.66692  0.92937  0.64562  1.0000
  H   H2412     1.0  0.73404  0.51398  0.71149  1.0000
  C   C1411     1.0  0.61406  0.58533  0.70684  1.0000
  S   S400      1.0  0.80508  0.94981  0.53112  1.0000
  N   N102      1.0  0.67874  0.64015  0.59415  1.0000
  C   C1412     1.0  0.68234  0.62454  0.60576  1.0000
  H   H2413     1.0  0.76187  0.85015  0.49808  1.0000
  H   H2414     1.0  0.64894  0.59794  0.57939  1.0000
  H   H2415     1.0  0.91415  0.70966  0.52910  1.0000
  C   C1413     1.0  0.68714  0.66830  0.59737  1.0000
  H   H2416     1.0  0.63676  0.62389  0.69923  1.0000
  H   H2417     1.0  0.84437  0.77663  0.66284  1.0000
  C   C1414     1.0  0.96354  0.62803  0.66462  1.0000
  H   H2418     1.0  0.66763  0.62473  0.61335  1.0000
  H   H2419     1.0  0.67784  0.60377  0.60382  1.0000
  H   H2420     1.0  0.65407  0.68225  0.59056  1.0000
  H   H2421     1.0  0.61597  0.56981  0.71349  1.0000
  H   H2422     1.0  0.90901  0.76642  0.56039  1.0000
  C   C1415     1.0  0.86843  0.57199  0.67792  1.0000
  H   H2423     1.0  0.62943  0.95771  0.63995  1.0000
  H   H2424     1.0  0.69531  0.61592  0.58339  1.0000
  H   H2425     1.0  0.65417  0.60106  0.69877  1.0000
  C   C1416     1.0  0.64403  0.96541  0.63187  1.0000
  H   H2426     1.0  0.70948  0.60597  0.72727  1.0000
  C   C1417     1.0  0.71422  0.81971  0.48813  1.0000
  H   H2427     1.0  0.67179  0.91925  0.65416  1.0000
  H   H2428     1.0  0.68666  0.70685  0.59168  1.0000
  N   N103      1.0  0.65655  0.61844  0.71669  1.0000
  H   H2429     1.0  0.90901  0.64866  0.69086  1.0000
  C   C1418     1.0  0.83728  0.81137  0.62165  1.0000
  H   H2430     1.0  0.68078  0.68615  0.57892  1.0000
  H   H2431     1.0  0.70659  0.62203  0.70548  1.0000
  C   C1419     1.0  0.84425  0.61484  0.68132  1.0000
  N   N104      1.0  0.77098  0.89354  0.57067  1.0000
  C   C1420     1.0  0.75867  0.90094  0.58203  1.0000
  C   C1421     1.0  0.76377  0.90710  0.55917  1.0000
  C   C1422     1.0  0.80174  0.90186  0.57155  1.0000
  C   C1423     1.0  0.75975  0.86441  0.57000  1.0000
  C   C1424     1.0  0.76613  0.89115  0.59493  1.0000
  C   C1425     1.0  0.73336  0.89745  0.55547  1.0000
  C   C1426     1.0  0.81657  0.93097  0.57359  1.0000
  C   C1427     1.0  0.76741  0.85341  0.55801  1.0000
  H   H2432     1.0  0.76440  0.92236  0.58217  1.0000
  H   H2433     1.0  0.73591  0.89360  0.58170  1.0000
  H   H2434     1.0  0.77599  0.90599  0.55082  1.0000
  H   H2435     1.0  0.76927  0.92827  0.56043  1.0000
  H   H2436     1.0  0.80792  0.89033  0.57916  1.0000
  H   H2437     1.0  0.81086  0.89771  0.56283  1.0000
  H   H2438     1.0  0.76681  0.85476  0.57811  1.0000
  H   H2439     1.0  0.73699  0.85723  0.57096  1.0000
  H   H2440     1.0  0.78841  0.89893  0.59673  1.0000
  H   H2441     1.0  0.75590  0.89819  0.60238  1.0000
  H   H2442     1.0  0.75860  0.86964  0.59613  1.0000
  H   H2443     1.0  0.72651  0.87707  0.55266  1.0000
  H   H2444     1.0  0.71974  0.89960  0.56299  1.0000
  H   H2445     1.0  0.73078  0.90945  0.54713  1.0000
  H   H2446     1.0  0.81063  0.93688  0.58262  1.0000
  H   H2447     1.0  0.81322  0.94369  0.56575  1.0000
  H   H2448     1.0  0.83898  0.93470  0.57393  1.0000
  H   H2449     1.0  0.77700  0.83853  0.56063  1.0000
  H   H2450     1.0  0.78182  0.86796  0.55147  1.0000
  H   H2451     1.0  0.74864  0.84339  0.55273  1.0000
  H   H2452     1.0  0.80401  0.59068  0.68859  1.0000
  H   H2453     1.0  0.88816  0.85900  0.63896  1.0000
  H   H2454     1.0  0.94323  0.80291  0.53852  1.0000
  H   H2455     1.0  0.83898  0.82547  0.66510  1.0000
  H   H2456     1.0  0.71897  0.65657  0.70235  1.0000
  H   H2457     1.0  0.69232  0.65197  0.72070  1.0000
  C   C1428     1.0  0.94122  0.75545  0.55136  1.0000
  H   H2458     1.0  0.81117  0.75440  0.66004  1.0000
  H   H2459     1.0  0.67214  0.58663  0.71570  1.0000
  C   C1429     1.0  0.95012  0.74597  0.53003  1.0000
  C   C1430     1.0  0.77925  0.50810  0.73366  1.0000
  H   H2460     1.0  0.80016  0.78779  0.64595  1.0000
  S   S401      1.0  0.79201  0.93754  0.50140  1.0000
  C   C1431     1.0  0.88885  0.62937  0.67061  1.0000
  H   H2461     1.0  0.89499  0.73716  0.54064  1.0000
  C   C1432     1.0  0.69051  0.60638  0.73194  1.0000
  H   H2462     1.0  0.95010  0.75178  0.51987  1.0000
  H   H2463     1.0  0.97924  0.69093  0.67199  1.0000
  H   H2464     1.0  0.83302  0.86899  0.50422  1.0000
  H   H2465     1.0  0.87883  0.57655  0.66860  1.0000
  H   H2466     1.0  0.81892  0.79367  0.62118  1.0000
  Fe  Fe196     1.0  0.82135  0.96876  0.51226  1.0000
  C   C1433     1.0  0.67999  0.64272  0.71268  1.0000
  H   H2467     1.0  0.87208  0.79978  0.64264  1.0000
  H   H2468     1.0  0.92992  0.73462  0.55397  1.0000
  H   H2469     1.0  0.84815  0.84749  0.63056  1.0000
  C   C1434     1.0  0.82321  0.77542  0.66037  1.0000
  H   H2470     1.0  0.94619  0.70704  0.52480  1.0000
  H   H2471     1.0  0.79478  0.68603  0.48597  1.0000
  H   H2472     1.0  0.82273  0.51747  0.73051  1.0000
  C   C1435     1.0  0.84808  0.86180  0.65476  1.0000
  C   C1436     1.0  0.89262  0.84065  0.63993  1.0000
  H   H2473     1.0  0.81385  0.78298  0.66792  1.0000
  C   C1437     1.0  0.63736  0.60165  0.58736  1.0000
  H   H2474     1.0  0.81380  0.82817  0.63281  1.0000
  C   C1438     1.0  0.87012  0.81744  0.64664  1.0000
  C   C1439     1.0  0.63705  0.62532  0.72513  1.0000
  Fe  Fe197     1.0  0.76562  0.96253  0.50157  1.0000
  S   S402      1.0  0.95197  0.61587  0.70300  1.0000
  S   S403      1.0  0.81940  0.81376  0.50314  1.0000
  H   H2475     1.0  0.95080  0.79381  0.52370  1.0000
  Fe  Fe198     1.0  0.76264  0.97861  0.64457  1.0000
  H   H2476     1.0  0.90072  0.66175  0.65661  1.0000
  C   C1440     1.0  0.87973  0.59434  0.68681  1.0000
  N   N105      1.0  0.84089  0.81697  0.64555  1.0000
  C   C1441     1.0  0.82188  0.78914  0.64746  1.0000
  C   C1442     1.0  0.83486  0.82720  0.63285  1.0000
  C   C1443     1.0  0.83393  0.83209  0.65566  1.0000
  H   H2477     1.0  0.64868  0.58280  0.72825  1.0000
  H   H2478     1.0  0.97125  0.70177  0.56286  1.0000
  C   C1444     1.0  0.95255  0.79006  0.53399  1.0000
  H   H2479     1.0  0.70256  0.83343  0.48840  1.0000
  C   C1445     1.0  0.71110  0.63339  0.61157  1.0000
  C   C1446     1.0  0.69687  0.63666  0.58385  1.0000
  H   H2480     1.0  0.89677  0.78506  0.54359  1.0000
  C   C1447     1.0  0.91315  0.73306  0.49939  1.0000
  H   H2481     1.0  0.63618  0.63227  0.59907  1.0000
  H   H2482     1.0  0.71098  0.62060  0.62005  1.0000
  S   S404      1.0  0.88043  0.50893  0.72831  1.0000
  H   H2483     1.0  0.79423  0.88992  0.48851  1.0000
  H   H2484     1.0  0.97194  0.74978  0.53237  1.0000
  C   C1448     1.0  0.96719  0.65759  0.68538  1.0000
  H   H2485     1.0  0.71943  0.96674  0.67386  1.0000
  H   H2486     1.0  0.69062  0.95631  0.62387  1.0000
  Fe  Fe199     1.0  0.81309  0.97917  0.62955  1.0000
  H   H2487     1.0  0.71633  0.82569  0.50842  1.0000
  C   C1449     1.0  0.89212  0.76622  0.50064  1.0000
  Fe  Fe200     1.0  0.75444  0.72636  0.49306  1.0000
  H   H2488     1.0  0.64447  0.92092  0.64433  1.0000
  H   H2489     1.0  0.84914  0.75277  0.50484  1.0000
  C   C1450     1.0  0.76536  0.98105  0.56202  1.0000
  H   H2490     1.0  0.89378  0.78652  0.50027  1.0000
  Fe  Fe201     1.0  0.63089  0.53597  0.96966  1.0000
  C   C1451     1.0  0.77117  0.48991  0.96427  1.0000
  H   H2491     1.0  0.96154  0.59767  0.84302  1.0000
  Fe  Fe202     1.0  0.63881  0.50700  0.94595  1.0000
  H   H2492     1.0  0.68678  0.59201  0.74009  1.0000
  S   S405      1.0  0.60500  0.50033  0.96025  1.0000
  H   H2493     1.0  0.77999  0.50223  0.74347  1.0000
  Fe  Fe203     1.0  0.68227  0.52080  0.96627  1.0000
  S   S406      1.0  0.72809  0.53856  0.97032  1.0000
  H   H2494     1.0  0.90487  0.48663  0.81446  1.0000
  S   S407      1.0  0.66305  0.54516  0.95411  1.0000
  H   H2495     1.0  0.94480  0.54667  0.76797  1.0000
  S   S408      1.0  0.94971  0.53064  0.96197  1.0000
  Fe  Fe204     1.0  0.87029  0.50798  0.96868  1.0000
  S   S409      1.0  0.89761  0.54983  0.96838  1.0000
  H   H2496     1.0  0.72256  0.57103  0.78592  1.0000
  Fe  Fe205     1.0  0.91687  0.54077  0.95100  1.0000
  S   S410      1.0  0.91780  0.56462  0.93260  1.0000
  Fe  Fe206     1.0  0.92824  0.53594  0.97948  1.0000
  H   H2497     1.0  0.69108  0.54804  0.78150  1.0000
  Fe  Fe207     1.0  0.90370  0.54549  0.73785  1.0000
  H   H2498     1.0  0.72964  0.48946  0.96132  1.0000
  Fe  Fe208     1.0  0.65668  0.50994  0.85242  1.0000
  H   H2499     1.0  0.74945  0.54957  0.87789  1.0000
  S   S411      1.0  0.66908  0.53149  0.87047  1.0000
  Fe  Fe209     1.0  0.63492  0.50984  0.82540  1.0000
  S   S412      1.0  0.88871  0.49977  0.95110  1.0000
  H   H2500     1.0  0.76605  0.55619  0.86253  1.0000
  H   H2501     1.0  0.80441  0.52100  0.92543  1.0000
  H   H2502     1.0  0.85161  0.52842  0.91903  1.0000
  C   C1452     1.0  0.84450  0.51985  0.92861  1.0000
  H   H2503     1.0  0.74936  0.56114  0.76988  1.0000
  S   S413      1.0  0.67572  0.53011  0.83391  1.0000
  Fe  Fe210     1.0  0.90379  0.52593  0.86038  1.0000
  S   S414      1.0  0.85817  0.50693  0.85975  1.0000
  S   S415      1.0  0.92765  0.52443  0.87828  1.0000
  Fe  Fe211     1.0  0.90900  0.53547  0.83128  1.0000
  S   S416      1.0  0.86396  0.51767  0.82886  1.0000
  S   S417      1.0  0.93783  0.54691  0.81418  1.0000
  Fe  Fe212     1.0  0.86015  0.53931  0.84558  1.0000
  S   S418      1.0  0.82882  0.55922  0.84618  1.0000
  H   H2504     1.0  0.54471  0.48996  0.94982  1.0000
  S   S419      1.0  0.90546  0.56009  0.84711  1.0000
  C   C1453     1.0  0.74257  0.50042  0.88704  1.0000
  S   S420      1.0  0.89065  0.54537  0.75845  1.0000
  S   S421      1.0  0.63411  0.54939  0.75120  1.0000
  C   C1454     1.0  0.92481  0.54663  0.79866  1.0000
  C   C1455     1.0  0.89804  0.54617  0.79649  1.0000
  C   C1456     1.0  0.88823  0.54599  0.78414  1.0000
  C   C1457     1.0  0.90490  0.54616  0.77373  1.0000
  C   C1458     1.0  0.93168  0.54646  0.77587  1.0000
  C   C1459     1.0  0.94159  0.54684  0.78827  1.0000
  H   H2505     1.0  0.88499  0.54649  0.80431  1.0000
  H   H2506     1.0  0.86758  0.54598  0.78262  1.0000
  C   C1460     1.0  0.62392  0.53463  0.79416  1.0000
  C   C1461     1.0  0.61737  0.55461  0.78769  1.0000
  C   C1462     1.0  0.62097  0.55869  0.77465  1.0000
  C   C1463     1.0  0.63066  0.54255  0.76770  1.0000
  C   C1464     1.0  0.63713  0.52219  0.77406  1.0000
  C   C1465     1.0  0.63403  0.51839  0.78734  1.0000
  H   H2507     1.0  0.60933  0.56709  0.79280  1.0000
  H   H2508     1.0  0.61582  0.57438  0.76989  1.0000
  H   H2509     1.0  0.64438  0.50944  0.76876  1.0000
  H   H2510     1.0  0.79425  0.54487  0.87629  1.0000
  C   C1466     1.0  0.75110  0.51031  0.82727  1.0000
  C   C1467     1.0  0.75368  0.53531  0.83072  1.0000
  C   C1468     1.0  0.77793  0.55070  0.83623  1.0000
  C   C1469     1.0  0.79924  0.54082  0.83853  1.0000
  C   C1470     1.0  0.79634  0.51568  0.83518  1.0000
  C   C1471     1.0  0.73619  0.51667  0.86520  1.0000
  H   H2511     1.0  0.73704  0.54279  0.82917  1.0000
  H   H2512     1.0  0.78002  0.57008  0.83889  1.0000
  H   H2513     1.0  0.81187  0.50729  0.83756  1.0000
  H   H2514     1.0  0.65275  0.62211  0.74410  1.0000
  C   C1472     1.0  0.91817  0.55167  0.91768  1.0000
  C   C1473     1.0  0.92738  0.53073  0.91619  1.0000
  C   C1474     1.0  0.92956  0.52229  0.90409  1.0000
  C   C1475     1.0  0.92173  0.53407  0.89338  1.0000
  C   C1476     1.0  0.91156  0.55442  0.89490  1.0000
  C   C1477     1.0  0.91014  0.56338  0.90697  1.0000
  H   H2515     1.0  0.69542  0.52103  0.76092  1.0000
  H   H2516     1.0  0.71523  0.55408  0.80788  1.0000
  H   H2517     1.0  0.90577  0.56390  0.88674  1.0000
  H   H2518     1.0  0.90322  0.57974  0.90799  1.0000
  C   C1478     1.0  0.75405  0.52415  0.96996  1.0000
  C   C1479     1.0  0.74963  0.50010  0.96486  1.0000
  Fe  Fe213     1.0  0.86608  0.48688  0.84315  1.0000
  C   C1480     1.0  0.79737  0.50353  0.96875  1.0000
  C   C1481     1.0  0.80182  0.52758  0.97386  1.0000
  H   H2519     1.0  0.93764  0.50668  0.90304  1.0000
  H   H2520     1.0  0.78283  0.48661  0.87268  1.0000
  C   C1482     1.0  0.69847  0.54642  0.80114  1.0000
  H   H2521     1.0  0.84259  0.54352  0.95313  1.0000
  C   C1483     1.0  0.84604  0.56081  0.94648  1.0000
  C   C1484     1.0  0.63705  0.50416  0.91103  1.0000
  C   C1485     1.0  0.79865  0.55703  0.94038  1.0000
  C   C1486     1.0  0.66818  0.53554  0.89611  1.0000
  C   C1487     1.0  0.65615  0.52047  0.88597  1.0000
  C   C1488     1.0  0.63471  0.49702  0.88845  1.0000
  C   C1489     1.0  0.54642  0.49006  0.93945  1.0000
  H   H2522     1.0  0.82844  0.57819  0.96092  1.0000
  H   H2523     1.0  0.68478  0.55371  0.89431  1.0000
  H   H2524     1.0  0.85749  0.57064  0.92196  1.0000
  H   H2525     1.0  0.74672  0.52925  0.76680  1.0000
  C   C1490     1.0  0.77259  0.50068  0.82931  1.0000
  C   C1491     1.0  0.81961  0.52676  0.93303  1.0000
  N   N106      1.0  0.82539  0.55476  0.93602  1.0000
  H   H2526     1.0  0.76182  0.55731  0.79156  1.0000
  C   C1492     1.0  0.70930  0.55027  0.78743  1.0000
  C   C1493     1.0  0.71276  0.49568  0.89122  1.0000
  H   H2527     1.0  0.71340  0.50992  0.86539  1.0000
  H   H2528     1.0  0.75819  0.55634  0.93473  1.0000
  N   N107      1.0  0.74709  0.49884  0.87319  1.0000
  H   H2529     1.0  0.97475  0.59203  0.88062  1.0000
  H   H2530     1.0  0.74110  0.51590  0.85515  1.0000
  C   C1494     1.0  0.74672  0.54577  0.86783  1.0000
  S   S422      1.0  0.82357  0.48945  0.96780  1.0000
  H   H2531     1.0  0.68436  0.55765  0.80219  1.0000
  H   H2532     1.0  0.78238  0.56510  0.92198  1.0000
  H   H2533     1.0  0.56166  0.49080  0.82103  1.0000
  S   S423      1.0  0.72387  0.49452  0.73744  1.0000
  H   H2534     1.0  0.71217  0.49874  0.90141  1.0000
  H   H2535     1.0  0.74992  0.48622  0.89256  1.0000
  H   H2536     1.0  0.86475  0.58710  0.96107  1.0000
  N   N108      1.0  0.72429  0.53238  0.78360  1.0000
  H   H2537     1.0  0.79028  0.54317  0.94858  1.0000
  H   H2538     1.0  0.70449  0.50969  0.88632  1.0000
  H   H2539     1.0  0.75474  0.51963  0.89044  1.0000
  C   C1495     1.0  0.78026  0.53782  0.97444  1.0000
  S   S424      1.0  0.65133  0.51403  0.98213  1.0000
  H   H2540     1.0  0.78158  0.50885  0.86019  1.0000
  Fe  Fe214     1.0  0.91927  0.48996  0.96330  1.0000
  H   H2541     1.0  0.81882  0.52983  0.87319  1.0000
  H   H2542     1.0  0.82175  0.53817  0.97747  1.0000
  C   C1496     1.0  0.77578  0.55213  0.93058  1.0000
  H   H2543     1.0  0.63866  0.50258  0.79223  1.0000
  H   H2544     1.0  0.82463  0.56410  0.91593  1.0000
  C   C1497     1.0  0.79811  0.52622  0.87730  1.0000
  H   H2545     1.0  0.86180  0.52601  0.93512  1.0000
  C   C1498     1.0  0.64841  0.63685  0.73767  1.0000
  C   C1499     1.0  0.83695  0.57162  0.92433  1.0000
  C   C1500     1.0  0.71249  0.53984  0.76045  1.0000
  H   H2546     1.0  0.80127  0.57637  0.94391  1.0000
  H   H2547     1.0  0.56918  0.50609  0.97960  1.0000
  H   H2548     1.0  0.55832  0.97632  0.97814  1.0000
  H   H2549     1.0  0.82559  0.60519  0.93025  1.0000
  H   H2550     1.0  0.73107  0.55449  0.86475  1.0000
  H   H2551     1.0  0.68663  0.52586  0.80387  1.0000
  S   S425      1.0  0.62329  0.49340  0.92644  1.0000
  H   H2552     1.0  0.95929  0.55284  0.84064  1.0000
  C   C1501     1.0  0.76673  0.51996  0.79024  1.0000
  S   S426      1.0  0.89882  0.49431  0.98105  1.0000
  H   H2553     1.0  0.97514  0.51625  0.84198  1.0000
  C   C1502     1.0  0.70490  0.50465  0.78490  1.0000
  H   H2554     1.0  0.70416  0.55591  0.76127  1.0000
  H   H2555     1.0  0.81039  0.51349  0.94137  1.0000
  H   H2556     1.0  0.56330  0.50829  0.93653  1.0000
  H   H2557     1.0  0.66812  0.53930  0.91625  1.0000
  H   H2558     1.0  0.76773  0.53150  0.92815  1.0000
  S   S427      1.0  0.91164  0.50324  0.84468  1.0000
  H   H2559     1.0  0.78387  0.55644  0.97841  1.0000
  C   C1503     1.0  0.74840  0.53650  0.79220  1.0000
  H   H2560     1.0  0.86198  0.61153  0.92831  1.0000
  H   H2561     1.0  0.68391  0.50390  0.78219  1.0000
  C   C1504     1.0  0.73466  0.54082  0.77030  1.0000
  C   C1505     1.0  0.77714  0.50425  0.87039  1.0000
  S   S428      1.0  0.61655  0.52996  0.81054  1.0000
  S   S429      1.0  0.72080  0.49028  0.82089  1.0000
  H   H2562     1.0  0.93377  0.52160  0.92431  1.0000
  C   C1506     1.0  0.84690  0.58335  0.95475  1.0000
  S   S430      1.0  0.60682  0.56056  0.97738  1.0000
  S   S431      1.0  0.61462  0.49300  0.84420  1.0000
  H   H2563     1.0  0.63241  0.64245  0.74246  1.0000
  H   H2564     1.0  0.79910  0.52055  0.88740  1.0000
  C   C1507     1.0  0.84131  0.60086  0.92472  1.0000
  H   H2565     1.0  0.83972  0.60882  0.91505  1.0000
  C   C1508     1.0  0.65883  0.52738  0.90858  1.0000
  H   H2566     1.0  0.97278  0.61292  0.86753  1.0000
  H   H2567     1.0  0.86718  0.56532  0.94269  1.0000
  H   H2568     1.0  0.74151  0.53211  0.80215  1.0000
  H   H2569     1.0  0.84940  0.60171  0.94926  1.0000
  H   H2570     1.0  0.72192  0.54238  0.75091  1.0000
  H   H2571     1.0  0.96239  0.54732  0.78979  1.0000
  H   H2572     1.0  0.52749  0.49122  0.93501  1.0000
  H   H2573     1.0  0.66659  0.65470  0.73646  1.0000
  H   H2574     1.0  0.84641  0.49398  0.78286  1.0000
  C   C1509     1.0  0.62512  0.48905  0.90089  1.0000
  H   H2575     1.0  0.53407  0.49210  0.97587  1.0000
  Fe  Fe215     1.0  0.68383  0.49339  0.83049  1.0000
  H   H2576     1.0  0.89660  0.49331  0.79096  1.0000
  H   H2577     1.0  0.83853  0.49842  0.92820  1.0000
  H   H2578     1.0  0.57423  0.49293  0.79235  1.0000
  H   H2579     1.0  0.86184  0.49472  0.80388  1.0000
  H   H2580     1.0  0.97453  0.52589  0.85756  1.0000
  H   H2581     1.0  0.95449  0.56849  0.86131  1.0000
  H   H2582     1.0  0.87274  0.48940  0.77313  1.0000
  H   H2583     1.0  0.70316  0.49719  0.79491  1.0000
  H   H2584     1.0  0.77564  0.52269  0.78064  1.0000
  C   C1510     1.0  0.54820  0.50021  0.98362  1.0000
  H   H2585     1.0  0.93308  0.49203  0.80395  1.0000
  Fe  Fe216     1.0  0.64541  0.52642  0.73638  1.0000
  H   H2586     1.0  0.75558  0.49912  0.79278  1.0000
  S   S432      1.0  0.64707  0.48643  0.73925  1.0000
  H   H2587     1.0  0.78419  0.52605  0.79679  1.0000
  C   C1511     1.0  0.97702  0.57585  0.86267  1.0000
  H   H2588     1.0  0.73312  0.48939  0.77411  1.0000
  H   H2589     1.0  0.81602  0.48371  0.80131  1.0000
  H   H2590     1.0  0.69441  0.62546  0.73590  1.0000
  C   C1512     1.0  0.71145  0.48454  0.77695  1.0000
  H   H2591     1.0  0.55761  0.48498  0.77775  1.0000
  H   H2592     1.0  0.62531  0.48519  0.88077  1.0000
