data_image0
_chemical_formula_structural       CFeS2FeSHFeSHCSCH5SH6CHNHCFeCHFeH2FeCSH4C6HCH3SH2NC7H4C2FeC2SC2HSCH6CNC5HC2H2NH18CFeH3CHCH3C2HFeSH3CHCHSHCH3NCH4CH3C2H3C2H2CH3CS2C2H2CH7C2H2SN2FeHFeS2H2FeS3FeS2FeS2FeHFeS3C2NFeH3SH3CFeS3CHCHFeSHSH5C4HCSHCNH3C2HNH2CHC2HC6H4C6H4CH2C4HCH4C6H7C7H7CH4C2FeH2CH4CH4C2H4CHFeCHNCH8C2HCNH3CHSC3H6CH2CH8CH3CHCH3CH3C2H2C3H2SCH3CH2C2HCH3C4H2SH2CH4C2H5C2SCH3FeSHFeS2FeSFeS3FeS2FeSH2FeS3FeS2FeS2FeSFeS3FeS2FeS2FeSFeS3CS3FeS2H2CFeS2H2FeSCSH9CH2CSH2C3HSHCHC6H3C6H4CSH5CNC6H4C5H2CHCH2CHCSHC6H4C5HCSH3C6H4C6H4C3H2C6H4CH7CHCH5FeC2H4CH2CH4CHC2H3CFeH2CH3CH6SH4CHCHC2HCH3CH2CH2NH4CNC7H15CH2CH2SH5C3SH6CH2CH4CNC8H22CH2CFeNHN2C7H14NCH2CSCH3C2HC3H2CH3CHCH4C4H2FeC4H4NHCH2CHNH8C2H2CHCH4FeHCHC3H4SHCHCHFeH3SCH4CH6NHCH3FeH4CH3C2H3CH4CH10FeS2FeS2FeSFeCS2FeS2FeSHFeSFeS3CHFeHSCH4FeH3CHNH2C2H2C3FeC2H3C4NH5CHCH2SCHNHC6H4C6H5C2H4SH4CHC2H4NHCHCH3CH4CHC3H2SH4CH3SH3SHCH4CH5SHSC4HCH2C5H3CH2CH3CH3CHC2H2SH2C2HCH2C2HSHCHFeH7CH3C2H4C2FeS2FeS2FeSFeS3H3CNHSCNFeSCSH2C3H2FeS2FeS2FeSFeS3H6CSHFeHSHCHCH2CH3FeCH2CH2CHCH5CH2C3H3C6H3C6HCH2C6H6C2HSHCH2CHC6H4CSC4H4FeHC3HCH2CNH2CH2C4H2CNC8H11CH9SH2CH2SHCHNHCHC3H3C3H8NC8H9SHCHCH6C3H8CHCHSHCSC2HCHCHC2H2C2SH2C2H8CNCHCHCH3CH4SFeHCH4CH2CHNFeH2CHSH3FeH2C5HNH2SHSCHCSHFeH8CH2CH5SCFeC3NHFeCSCH3SH2FeH3CHCH3CH3CHC2HSHCH2CH2CHCH3CNCH2NHC2H2CH5CH3CHC2H8CH2CH2CH2CH2CH4C4SH5CHCH3SH4FeH2CSHC2HCFeS2FeS2FeHFeS3H3C2H2CH3C4HSCH4C6H4CH2NSH2CHC3H5CH4CH2SHNH2SCSNCFeH3C2HCH4C2SFeH7CHCH3CFeC2HC2H2CH2C2SCHCHSC2H2CH5C2HC3H2C2H2CH7CHCH2CHCHSHSFeS2FeS2FeSFeS2HS2HCSHSH2C3H3C6H4C6H4C6H4C6H8C2H2FeC2H6CH4SFeH2CSH3CHSFeCH3CFeH3CH2C2HCHNSH5C2H3FeH2SNH2CHCH3C2H4CH4CH2CHNH3CH7C2H2CH2C4FeHCH2CH2CHCNHCHC3HCH4CHSCSHCH2CH2CSCH3CH2CH2C2H2CH3SH5FeH2NHNH5C2HCHCH2CHS2CSFeSFeS2FeSFeS3HCSCFeSHFeH4SFeS2FeSHFeSFeS3HFeS2FeS2FeSFeS3FeHSH2CH3FeS2FeS2FeSFeS2C5H5SCHC4H2C6H7C3H3CH3C6H4NC3H2C6H4C4HCH4CH2CFeH8SHC2H2C7H4C6H4C6H3C6H4SFeH3CHCHCS2CSH2CH4NC7H7CHNHSC2H2NC5HC2HCH9C2H7NC2HSC3H3CH3CH7SC2H2CHC3HFeHSH2C3SNH6CHSH2CH4CH2NC8H21NC8H11FeH4SHC3HC2FeH2CHC2HCHSCHCH6C3H3C2H2CH3CSH6C2H2C2H4FeCSHNC2H3FeHSCNCFeCSH2FeH2SCH2FeH4C2H2CHFeH2SC2H5CH2FeCH6SCHSHCSHCNH3C2HSH6C3HC3H3SHS2H2FeHCH2SHFeH4CSCNCHSHCHCH4CHC2H3C2H6SC2H2C2H3CH4CH10NHC2NCH7CH2C2H5SH4CH2CH3CH2C2H7NHC2H3NC5H2CH2C2HC3H2CH2SH4CH3C2SCH3SCSH2CFeSNC2FeH6FeCSFeS2Fe2CS2FeS2FeS2FeSFeS3FeS2FeS2FeSFeS3FeSFeS2FeSFeCS2H3S3HFeSHSH3SC2HCH2CH3NHC6H5C6H5CSC3FeCH2C6H4CHSH3C7H4C5H3C3H2C6H7SH3C7H4C6H4SC2HNC8H14FeH10C3HFeH2CH3CSHCH5C2NH4C2H8CHC4SH2C2H4CHNC8H22CHC3H2C2H5CH2CHCH3CH4CH3CFeH3SH5SC2H2CHFe2H3CH3C3HC2H2NHNC4HC3H8FeH3CHSH5SHSH4FeH2CH7CH2NHCNHCH5SC3HCH2NCHCHCH2CH3CHCH5CHC3H3CH3C2HSH3NH4CH6CH2FeH2NH8CH6S2H3CH3CHFeS2FeS2FeSFeS3FeSFeS2FeSFeS3NHCSH3CFeS2FeH5S2H3CH2CHC7HCH5CHC6H4C6H4CHC4H3CH2C2H2FeC6H2SCH2CHC3H3SH6CHC4H3CH4CH3NHSH5SH7SH4CH2C3H2C2H3C2HCHC2HC2H6CH2CHCH3C2HCHNH5CH3C2HC4H2C4NH6CH2CH2NCH5C2H2NH2CHNH2C2FeC2H2CHCHSC3HC2HSH6FeHSHCHC4H2NH2SH4FeH3C4HCH7C2NH4S2HC2HCFeCH2CH2S2FeSFeSFeS2FeS2FeSFeS3H2FeS2FeHFeSH2FeS2FeS2Fe2S3H2CSCH2CH2CHC6H4C6H4C3H6NC6H4C6H6C4H3C2SHCH2CH2FeH2CH3CSCHCH4S2CHCHCHCH6CH6NCFeCHCS2H2CHCH3C2SCHCH8CHC2H2CH4CH9CNHCHC3H2CHCH2NC5H6CHCH2C2HNC8H24CH2CH5SH2C2H2C3H5C3HCH2CH4CSH2SCSHC2HNH3NH2C2H3CH7SCH4FeSC2H3FeS2FeSFeS3FeS2FeSHFeSFeS3CFeH3CHCHCFeHCFeSHCHCFeSHFeS5FeSFeS3HCHSHC3HCH2FeHSCHC7H10C3H6CHSHC6H4CH2C3H2CH3C7H4CSH4CH3C7H7FeH4CH2C2HCFeC2FeH7SNHCH8CH3CHC2H2C2HCH6CHCHCH8NC2H3C2SC3NH2CH4CHCHSH2SH3CFeSHCH3CHSH2CH3CHSCH6CH7NH3NC8H18CHCHC2HCHNC2H4CH2NH6CSHCH4CH3C2HCHC2HC4NHCH2CHSHCHC3S2FeS2H4C2H4SHSHFeHC2HCH3CHC6H5FeHCHCHCSH3SFeHCH3S2H3CHCHC2SCH2CHCH2CH2FeHCH4CHCHFeHNHCH3CH2C2HCSH3FeHCHCS2NHCH5CHCHC2H2CH3CH3CH2SHCH2CH2CSH6FeSHFe4SH2SCHSCSCH2C3H2CH2FeS2FeS2FeSFeS3FeS2FeS2FeSFeS3FeS2FeS2CFeS3FeHSFeHSFeSCSH3C7H4C6H4C2H5C6H4C6H4C6H5C4H3C6H4C5H3C2H6C6H4CH9CHC2H2C2H2C6H4NC8H26CHCFeH2CFeSH3CHCH6CH7C2H2C2SCSC2H2S2HSHCHNH5SFe2H2FeHNCH2NH2C2HSH4CNC8H12C2H5SNC6HCH18NC6H12CH3SHCSCHC4HC2H3NH4CH2CHCHCH2CH3C2NCHCHCNCH5SC2H3CHC2SHC2H4CHNHCHCH2C3H9CH8CH4CH4C2H2SC3HSH5C2HSH3C2HNHCHSHCH8SC2H2CHC2HCH2CH2C3HSH4CH7FeH3CHCHCH3NFeHC3SFeSFeS2FeS2FeSFeS3CFeSNFeSFeSFeSHSH2SH4CHFeSFeS2FeSFeS4CSHSHFeSFeSC2FeSHFeS2FeS2FeSFeS3HC6H5C6H3C6H4C7H4C6H3C6H7CH3C3HCHC5H5C7H4C6H5C3H4NC3HC7H4NC6H13NC2HCHCHCH4NH5SH4CH4NC8H21NHNH2C2HCH3CH2C2FeH3CHCH2NH4CH3CFeC2H3C2H2CNHCHCH2C2NCH3CH3CH8CH2CH4FeH6CH7CH3FeCH2SH3SCHSH2C2H2CHCH6C2HCH5SHCSH2SH2CH3SHSNCH2CHCHSHCHC2H2SCH2FeH3SNH5C3H2CHCH5CH3C2H2CH5CH3NC3H7CSCFeHCH2CSH3CHC2H2C2HSC2HC2H2SNCFeH3CH2C3HNCSFeHCH2CHCHSCHC4H12SNH5C2HC2H5SH3CH3CHC2H3CH11C4HSHSHFeC3HNHC3HFe3C2SCH3CH7C2SHSC2HCH3C2H2C3HCHCH3CH2C2SH2CH3C3HC2H6CH3SH3SH2C2H5CHC2H4CH4FeHSH2CSFeHSFeSHFeSHSH3CH2CH2SH2CHFeS2FeS2FeSFeS3C6H4CSC5H3SH2CHCHNHFeC6H6Fe2HC2HC4H4C6H4C2NC2H2SHC2FeCHC2HCH9SCH4NC8H2SCH7C3H6C2HC2H2CSCNH2FeCHFeCNH3S2H10C3H6C2SHC2SH5CH5SH3CHCHNHCSC2NH2CH2CH7C2HCH2SCH2C3H6CH4C4SH2CFeSH2FeSFeS2FeSFeS3HC2HSH2FeS2FeS2FeSFeS4CSH6SC2HFeH3NH2CH2C2HCHC6H2FeSCH2CHCHC6H4C6H7C3HSHC6H2CHC6H7CH2CH2CH6C2H2C2SH4SH4NC8H25CH2CHC3H3CHCHCH2NC2SHSCH3CH4FeH3CH4C2H2FeNC8H10CHCH2SCHSCH3NH2CH2CH5CNH2C2HFeSH2C2HFeHCHCHCH8CHCH2C2HFeHNHCH2C2H10FeH5CH3C4H3CH5CHCSHSH4NSHFeS2FeS2FeHFeS3FeS2CSCH2FeS3H2SHCHC2H3SHFeS2FeHFeSHSCH5FeH2SCH7CH3C2H2CH2FeHC2SH2C6HCH2FeCHC4H2CH3CHCH3C2H6CHCH3C7H4C6HCH2CHC6HCHCHCHCH6C2H5C2SH3CH5CHCNC5H5CH6NSH4CH2NH4CHCH2NC8H20CH4SH4CNH4CHSCNH5CH3CH2NCSHSFeC2H3CH2CH2FeNCH3CHCH2FeH2CH3C4HSH2SHCHCH5CNHCH2SHC2NSHC4H3C2HCNCHCH3CHCH2CH2CFeS2FeS2FeSFeS3FeS2FeS2FeSFeS3FeS2FeH2FeCFeS2Fe2HSCFeSH2S5HSFeSH2S2FeS2FeS2FeSFeS2H2SH2CH2C2H2CHC6H5FeH2C6H2C2HSH3C6H8CSHCHCH3CH3C4HCH2C8H4C4HCH2C6H4C6H4C6H5C4H3CH7SCH2CSH4SH4C2H4CH2NCH3C3H6S2C3HFeHCH6CSH3C2H2SCSH2FeHCHCSHCNC4H2CH7CHNHCSH5CH2NC5H8C2H3FeH3SCNC8H20NC5H14C2HNH2CH4C2H4CH3C2H7CH3C3H2C3HSH2CHCHC2NC8H19CNC8H14CH6CSC3HFeH5FeH3SH2CHCH3SH4NH3CH5FeHC2HC2HC3NH6C2HC3H4C2H4CHFeS2FeSFeSFeS3FeS2FeS2FeHFeHS2H2CSFeSCSHC3H2C2H2CH3CHCH2CHSCH5CHNHNHC2H2C2HCH2C6H6CH3CHC2HC3H2C6H5CH3NC7H3SHCH4C2H3CH2CSCH3C2H5C5HCHCHCHSHC4HC3H8CH4CH3CHCH2CFeHNC8H11C2H7CFeH3CSCH5CHCH2CFeNCH2CH2C2HC2H3SHCH2CSH2SH2CH2NH12SH3NHC3SCSH3NHC2H4CH7CSH2FeS2FeS2FeSFeS3CHC2S2HCH2SFeHSFeS2FeSCS3FeS2FeS2FeSFeS4FeHSC2H3S2FeSFeS2FeSCFeSFeS3HC3HNCHCH2C6H4CHC6H4C3H2C6H4C6H8C7H4CHC2HC2HFeSHSH4FeC6H3C6H4C6H4C3H2C5H5NC8H20NC4HC4H5SHCH5CHCH2NCH3CHCSHNC8H13SH6NC8H20SNH3CH3CH2FeH3FeHC2NC8H20NC8H21NCH4CH2CH5CSH2C2SCH2CH2CH3CH2C2FeCH2CH4C2SH3CHCHCH3FeHFeC3H2SH2CHSH3CH4FeH2SHCFeC2H2CFe2HCH2CHCSCHCHFeSCHSHCH3NCHFeH4CH2SH8SH2CH2CH5C2HC2H4NSHC2FeH2CHCH7FeCSHCNCHCS2H2SC4H5CFeC2H3CH5NCHC2H3NHCSH4CHCHCH2CH3CH3CNCH4C2H4CH2C2HFeHCH4C2H3CSH2CSCHCHS2H2C3H3CH9C3HCH4C2H4FeS2FeS2FeSFeS3H2SHFeSFeS2FeSFeS2H2FeHFeCSHCHS2H2CH2CH3C2HC2H2CH5C3SC6H4C2H2C2H3C6H4C6H4C4H4CHC6H3SH3FeCH2C2FeHSH5CH4SHCH4C2H2FeH3NH6CH3NH5NC7H20CFeCNCH2CHSCHNC2H2CH13CHCH4C2NC3NC2H3C2H2CHFeHCHCH3CHC3HCH3CHCHC2H6CHC2SC2HCHCSCHCH10CH2CH4S2H7CH4CSHSH2C3H3CHC2H2S2FeS2HS2C5H4C2H4SC6H4C5H3FeHSCHSCSH2C2H5FeH2FeH2C2H2SH2CHSHFeH3FeCH2CH2CSHCHSH3C2HSH2CHCH3NC2HCHCHCSH2SCH5CH5CH2SHCHFeC2NH4SH2CHFeCH9CFeCFe2C3HCSH3NHC2H3CHNH4CS2CSCHCSC3H2CHCH3CHCH3CH6SCHCHNFeCHNC2H3FeS2FeHFeS4CS2FeS2FeS2FeSFeS3FeS2FeS2FeHFeS3CHSCH3SH3FeS2HSFe3SHSHCFeS2HCFeSCSC6H9C6H4C2H3CHNH3C2SH3CH3C6H4C6H4C6H5C6H6FeHS2H4C6H4CH2C3H4FeHCHC2H7SHNH2C2H2NHCHC2H6CNC8H22FeHNH4C2HCH2CH5C6H5CH3FeCH4CH3CH10CH2FeH2CFeHFeCH2C2HC2HC2SH3CH7CH7NC8H14CHCH2CNC8H20NC5HC2HSH10SH4CHFeNC8H8CHCHC2HCH3C3HCH3SC2H3C2HSNCHSNCH2SCHNH2SC2H2C2H3CH3CHSHCHCSHCH5FeSHCHC2H2CHCFeCH3CSH2CHCH4SH3CHCHC2H2C2HCNCSH3CHCH4NCH2CHC2H2CHC2H2NH3CHCH9CFeHCH2CH3CHSH2C2H4NH2CH7C2HCH2SH4SH2FeS2FeS2FeSFeS3FeS2FeS2FeSFeS3HSH2CHFeSC2FeSFeS2FeSFeS3FeS2C3HFeHCH2SHSCHC2SHCHSNCHC4H12C4H4C6H5C6H4C3H3C6H4C5H4FeC6H4C3H2C6SH5CHNCHCH2CH4CH8NC8H20CH2NH3CHC2H2C3H3CHCHCH5CH7CH2CHCH2C2H6CH4C2H6SCHCH2C2H2NCHC2H3CH2C2H3CH3C3SCHSH5FeH2SCHC2H2C3H3CNC8H15C2H4C3HCH3NH2NHCH2CHC4H2CHCH2C3H3CHC2H3SH2CSHCH2CHCHCH3CH11CH2CHFeCHCH2C3H3C2HSHCHCHCHN2H3FeH4CHC3H2NCHCNCHCHCH15CHC3HCHCH3CSHCH3SHCH5CH2CH3SHCSFeHFeH2C2H3FeS2H2Fe2SFeHSCFeS2FeS2FeSFeHS3FeSCHCH5C7H3C4HCH3CH2CSH3CHC6H4C6H5C2HSH6CH2FeNH2CH5CH3NH3CSC2NCHFeH2S2H2CH7CH2SCH7S2CFeCHCHCH4C2SHC2H3C3H3CH2SC3H4NHCNH4CH2SHC3H2NH2CH6NC3H2C2HSH2C3H3CH3C2HCHC3H11C2HC2H5FeS2FeSHFeHFeSHSCHCHCSCSHNH5CHFeHNHCFeCS2HCHCHCHC5HCHC2HFeH2SH2CSH2SH4C7H2CHCH2SC2HNH2SHCH4CHCHCH3FeC2H5CHCHCHCH2C2HC3HCH2CH3CH3CH2SC2H3SH2FeS2FeSCHSHFeS2HSHFeSHCSCHFeH2CSH3CSCH4CH4CHFeS2HCSCH4SFeHCHCFeC2H2S2CHCH3SH5FeCHFeSCHCHFeC4H4FeC2SHC2NCHC2H3CNH3CHC7H7CHCHCHCNHCFeC6H2SHC6H6CH2CH2SCH2CH4CH2SH5CHFeHNH5SH3C2HCHS2H2CH3CH2CHNCH6CHCH3CH2FeC2H2NH3CFeC2HSH3CH2CHCH3FeHCHCSHS2H2FeS2FeS2FeSFeS2HCSCFeCFeSNHCHSH2C2SH2C2FeHC6H4C6H4C3H2CHC6H2C2H4SCH2CHCH2CH5CHFeCH3NC6H16SH2SCH6NHNH3NCFeH2SCH2SH7C2H3CH7FeH2SHC2HCHC2FeH2C2N2HCNCSH2C2HC3HCSCHCHCHC4HCH3C2H4CH2CHC2H3CH2CHCH3C2SC2HC4H3FeHSFeCH2CH2CH3SCH4SH2CH2CH2CH3NCH3C3H10SCSFeHCS2HFeSH2FeSHSFeS2FeS2FeSFeS4FeS2FeS2FeSFeS3HFeSCFeS2FeSFeS3H3SCH2FeSHFeS2FeS2FeSFeS2H2C7H4C6H4SHC3HCH3C6H4CH2C4H3C6H4C6H4C6H5C5H4C4HFeH3CHCH4CH2C5HCH4CH2CHC6H8N2C7H17NH2CH3C2HCH11CH4SH2FeH2C2H2SH3FeH4SH3CH2CH2NC8H20CNHC4HC2H8C2H8CH2CFeHC4HCH2CSCH2C2HC2H2C2HCH3CHC2H2SHNC3H7SHSHCH5CH3CHCHSH3SH3CH2NCHFeCHC2H2FeHSHFeH3FeC2H6SH4C3H3NHC2HNH2CH3CH3SC2HSHNHCH3C4H7C2H2CFeCHCH4CH4CH2SHNCH5CHC2H2C2H4CH2C3H3C3H2CH2C2SCH5FeC2HC2HCH2CHCH2SHNHC2H2SCFeHCHCHSH3C3HNHCH7CH3SCH2CH2CHCHCH2SH2CHC2HFeH2C2H2CH4CHCH6C2SHFeCHCHSHSH2C2NHCSH2SHC2SH5FeS2FeS2FeSFeS3FeS2FeS2FeSFeS4C2SCHSHC4H3S3HC6H5C3HCNH3C6H3S2HSHCH2CHC6H4SFeHCSCH2FeCH2C7H3C2HC3SH2C2H2C6H4C3NH2NC8H21CH5NC2HCH8CH5CH4CHNC6HCH14CH5C3H3FeCH3CSHCHC3HFe2H5CH2FeCHC2HSH2CHCHFeH6CNC8H20NC8H19C2H7C3SCH6CHNCH2CHSH3CH6NH2C2HCH7C2SHCH2CHSCH3FeC2H3NH3CH5CH7CHFeC2H2CFeCH2CNH2CFeS2FeS2FeSFeHS3CH2CH3C2H4CH2S2HCH2C7H3CNH3CHCHC5H3C6H3C2H2C4H4CHCH4CHCHSH2CH8FeCHCH2CHSH10FeH2CNH5CHSCHCNCHCHSH4FeC2SCHC3SHSC2H4CHCH4C3HCH4CH5C2H2SHCHFeH4CHCHCH2CH4CH6
_chemical_formula_sum              "C4032 Fe576 S1152 H6912 N288"
_cell_length_a       97.9879
_cell_length_b       99.4261
_cell_length_c       99.801
_cell_angle_alpha    73.6297
_cell_angle_beta     73.5838
_cell_angle_gamma    73.6527

_space_group_name_H-M_alt    "P 1"
_space_group_IT_number       1

loop_
  _space_group_symop_operation_xyz
  'x, y, z'

loop_
  _atom_site_type_symbol
  _atom_site_label
  _atom_site_symmetry_multiplicity
  _atom_site_fract_x
  _atom_site_fract_y
  _atom_site_fract_z
  _atom_site_occupancy
  C   C1        1.0  0.47139  0.07443  0.14631  1.0000
  Fe  Fe1       1.0  0.48230  0.17088  0.08764  1.0000
  S   S1        1.0  0.47306  0.18805  0.10018  1.0000
  S   S2        1.0  0.48536  0.17895  0.06392  1.0000
  Fe  Fe2       1.0  0.48521  0.14716  0.11427  1.0000
  S   S3        1.0  0.47577  0.16241  0.12904  1.0000
  H   H1        1.0  0.43535  0.23681  0.99016  1.0000
  Fe  Fe3       1.0  0.45971  0.17269  0.11489  1.0000
  S   S4        1.0  0.43564  0.18001  0.12283  1.0000
  H   H2        1.0  0.37491  0.22006  0.10423  1.0000
  C   C2        1.0  0.49333  0.03567  0.17651  1.0000
  S   S5        1.0  0.46781  0.15608  0.10152  1.0000
  C   C3        1.0  0.47157  0.00940  0.20083  1.0000
  H   H3        1.0  0.47153  0.24070  0.99727  1.0000
  H   H4        1.0  0.48286  0.04867  0.19216  1.0000
  H   H5        1.0  0.48725  0.09000  0.16870  1.0000
  H   H6        1.0  0.44222  0.02641  0.22080  1.0000
  H   H7        1.0  0.46987  0.00374  0.19349  1.0000
  S   S6        1.0  0.40219  0.21965  0.07503  1.0000
  H   H8        1.0  0.46957  0.21057  0.07629  1.0000
  H   H9        1.0  0.49493  0.04151  0.00607  1.0000
  H   H10       1.0  0.47953  0.13098  0.21278  1.0000
  H   H11       1.0  0.48046  0.21039  0.05165  1.0000
  H   H12       1.0  0.40997  0.07025  0.23701  1.0000
  H   H13       1.0  0.49507  0.20088  0.06972  1.0000
  C   C4        1.0  0.46430  0.00310  0.21637  1.0000
  H   H14       1.0  0.46263  0.13317  0.20825  1.0000
  N   N1        1.0  0.48516  0.22337  0.06320  1.0000
  H   H15       1.0  0.49078  0.22119  0.02735  1.0000
  C   C5        1.0  0.49996  0.05090  0.00040  1.0000
  Fe  Fe4       1.0  0.46112  0.07823  0.23082  1.0000
  C   C6        1.0  0.45337  0.14735  0.16659  1.0000
  H   H16       1.0  0.48607  0.04150  0.16939  1.0000
  Fe  Fe5       1.0  0.40941  0.23972  0.06151  1.0000
  H   H17       1.0  0.36904  0.23800  0.08521  1.0000
  H   H18       1.0  0.50253  0.10179  0.14671  1.0000
  Fe  Fe6       1.0  0.48548  0.05924  0.21430  1.0000
  C   C7        1.0  0.48234  0.22137  0.04985  1.0000
  S   S7        1.0  0.49521  0.12418  0.12300  1.0000
  H   H19       1.0  0.48150  0.12032  0.19184  1.0000
  H   H20       1.0  0.45247  0.00481  0.21690  1.0000
  H   H21       1.0  0.48122  0.09167  0.13360  1.0000
  H   H22       1.0  0.45831  0.14315  0.15675  1.0000
  C   C8        1.0  0.42656  0.19158  0.10959  1.0000
  C   C9        1.0  0.43250  0.20261  0.09940  1.0000
  C   C10       1.0  0.42490  0.21165  0.08894  1.0000
  C   C11       1.0  0.41155  0.20943  0.08850  1.0000
  C   C12       1.0  0.40569  0.19842  0.09867  1.0000
  C   C13       1.0  0.41305  0.18968  0.10929  1.0000
  H   H23       1.0  0.44281  0.20428  0.09972  1.0000
  C   C14       1.0  0.48181  0.13180  0.19027  1.0000
  H   H24       1.0  0.39541  0.19661  0.09834  1.0000
  H   H25       1.0  0.40841  0.18122  0.11715  1.0000
  H   H26       1.0  0.48499  0.24108  0.07183  1.0000
  S   S8        1.0  0.46154  0.06586  0.21504  1.0000
  H   H27       1.0  0.47254  0.02852  0.21451  1.0000
  H   H28       1.0  0.37546  0.21641  0.12268  1.0000
  N   N2        1.0  0.47659  0.14060  0.17692  1.0000
  C   C15       1.0  0.50285  0.06630  0.14365  1.0000
  C   C16       1.0  0.46696  0.10328  0.16398  1.0000
  C   C17       1.0  0.46439  0.02478  0.22412  1.0000
  C   C18       1.0  0.50063  0.03188  0.19880  1.0000
  C   C19       1.0  0.48425  0.11645  0.13879  1.0000
  C   C20       1.0  0.46907  0.12103  0.14145  1.0000
  C   C21       1.0  0.46043  0.11434  0.15397  1.0000
  H   H29       1.0  0.41020  0.19616  0.05543  1.0000
  H   H30       1.0  0.46398  0.12960  0.13377  1.0000
  H   H31       1.0  0.44867  0.11784  0.15598  1.0000
  H   H32       1.0  0.35126  0.23972  0.09598  1.0000
  C   C22       1.0  0.41325  0.18533  0.06228  1.0000
  C   C23       1.0  0.49146  0.03967  0.18942  1.0000
  Fe  Fe7       1.0  0.48823  0.08920  0.21298  1.0000
  C   C24       1.0  0.47662  0.15633  0.17404  1.0000
  C   C25       1.0  0.48214  0.09871  0.16126  1.0000
  S   S9        1.0  0.50057  0.16032  0.09884  1.0000
  C   C26       1.0  0.46116  0.13906  0.17896  1.0000
  C   C27       1.0  0.48746  0.23825  0.06122  1.0000
  H   H33       1.0  0.47698  0.08209  0.12342  1.0000
  S   S10       1.0  0.46430  0.09844  0.21419  1.0000
  C   C28       1.0  0.48967  0.16015  0.17691  1.0000
  H   H34       1.0  0.42949  0.22008  0.08104  1.0000
  H   H35       1.0  0.47226  0.22893  0.04718  1.0000
  H   H36       1.0  0.50176  0.05489  0.00899  1.0000
  H   H37       1.0  0.46664  0.02095  0.19735  1.0000
  H   H38       1.0  0.47057  0.06346  0.14676  1.0000
  H   H39       1.0  0.44305  0.03848  0.23080  1.0000
  C   C29       1.0  0.50227  0.21219  0.08097  1.0000
  N   N3        1.0  0.44112  0.18187  0.05828  1.0000
  C   C30       1.0  0.43894  0.19799  0.05296  1.0000
  C   C31       1.0  0.42868  0.17743  0.05581  1.0000
  C   C32       1.0  0.45517  0.17515  0.04923  1.0000
  C   C33       1.0  0.44185  0.17804  0.07389  1.0000
  C   C34       1.0  0.45112  0.20474  0.05350  1.0000
  H   H40       1.0  0.46959  0.15517  0.04483  1.0000
  C   C35       1.0  0.45998  0.15868  0.05316  1.0000
  C   C36       1.0  0.43669  0.16437  0.08337  1.0000
  H   H41       1.0  0.43747  0.20127  0.04172  1.0000
  H   H42       1.0  0.42880  0.20357  0.05938  1.0000
  N   N4        1.0  0.49763  0.07246  0.12985  1.0000
  H   H43       1.0  0.42938  0.17921  0.04411  1.0000
  H   H44       1.0  0.45461  0.17835  0.03771  1.0000
  H   H45       1.0  0.46448  0.17907  0.04977  1.0000
  H   H46       1.0  0.45313  0.17702  0.07496  1.0000
  H   H47       1.0  0.43505  0.18680  0.07928  1.0000
  H   H48       1.0  0.44717  0.21659  0.05166  1.0000
  H   H49       1.0  0.45416  0.20104  0.06405  1.0000
  H   H50       1.0  0.46093  0.20265  0.04486  1.0000
  H   H51       1.0  0.42925  0.16574  0.05998  1.0000
  H   H52       1.0  0.40513  0.17923  0.06283  1.0000
  H   H53       1.0  0.47598  0.16158  0.16270  1.0000
  H   H54       1.0  0.41225  0.18657  0.07322  1.0000
  H   H55       1.0  0.48038  0.05161  0.12736  1.0000
  H   H56       1.0  0.45148  0.15314  0.05355  1.0000
  H   H57       1.0  0.42478  0.16559  0.08500  1.0000
  H   H58       1.0  0.43875  0.16258  0.09420  1.0000
  H   H59       1.0  0.44246  0.15457  0.07927  1.0000
  H   H60       1.0  0.48155  0.13949  0.15458  1.0000
  C   C37       1.0  0.49078  0.10526  0.14868  1.0000
  Fe  Fe8       1.0  0.49005  0.17617  0.11273  1.0000
  H   H61       1.0  0.35460  0.23584  0.11899  1.0000
  H   H62       1.0  0.47829  0.06478  0.00231  1.0000
  H   H63       1.0  0.45280  0.15906  0.16408  1.0000
  C   C38       1.0  0.47183  0.22128  0.07503  1.0000
  H   H64       1.0  0.47433  0.07466  0.15619  1.0000
  C   C39       1.0  0.36545  0.23868  0.11448  1.0000
  H   H65       1.0  0.46373  0.15509  0.06337  1.0000
  H   H66       1.0  0.47139  0.14823  0.20335  1.0000
  H   H67       1.0  0.49430  0.20895  0.09097  1.0000
  C   C40       1.0  0.48190  0.08062  0.13266  1.0000
  C   C41       1.0  0.37665  0.22457  0.11245  1.0000
  H   H68       1.0  0.44194  0.14593  0.16986  1.0000
  Fe  Fe9       1.0  0.46685  0.08529  0.19837  1.0000
  S   S11       1.0  0.49093  0.07735  0.19607  1.0000
  H   H69       1.0  0.46663  0.16190  0.18071  1.0000
  H   H70       1.0  0.49941  0.15135  0.17772  1.0000
  H   H71       1.0  0.46028  0.08137  0.14653  1.0000
  C   C42       1.0  0.45749  0.23243  0.07341  1.0000
  H   H72       1.0  0.45395  0.14297  0.18853  1.0000
  C   C43       1.0  0.50197  0.09244  0.10683  1.0000
  H   H73       1.0  0.49774  0.03888  0.12571  1.0000
  S   S12       1.0  0.45599  0.09523  0.17970  1.0000
  H   H74       1.0  0.46079  0.12751  0.18102  1.0000
  C   C44       1.0  0.47322  0.13652  0.20433  1.0000
  H   H75       1.0  0.50221  0.08602  0.09928  1.0000
  H   H76       1.0  0.48514  0.12269  0.16672  1.0000
  H   H77       1.0  0.45002  0.04156  0.21177  1.0000
  N   N5        1.0  0.46690  0.00864  0.22785  1.0000
  C   C45       1.0  0.49417  0.22359  0.03600  1.0000
  H   H78       1.0  0.49340  0.13144  0.18941  1.0000
  H   H79       1.0  0.49578  0.06587  0.11167  1.0000
  H   H80       1.0  0.49609  0.05910  0.15144  1.0000
  H   H81       1.0  0.46633  0.02877  0.23260  1.0000
  C   C46       1.0  0.49146  0.04880  0.12954  1.0000
  H   H82       1.0  0.49326  0.16894  0.16799  1.0000
  H   H83       1.0  0.45314  0.23166  0.06461  1.0000
  H   H84       1.0  0.47358  0.22147  0.08549  1.0000
  C   C47       1.0  0.48257  0.00245  0.22906  1.0000
  C   C48       1.0  0.48573  0.13412  0.16443  1.0000
  H   H85       1.0  0.49010  0.00688  0.21919  1.0000
  H   H86       1.0  0.38804  0.22595  0.10960  1.0000
  H   H87       1.0  0.44907  0.23024  0.08338  1.0000
  C   C49       1.0  0.49772  0.21158  0.06756  1.0000
  C   C50       1.0  0.49955  0.06105  0.12184  1.0000
  H   H88       1.0  0.49518  0.23494  0.03231  1.0000
  H   H89       1.0  0.48623  0.16452  0.18673  1.0000
  C   C51       1.0  0.48826  0.06281  0.99378  1.0000
  H   H90       1.0  0.49061  0.04574  0.14121  1.0000
  H   H91       1.0  0.50170  0.07505  0.14908  1.0000
  H   H92       1.0  0.49178  0.07313  0.98945  1.0000
  C   C52       1.0  0.44903  0.03310  0.22179  1.0000
  S   S13       1.0  0.48488  0.07026  0.23120  1.0000
  S   S14       1.0  0.49848  0.03670  0.21492  1.0000
  C   C53       1.0  0.50229  0.17041  0.05498  1.0000
  C   C54       1.0  0.50279  0.24110  0.05330  1.0000
  H   H93       1.0  0.48352  0.00793  0.19928  1.0000
  H   H94       1.0  0.49107  0.09963  0.10915  1.0000
  C   C55       1.0  0.50201  0.13451  0.16004  1.0000
  H   H95       1.0  0.49201  0.03425  0.98720  1.0000
  H   H96       1.0  0.41973  0.04735  0.24859  1.0000
  H   H97       1.0  0.21876  0.02724  0.43529  1.0000
  H   H98       1.0  0.39579  0.04571  0.24289  1.0000
  H   H99       1.0  0.38282  0.01626  0.33649  1.0000
  H   H100      1.0  0.38074  0.07735  0.25757  1.0000
  H   H101      1.0  0.39375  0.03243  0.25907  1.0000
  C   C56       1.0  0.06199  0.18035  0.47926  1.0000
  C   C57       1.0  0.23961  0.13783  0.45951  1.0000
  H   H102      1.0  0.34850  0.01329  0.37394  1.0000
  H   H103      1.0  0.49860  0.99989  0.24132  1.0000
  S   S15       1.0  0.08215  0.22857  0.41627  1.0000
  N   N6        1.0  0.37201  0.00672  0.36822  1.0000
  N   N7        1.0  0.06858  0.17951  0.46381  1.0000
  Fe  Fe10      1.0  0.39027  0.01437  0.30531  1.0000
  H   H104      1.0  0.21496  0.00083  0.46354  1.0000
  Fe  Fe11      1.0  0.15175  0.16887  0.45304  1.0000
  S   S16       1.0  0.14760  0.18782  0.46269  1.0000
  S   S17       1.0  0.16464  0.17025  0.43044  1.0000
  H   H105      1.0  0.10620  0.22860  0.37860  1.0000
  H   H106      1.0  0.09007  0.18093  0.46451  1.0000
  Fe  Fe12      1.0  0.12535  0.18315  0.47244  1.0000
  S   S18       1.0  0.10486  0.20078  0.47377  1.0000
  S   S19       1.0  0.16026  0.15292  0.47120  1.0000
  S   S20       1.0  0.12892  0.16538  0.46124  1.0000
  Fe  Fe13      1.0  0.22544  0.10316  0.44279  1.0000
  S   S21       1.0  0.23782  0.09455  0.46037  1.0000
  S   S22       1.0  0.22516  0.12556  0.42932  1.0000
  Fe  Fe14      1.0  0.21533  0.07550  0.44819  1.0000
  S   S23       1.0  0.22661  0.06461  0.46625  1.0000
  S   S24       1.0  0.20173  0.06508  0.44127  1.0000
  Fe  Fe15      1.0  0.21821  0.08562  0.47301  1.0000
  H   H107      1.0  0.22647  0.15882  0.45374  1.0000
  Fe  Fe16      1.0  0.24508  0.07436  0.45191  1.0000
  S   S25       1.0  0.26769  0.06044  0.44958  1.0000
  S   S26       1.0  0.20538  0.09567  0.45611  1.0000
  S   S27       1.0  0.23446  0.08378  0.43314  1.0000
  C   C58       1.0  0.27516  0.08866  0.37053  1.0000
  C   C59       1.0  0.37287  0.02099  0.35781  1.0000
  N   N8        1.0  0.38918  0.05418  0.26213  1.0000
  Fe  Fe17      1.0  0.42285  0.00564  0.29338  1.0000
  H   H108      1.0  0.07217  0.23548  0.44448  1.0000
  H   H109      1.0  0.35487  0.03124  0.38185  1.0000
  H   H110      1.0  0.15240  0.99432  0.46515  1.0000
  S   S28       1.0  0.37199  0.03401  0.30574  1.0000
  H   H111      1.0  0.36626  0.01771  0.39294  1.0000
  H   H112      1.0  0.46437  0.05063  0.24609  1.0000
  H   H113      1.0  0.38079  0.99523  0.35099  1.0000
  C   C60       1.0  0.27360  0.06457  0.40153  1.0000
  Fe  Fe18      1.0  0.29459  0.00551  0.40245  1.0000
  S   S29       1.0  0.31467  0.01339  0.39966  1.0000
  S   S30       1.0  0.27272  0.01348  0.41595  1.0000
  S   S31       1.0  0.40991  0.01359  0.31312  1.0000
  C   C61       1.0  0.38784  0.06362  0.28426  1.0000
  H   H114      1.0  0.06671  0.20127  0.47834  1.0000
  C   C62       1.0  0.18783  0.02835  0.46032  1.0000
  H   H115      1.0  0.17940  0.09841  0.47809  1.0000
  Fe  Fe19      1.0  0.31709  0.01512  0.37626  1.0000
  S   S32       1.0  0.32200  0.03590  0.36194  1.0000
  H   H116      1.0  0.41061  0.07033  0.25491  1.0000
  S   S33       1.0  0.29602  0.00896  0.37894  1.0000
  H   H117      1.0  0.34696  0.01935  0.39725  1.0000
  H   H118      1.0  0.38840  0.01082  0.37632  1.0000
  H   H119      1.0  0.22200  0.01532  0.42384  1.0000
  H   H120      1.0  0.19501  0.15081  0.45513  1.0000
  H   H121      1.0  0.19665  0.11460  0.47857  1.0000
  C   C63       1.0  0.22109  0.01570  0.43508  1.0000
  C   C64       1.0  0.08174  0.22678  0.44455  1.0000
  C   C65       1.0  0.38905  0.06892  0.25252  1.0000
  C   C66       1.0  0.39512  0.05228  0.27508  1.0000
  H   H122      1.0  0.06280  0.20774  0.43374  1.0000
  C   C67       1.0  0.21496  0.16115  0.48256  1.0000
  S   S34       1.0  0.40336  0.00847  0.28453  1.0000
  H   H123      1.0  0.21854  0.02356  0.46076  1.0000
  C   C68       1.0  0.14305  0.08990  0.46962  1.0000
  N   N9        1.0  0.23617  0.00602  0.45478  1.0000
  H   H124      1.0  0.18828  0.17693  0.45307  1.0000
  H   H125      1.0  0.27824  0.05552  0.40960  1.0000
  H   H126      1.0  0.20301  0.17631  0.46054  1.0000
  C   C69       1.0  0.06333  0.19634  0.43953  1.0000
  C   C70       1.0  0.19931  0.17070  0.45459  1.0000
  H   H127      1.0  0.05549  0.20144  0.45998  1.0000
  N   N10       1.0  0.21157  0.14526  0.46748  1.0000
  H   H128      1.0  0.45723  0.00915  0.25013  1.0000
  H   H129      1.0  0.16306  0.05878  0.46951  1.0000
  C   C71       1.0  0.37129  0.99628  0.36013  1.0000
  H   H130      1.0  0.38537  0.06969  0.24271  1.0000
  C   C72       1.0  0.09334  0.17065  0.44748  1.0000
  C   C73       1.0  0.18852  0.02632  0.47457  1.0000
  H   H131      1.0  0.30240  0.06325  0.37181  1.0000
  C   C74       1.0  0.35794  0.03397  0.32129  1.0000
  C   C75       1.0  0.35350  0.02134  0.32953  1.0000
  C   C76       1.0  0.34205  0.02185  0.34180  1.0000
  C   C77       1.0  0.33538  0.03490  0.34603  1.0000
  C   C78       1.0  0.33979  0.04747  0.33769  1.0000
  C   C79       1.0  0.35091  0.04703  0.32530  1.0000
  H   H132      1.0  0.35865  0.01127  0.32629  1.0000
  H   H133      1.0  0.33842  0.01218  0.34797  1.0000
  H   H134      1.0  0.33462  0.05759  0.34085  1.0000
  H   H135      1.0  0.35422  0.05683  0.31893  1.0000
  C   C80       1.0  0.26929  0.04724  0.44035  1.0000
  C   C81       1.0  0.28272  0.03780  0.43684  1.0000
  C   C82       1.0  0.28401  0.02748  0.42911  1.0000
  C   C83       1.0  0.27187  0.02667  0.42488  1.0000
  C   C84       1.0  0.25852  0.03620  0.42831  1.0000
  C   C85       1.0  0.25719  0.04634  0.43613  1.0000
  H   H136      1.0  0.29210  0.03843  0.44012  1.0000
  H   H137      1.0  0.29430  0.02001  0.42671  1.0000
  H   H138      1.0  0.24918  0.03586  0.42479  1.0000
  H   H139      1.0  0.24678  0.05350  0.43885  1.0000
  C   C86       1.0  0.19263  0.03662  0.47880  1.0000
  H   H140      1.0  0.27000  0.03246  0.38637  1.0000
  H   H141      1.0  0.48599  0.01669  0.24074  1.0000
  C   C87       1.0  0.09915  0.20906  0.45753  1.0000
  C   C88       1.0  0.10630  0.20399  0.44505  1.0000
  C   C89       1.0  0.10110  0.21020  0.43242  1.0000
  C   C90       1.0  0.08877  0.22155  0.43213  1.0000
  H   H142      1.0  0.24732  0.02453  0.46662  1.0000
  C   C91       1.0  0.08692  0.22054  0.45722  1.0000
  H   H143      1.0  0.11578  0.19521  0.44513  1.0000
  H   H144      1.0  0.40142  0.08574  0.24474  1.0000
  H   H145      1.0  0.07443  0.20006  0.45346  1.0000
  H   H146      1.0  0.08132  0.22451  0.46682  1.0000
  C   C92       1.0  0.18119  0.15749  0.42961  1.0000
  C   C93       1.0  0.18171  0.14346  0.43777  1.0000
  C   C94       1.0  0.19509  0.13345  0.43737  1.0000
  C   C95       1.0  0.20803  0.13747  0.42904  1.0000
  C   C96       1.0  0.20745  0.15149  0.42080  1.0000
  C   C97       1.0  0.19404  0.16143  0.42096  1.0000
  H   H147      1.0  0.17177  0.14031  0.44430  1.0000
  H   H148      1.0  0.19529  0.12275  0.44364  1.0000
  H   H149      1.0  0.21738  0.15469  0.41430  1.0000
  H   H150      1.0  0.19366  0.17227  0.41459  1.0000
  H   H151      1.0  0.31737  0.05866  0.38951  1.0000
  H   H152      1.0  0.06537  0.16907  0.44883  1.0000
  H   H153      1.0  0.23388  0.02919  0.44858  1.0000
  C   C98       1.0  0.44427  0.05864  0.26000  1.0000
  C   C99       1.0  0.39766  0.04259  0.25396  1.0000
  C   C100      1.0  0.45579  0.03340  0.26166  1.0000
  C   C101      1.0  0.44429  0.02957  0.27287  1.0000
  C   C102      1.0  0.43322  0.04032  0.27830  1.0000
  C   C103      1.0  0.43333  0.05488  0.27196  1.0000
  C   C104      1.0  0.15977  0.07258  0.48461  1.0000
  H   H154      1.0  0.46478  0.02517  0.25801  1.0000
  H   H155      1.0  0.42455  0.03742  0.28728  1.0000
  H   H156      1.0  0.42476  0.06323  0.27610  1.0000
  H   H157      1.0  0.37134  0.04370  0.25026  1.0000
  H   H158      1.0  0.22425  0.14615  0.44580  1.0000
  H   H159      1.0  0.37629  0.06334  0.28943  1.0000
  H   H160      1.0  0.37316  0.04196  0.27559  1.0000
  C   C105      1.0  0.22513  0.14763  0.45617  1.0000
  H   H161      1.0  0.14118  0.10065  0.46229  1.0000
  H   H162      1.0  0.10836  0.23260  0.39400  1.0000
  H   H163      1.0  0.25857  0.00815  0.44879  1.0000
  H   H164      1.0  0.39602  0.01484  0.34673  1.0000
  C   C106      1.0  0.19134  0.04061  0.45027  1.0000
  C   C107      1.0  0.19596  0.05065  0.45435  1.0000
  Fe  Fe20      1.0  0.13716  0.15113  0.48048  1.0000
  H   H165      1.0  0.19088  0.04212  0.43921  1.0000
  H   H166      1.0  0.24418  0.01278  0.43190  1.0000
  C   C108      1.0  0.06123  0.16996  0.46018  1.0000
  H   H167      1.0  0.12154  0.08484  0.47923  1.0000
  H   H168      1.0  0.01346  0.23801  0.41351  1.0000
  H   H169      1.0  0.30201  0.05704  0.40420  1.0000
  H   H170      1.0  0.26714  0.09510  0.36392  1.0000
  C   C109      1.0  0.38538  0.00157  0.37454  1.0000
  H   H171      1.0  0.20644  0.17097  0.44370  1.0000
  H   H172      1.0  0.29713  0.07636  0.38211  1.0000
  H   H173      1.0  0.25343  0.99933  0.46670  1.0000
  H   H174      1.0  0.36426  0.06295  0.24845  1.0000
  C   C110      1.0  0.06557  0.19461  0.45470  1.0000
  C   C111      1.0  0.19635  0.04879  0.46868  1.0000
  H   H175      1.0  0.05820  0.14816  0.46445  1.0000
  H   H176      1.0  0.36666  0.06087  0.27321  1.0000
  H   H177      1.0  0.04934  0.17479  0.46131  1.0000
  H   H178      1.0  0.28729  0.03980  0.39432  1.0000
  C   C112      1.0  0.17013  0.10133  0.45053  1.0000
  H   H179      1.0  0.39357  0.06116  0.29310  1.0000
  Fe  Fe21      1.0  0.15437  0.17153  0.48167  1.0000
  C   C113      1.0  0.19823  0.15519  0.46258  1.0000
  H   H180      1.0  0.14977  0.00930  0.47284  1.0000
  N   N11       1.0  0.15709  0.08699  0.47438  1.0000
  C   C114      1.0  0.26784  0.04395  0.38672  1.0000
  H   H181      1.0  0.18458  0.02046  0.45703  1.0000
  H   H182      1.0  0.04990  0.18410  0.48100  1.0000
  H   H183      1.0  0.39461  0.04147  0.28217  1.0000
  H   H184      1.0  0.24049  0.12655  0.45921  1.0000
  H   H185      1.0  0.08950  0.16279  0.44430  1.0000
  H   H186      1.0  0.22273  0.16565  0.47312  1.0000
  H   H187      1.0  0.26274  0.05019  0.37759  1.0000
  H   H188      1.0  0.21152  0.12777  0.45855  1.0000
  C   C115      1.0  0.06765  0.19019  0.48500  1.0000
  C   C116      1.0  0.27299  0.07309  0.37570  1.0000
  H   H189      1.0  0.27217  0.07641  0.41735  1.0000
  C   C117      1.0  0.29682  0.06515  0.38274  1.0000
  N   N12       1.0  0.28143  0.06298  0.38652  1.0000
  H   H190      1.0  0.28249  0.08327  0.40060  1.0000
  H   H191      1.0  0.26282  0.08679  0.40335  1.0000
  H   H192      1.0  0.27593  0.06890  0.36575  1.0000
  C   C118      1.0  0.30662  0.05562  0.39305  1.0000
  H   H193      1.0  0.23451  0.01508  0.48018  1.0000
  S   S35       1.0  0.44377  0.01128  0.27920  1.0000
  C   C119      1.0  0.35666  0.02003  0.38823  1.0000
  C   C120      1.0  0.08477  0.17352  0.46226  1.0000
  C   C121      1.0  0.37363  0.05231  0.26755  1.0000
  H   H194      1.0  0.30884  0.04416  0.39277  1.0000
  H   H195      1.0  0.09317  0.18075  0.43916  1.0000
  H   H196      1.0  0.26106  0.07374  0.37990  1.0000
  H   H197      1.0  0.25999  0.04519  0.39696  1.0000
  H   H198      1.0  0.38619  0.03200  0.33878  1.0000
  H   H199      1.0  0.26211  0.06361  0.40373  1.0000
  C   C122      1.0  0.15713  0.99879  0.47135  1.0000
  H   H200      1.0  0.14511  0.06108  0.48141  1.0000
  H   H201      1.0  0.27338  0.09401  0.37938  1.0000
  C   C123      1.0  0.28241  0.04777  0.38565  1.0000
  H   H202      1.0  0.28979  0.04539  0.37541  1.0000
  H   H203      1.0  0.39494  0.99694  0.36677  1.0000
  H   H204      1.0  0.44497  0.00838  0.24067  1.0000
  H   H205      1.0  0.05280  0.19390  0.44003  1.0000
  H   H206      1.0  0.24879  0.14148  0.45106  1.0000
  H   H207      1.0  0.10495  0.16594  0.44791  1.0000
  H   H208      1.0  0.40677  0.05238  0.27209  1.0000
  H   H209      1.0  0.18875  0.15595  0.47180  1.0000
  C   C124      1.0  0.27276  0.07865  0.40566  1.0000
  H   H210      1.0  0.16037  0.10569  0.44585  1.0000
  H   H211      1.0  0.36252  0.02592  0.35409  1.0000
  H   H212      1.0  0.28615  0.08910  0.36352  1.0000
  C   C125      1.0  0.06270  0.15439  0.46917  1.0000
  H   H213      1.0  0.16786  0.00107  0.46510  1.0000
  C   C126      1.0  0.19634  0.12572  0.47892  1.0000
  H   H214      1.0  0.38877  0.07461  0.27803  1.0000
  H   H215      1.0  0.19950  0.05671  0.47198  1.0000
  H   H216      1.0  0.14359  0.08236  0.46298  1.0000
  C   C127      1.0  0.10956  0.23650  0.38228  1.0000
  H   H217      1.0  0.17964  0.09960  0.44147  1.0000
  H   H218      1.0  0.21955  0.12217  0.47358  1.0000
  H   H219      1.0  0.10661  0.20611  0.42286  1.0000
  C   C128      1.0  0.23064  0.02078  0.45813  1.0000
  C   C129      1.0  0.36575  0.05241  0.25611  1.0000
  H   H220      1.0  0.07227  0.18972  0.43299  1.0000
  H   H221      1.0  0.37423  0.02884  0.36311  1.0000
  C   C130      1.0  0.38529  0.02079  0.34428  1.0000
  C   C131      1.0  0.35794  0.00924  0.37923  1.0000
  C   C132      1.0  0.40366  0.07382  0.24702  1.0000
  H   H222      1.0  0.16930  0.07912  0.45529  1.0000
  H   H223      1.0  0.18648  0.13245  0.47519  1.0000
  S   S36       1.0  0.44340  0.07670  0.25092  1.0000
  C   C133      1.0  0.23561  0.00737  0.43946  1.0000
  H   H224      1.0  0.21174  0.01096  0.44172  1.0000
  H   H225      1.0  0.07418  0.14873  0.46925  1.0000
  H   H226      1.0  0.06391  0.16960  0.48654  1.0000
  C   C134      1.0  0.15607  0.09861  0.48181  1.0000
  H   H227      1.0  0.08698  0.16333  0.47031  1.0000
  H   H228      1.0  0.05622  0.15393  0.48031  1.0000
  C   C135      1.0  0.41433  0.03816  0.25262  1.0000
  C   C136      1.0  0.45564  0.04786  0.25503  1.0000
  H   H229      1.0  0.17127  0.06935  0.48589  1.0000
  C   C137      1.0  0.16953  0.08684  0.46139  1.0000
  H   H230      1.0  0.12117  0.23624  0.37688  1.0000
  H   H231      1.0  0.24121  0.13833  0.46990  1.0000
  H   H232      1.0  0.41705  0.03195  0.26302  1.0000
  C   C138      1.0  0.12905  0.08992  0.48165  1.0000
  C   C139      1.0  0.15692  0.05998  0.48044  1.0000
  C   C140      1.0  0.21046  0.13000  0.46915  1.0000
  C   C141      1.0  0.23579  0.02343  0.47022  1.0000
  H   H233      1.0  0.12339  0.10110  0.48259  1.0000
  H   H234      1.0  0.23799  0.99661  0.43695  1.0000
  S   S37       1.0  0.33058  0.99281  0.37635  1.0000
  H   H235      1.0  0.15325  0.10946  0.47486  1.0000
  H   H236      1.0  0.18022  0.08274  0.46455  1.0000
  C   C142      1.0  0.25192  0.00034  0.45585  1.0000
  H   H237      1.0  0.35467  0.05051  0.26158  1.0000
  H   H238      1.0  0.17180  0.10947  0.45520  1.0000
  H   H239      1.0  0.22912  0.03374  0.47294  1.0000
  H   H240      1.0  0.36153  0.00031  0.35538  1.0000
  C   C143      1.0  0.22651  0.99601  0.46426  1.0000
  C   C144      1.0  0.45649  0.00422  0.24176  1.0000
  H   H241      1.0  0.21828  0.00038  0.48585  1.0000
  H   H242      1.0  0.48066  0.00044  0.25223  1.0000
  H   H243      1.0  0.41918  0.03088  0.24506  1.0000
  H   H244      1.0  0.07911  0.18564  0.48605  1.0000
  H   H245      1.0  0.35576  0.99922  0.38679  1.0000
  C   C145      1.0  0.21208  0.14692  0.48188  1.0000
  C   C146      1.0  0.16973  0.09775  0.48700  1.0000
  S   S38       1.0  0.18499  0.01052  0.48676  1.0000
  C   C147      1.0  0.48693  0.00512  0.24163  1.0000
  H   H246      1.0  0.20459  0.16931  0.48423  1.0000
  H   H247      1.0  0.38415  0.99534  0.39777  1.0000
  H   H248      1.0  0.22001  0.13787  0.48697  1.0000
  Fe  Fe22      1.0  0.02948  0.11641  0.55055  1.0000
  S   S39       1.0  0.04537  0.10704  0.53258  1.0000
  H   H249      1.0  0.37429  0.00587  0.57575  1.0000
  Fe  Fe23      1.0  0.05338  0.12123  0.56149  1.0000
  S   S40       1.0  0.07103  0.11261  0.54432  1.0000
  S   S41       1.0  0.06001  0.12725  0.57840  1.0000
  Fe  Fe24      1.0  0.05595  0.12525  0.52982  1.0000
  S   S42       1.0  0.06373  0.13974  0.50898  1.0000
  Fe  Fe25      1.0  0.05879  0.09537  0.54897  1.0000
  S   S43       1.0  0.06957  0.07193  0.55348  1.0000
  S   S44       1.0  0.03914  0.13549  0.54665  1.0000
  S   S45       1.0  0.04203  0.10309  0.56722  1.0000
  Fe  Fe26      1.0  0.14673  0.03623  0.52205  1.0000
  S   S46       1.0  0.14688  0.02254  0.54420  1.0000
  S   S47       1.0  0.13327  0.05845  0.51598  1.0000
  Fe  Fe27      1.0  0.17172  0.01540  0.50786  1.0000
  S   S48       1.0  0.13223  0.12947  0.49151  1.0000
  H   H250      1.0  0.04414  0.06156  0.56337  1.0000
  H   H251      1.0  0.22070  0.05746  0.50164  1.0000
  Fe  Fe28      1.0  0.17117  0.01945  0.53701  1.0000
  S   S49       1.0  0.18573  0.01983  0.55063  1.0000
  S   S50       1.0  0.14749  0.01819  0.51228  1.0000
  S   S51       1.0  0.17089  0.03464  0.51571  1.0000
  Fe  Fe29      1.0  0.11437  0.17242  0.56709  1.0000
  S   S52       1.0  0.11466  0.19578  0.55945  1.0000
  S   S53       1.0  0.10954  0.16236  0.55187  1.0000
  Fe  Fe30      1.0  0.12709  0.16942  0.59229  1.0000
  S   S54       1.0  0.12905  0.19244  0.58645  1.0000
  S   S55       1.0  0.13406  0.15531  0.61216  1.0000
  Fe  Fe31      1.0  0.10656  0.19728  0.58250  1.0000
  S   S56       1.0  0.08858  0.21646  0.58760  1.0000
  Fe  Fe32      1.0  0.13683  0.18895  0.56406  1.0000
  S   S57       1.0  0.15560  0.19650  0.54781  1.0000
  S   S58       1.0  0.10394  0.17436  0.58986  1.0000
  S   S59       1.0  0.13724  0.16548  0.57026  1.0000
  Fe  Fe33      1.0  0.20266  0.10009  0.58719  1.0000
  S   S60       1.0  0.22655  0.09466  0.57712  1.0000
  S   S61       1.0  0.19557  0.11240  0.60455  1.0000
  Fe  Fe34      1.0  0.19432  0.08374  0.57039  1.0000
  S   S62       1.0  0.21753  0.07612  0.55958  1.0000
  S   S63       1.0  0.17542  0.08110  0.56347  1.0000
  Fe  Fe35      1.0  0.22295  0.07246  0.58101  1.0000
  S   S64       1.0  0.23805  0.05221  0.59042  1.0000
  Fe  Fe36      1.0  0.21900  0.09888  0.55675  1.0000
  S   S65       1.0  0.22800  0.11065  0.53466  1.0000
  S   S66       1.0  0.19930  0.07768  0.59221  1.0000
  S   S67       1.0  0.19555  0.10673  0.56649  1.0000
  C   C148      1.0  0.15377  0.10230  0.52767  1.0000
  S   S68       1.0  0.45822  0.01705  0.61309  1.0000
  S   S69       1.0  0.40619  0.05365  0.69429  1.0000
  S   S70       1.0  0.40828  0.02453  0.68348  1.0000
  Fe  Fe37      1.0  0.42368  0.03653  0.68524  1.0000
  S   S71       1.0  0.44155  0.04407  0.66735  1.0000
  S   S72       1.0  0.37072  0.05209  0.68516  1.0000
  H   H252      1.0  0.08676  0.19153  0.63178  1.0000
  H   H253      1.0  0.23072  0.06999  0.51077  1.0000
  C   C149      1.0  0.22331  0.10066  0.49981  1.0000
  Fe  Fe38      1.0  0.30237  0.03457  0.62889  1.0000
  S   S73       1.0  0.32441  0.04026  0.62374  1.0000
  S   S74       1.0  0.28224  0.05241  0.62633  1.0000
  H   H254      1.0  0.24596  0.05660  0.63643  1.0000
  H   H255      1.0  0.08134  0.20681  0.63941  1.0000
  Fe  Fe39      1.0  0.32858  0.02294  0.64330  1.0000
  S   S75       1.0  0.34345  0.01676  0.65902  1.0000
  C   C150      1.0  0.39590  0.09121  0.71823  1.0000
  S   S76       1.0  0.30598  0.01855  0.64949  1.0000
  H   H256      1.0  0.47052  0.00951  0.66606  1.0000
  H   H257      1.0  0.22098  0.03905  0.50775  1.0000
  H   H258      1.0  0.09520  0.21304  0.49853  1.0000
  H   H259      1.0  0.24472  0.02976  0.51185  1.0000
  H   H260      1.0  0.41291  0.04837  0.64399  1.0000
  H   H261      1.0  0.24016  0.07523  0.52840  1.0000
  H   H262      1.0  0.07638  0.23584  0.50753  1.0000
  H   H263      1.0  0.07370  0.19094  0.64834  1.0000
  H   H264      1.0  0.16520  0.09596  0.52586  1.0000
  C   C151      1.0  0.48359  0.03025  0.66534  1.0000
  H   H265      1.0  0.01155  0.10632  0.50899  1.0000
  H   H266      1.0  0.20020  0.06221  0.52387  1.0000
  C   C152      1.0  0.03943  0.05463  0.55969  1.0000
  S   S77       1.0  0.33737  0.00603  0.63051  1.0000
  H   H267      1.0  0.21194  0.10229  0.64771  1.0000
  H   H268      1.0  0.06126  0.23106  0.62981  1.0000
  C   C153      1.0  0.04379  0.06708  0.53453  1.0000
  C   C154      1.0  0.10102  0.22573  0.53322  1.0000
  C   C155      1.0  0.01065  0.06220  0.53743  1.0000
  H   H269      1.0  0.03056  0.22417  0.62976  1.0000
  S   S78       1.0  0.34772  0.02148  0.59101  1.0000
  H   H270      1.0  0.38691  0.01550  0.62032  1.0000
  C   C156      1.0  0.23574  0.05290  0.64200  1.0000
  H   H271      1.0  0.12770  0.12546  0.52560  1.0000
  C   C157      1.0  0.36319  0.04237  0.67770  1.0000
  C   C158      1.0  0.36602  0.02737  0.68140  1.0000
  C   C159      1.0  0.35956  0.01984  0.67579  1.0000
  C   C160      1.0  0.35059  0.02713  0.66605  1.0000
  C   C161      1.0  0.34780  0.04215  0.66221  1.0000
  C   C162      1.0  0.35399  0.04974  0.66813  1.0000
  H   H272      1.0  0.37296  0.02159  0.68883  1.0000
  H   H273      1.0  0.47676  0.02895  0.70185  1.0000
  H   H274      1.0  0.34085  0.04791  0.65476  1.0000
  C   C163      1.0  0.44630  0.03613  0.65259  1.0000
  C   C164      1.0  0.45417  0.04274  0.63956  1.0000
  C   C165      1.0  0.45779  0.03676  0.62752  1.0000
  C   C166      1.0  0.45380  0.02401  0.62852  1.0000
  C   C167      1.0  0.44611  0.01730  0.64166  1.0000
  C   C168      1.0  0.44239  0.02333  0.65369  1.0000
  H   H275      1.0  0.45723  0.05265  0.63868  1.0000
  H   H276      1.0  0.46366  0.04207  0.61740  1.0000
  H   H277      1.0  0.44259  0.00775  0.64250  1.0000
  H   H278      1.0  0.43649  0.01810  0.66378  1.0000
  C   C169      1.0  0.24487  0.04053  0.51302  1.0000
  S   S79       1.0  0.00527  0.11804  0.55515  1.0000
  H   H279      1.0  0.42065  0.03971  0.62941  1.0000
  H   H280      1.0  0.15125  0.10840  0.51720  1.0000
  H   H281      1.0  0.38968  0.10241  0.71602  1.0000
  H   H282      1.0  0.31381  0.00571  0.56639  1.0000
  H   H283      1.0  0.41401  0.02279  0.65174  1.0000
  C   C170      1.0  0.08961  0.24000  0.62069  1.0000
  N   N13       1.0  0.37229  0.08384  0.71819  1.0000
  C   C171      1.0  0.25159  0.05247  0.59893  1.0000
  C   C172      1.0  0.25922  0.03942  0.60597  1.0000
  C   C173      1.0  0.26926  0.03923  0.61376  1.0000
  C   C174      1.0  0.27168  0.05213  0.61467  1.0000
  C   C175      1.0  0.26436  0.06517  0.60729  1.0000
  C   C176      1.0  0.25443  0.06535  0.59939  1.0000
  H   H284      1.0  0.25716  0.02940  0.60563  1.0000
  H   H285      1.0  0.27474  0.02913  0.61947  1.0000
  H   H286      1.0  0.26628  0.07518  0.60784  1.0000
  H   H287      1.0  0.24878  0.07547  0.59388  1.0000
  C   C177      1.0  0.22086  0.10574  0.52292  1.0000
  C   C178      1.0  0.20810  0.10047  0.52812  1.0000
  C   C179      1.0  0.20298  0.09528  0.51926  1.0000
  C   C180      1.0  0.46914  0.01612  0.68590  1.0000
  C   C181      1.0  0.22829  0.10615  0.50863  1.0000
  H   H288      1.0  0.20228  0.10007  0.53909  1.0000
  H   H289      1.0  0.23827  0.11005  0.50462  1.0000
  C   C182      1.0  0.08990  0.22579  0.59971  1.0000
  H   H290      1.0  0.00443  0.06722  0.56652  1.0000
  C   C183      1.0  0.40603  0.99864  0.65993  1.0000
  H   H291      1.0  0.38622  0.00199  0.70351  1.0000
  H   H292      1.0  0.13108  0.08379  0.49226  1.0000
  C   C184      1.0  0.09966  0.21982  0.60879  1.0000
  H   H293      1.0  0.19478  0.06992  0.62567  1.0000
  C   C185      1.0  0.04386  0.20350  0.64916  1.0000
  S   S80       1.0  0.40826  0.04696  0.73560  1.0000
  H   H294      1.0  0.10712  0.20959  0.60800  1.0000
  C   C186      1.0  0.15091  0.14305  0.60971  1.0000
  C   C187      1.0  0.15935  0.13975  0.61988  1.0000
  C   C188      1.0  0.17293  0.13017  0.61823  1.0000
  C   C189      1.0  0.17803  0.12353  0.60660  1.0000
  C   C190      1.0  0.16944  0.12648  0.59656  1.0000
  C   C191      1.0  0.15596  0.13643  0.59801  1.0000
  H   H295      1.0  0.15543  0.14479  0.62896  1.0000
  H   H296      1.0  0.17950  0.12794  0.62600  1.0000
  H   H297      1.0  0.17321  0.12122  0.58767  1.0000
  H   H298      1.0  0.14930  0.13870  0.59033  1.0000
  C   C192      1.0  0.25103  0.04879  0.49788  1.0000
  C   C193      1.0  0.15962  0.18992  0.53224  1.0000
  C   C194      1.0  0.15017  0.18307  0.52972  1.0000
  C   C195      1.0  0.15370  0.17803  0.51705  1.0000
  C   C196      1.0  0.07980  0.22464  0.51347  1.0000
  H   H299      1.0  0.14013  0.18173  0.53746  1.0000
  C   C197      1.0  0.17267  0.19143  0.52228  1.0000
  S   S81       1.0  0.30932  0.01802  0.61554  1.0000
  H   H300      1.0  0.03138  0.08679  0.52260  1.0000
  H   H301      1.0  0.23809  0.04460  0.65167  1.0000
  H   H302      1.0  0.39192  0.00103  0.64628  1.0000
  C   C198      1.0  0.18236  0.03673  0.55468  1.0000
  C   C199      1.0  0.19095  0.03899  0.56258  1.0000
  C   C200      1.0  0.18898  0.05265  0.56518  1.0000
  C   C201      1.0  0.17819  0.06401  0.56013  1.0000
  C   C202      1.0  0.16948  0.06173  0.55236  1.0000
  C   C203      1.0  0.17159  0.04812  0.54958  1.0000
  H   H303      1.0  0.19921  0.03020  0.56663  1.0000
  H   H304      1.0  0.19566  0.05433  0.57127  1.0000
  H   H305      1.0  0.16120  0.07052  0.54837  1.0000
  H   H306      1.0  0.16494  0.04646  0.54346  1.0000
  C   C204      1.0  0.07335  0.13751  0.57101  1.0000
  C   C205      1.0  0.07998  0.14083  0.58004  1.0000
  C   C206      1.0  0.09102  0.14861  0.57424  1.0000
  C   C207      1.0  0.09557  0.15291  0.55939  1.0000
  C   C208      1.0  0.08904  0.14949  0.55035  1.0000
  C   C209      1.0  0.07778  0.14201  0.55616  1.0000
  H   H307      1.0  0.07657  0.13737  0.59154  1.0000
  H   H308      1.0  0.09611  0.15113  0.58125  1.0000
  H   H309      1.0  0.09253  0.15280  0.53885  1.0000
  H   H310      1.0  0.07255  0.13971  0.54912  1.0000
  C   C210      1.0  0.08279  0.13663  0.50491  1.0000
  C   C211      1.0  0.10661  0.12038  0.50345  1.0000
  C   C212      1.0  0.09134  0.12266  0.50743  1.0000
  H   H311      1.0  0.11323  0.10960  0.50533  1.0000
  H   H312      1.0  0.08617  0.11362  0.51216  1.0000
  C   C213      1.0  0.08698  0.06796  0.54262  1.0000
  C   C214      1.0  0.09607  0.05439  0.54591  1.0000
  C   C215      1.0  0.11029  0.05129  0.53765  1.0000
  C   C216      1.0  0.11541  0.06180  0.52615  1.0000
  C   C217      1.0  0.10625  0.07532  0.52281  1.0000
  C   C218      1.0  0.09202  0.07838  0.53100  1.0000
  H   H313      1.0  0.09217  0.04630  0.55491  1.0000
  H   H314      1.0  0.11730  0.04082  0.54024  1.0000
  H   H315      1.0  0.11015  0.08346  0.51389  1.0000
  H   H316      1.0  0.08497  0.08881  0.52834  1.0000
  C   C219      1.0  0.17629  0.18619  0.50981  1.0000
  H   H317      1.0  0.21349  0.08186  0.61417  1.0000
  H   H318      1.0  0.01757  0.11750  0.52527  1.0000
  H   H319      1.0  0.12483  0.13898  0.53569  1.0000
  H   H320      1.0  0.23430  0.03767  0.54143  1.0000
  H   H321      1.0  0.49536  0.00883  0.59878  1.0000
  H   H322      1.0  0.37904  0.08085  0.68808  1.0000
  H   H323      1.0  0.11763  0.22414  0.51444  1.0000
  C   C220      1.0  0.20473  0.09451  0.65198  1.0000
  H   H324      1.0  0.49070  0.00268  0.64430  1.0000
  C   C221      1.0  0.09724  0.19821  0.52826  1.0000
  H   H325      1.0  0.22759  0.06687  0.61691  1.0000
  H   H326      1.0  0.49757  0.00387  0.67813  1.0000
  H   H327      1.0  0.10745  0.22997  0.53802  1.0000
  H   H328      1.0  0.47909  0.99541  0.67913  1.0000
  H   H329      1.0  0.12362  0.21647  0.48911  1.0000
  Fe  Fe40      1.0  0.31489  0.00255  0.63544  1.0000
  C   C222      1.0  0.09163  0.18781  0.52327  1.0000
  C   C223      1.0  0.38247  0.08929  0.69083  1.0000
  H   H330      1.0  0.21579  0.04419  0.54161  1.0000
  H   H331      1.0  0.32436  0.00831  0.70420  1.0000
  H   H332      1.0  0.48439  0.05292  0.65604  1.0000
  H   H333      1.0  0.50004  0.04051  0.64924  1.0000
  C   C224      1.0  0.42773  0.06530  0.72554  1.0000
  H   H334      1.0  0.23365  0.08866  0.63796  1.0000
  H   H335      1.0  0.49811  0.04389  0.66629  1.0000
  C   C225      1.0  0.02259  0.07682  0.55197  1.0000
  H   H336      1.0  0.40204  0.05060  0.63161  1.0000
  H   H337      1.0  0.19980  0.04340  0.52757  1.0000
  H   H338      1.0  0.16053  0.04982  0.48798  1.0000
  H   H339      1.0  0.45874  0.02395  0.68481  1.0000
  C   C226      1.0  0.36238  0.10404  0.73253  1.0000
  H   H340      1.0  0.05633  0.22017  0.60408  1.0000
  C   C227      1.0  0.02867  0.21075  0.65688  1.0000
  C   C228      1.0  0.22319  0.06525  0.64666  1.0000
  H   H341      1.0  0.17213  0.08784  0.49530  1.0000
  H   H342      1.0  0.21789  0.12746  0.57953  1.0000
  H   H343      1.0  0.14634  0.09472  0.53208  1.0000
  C   C229      1.0  0.20295  0.05267  0.51917  1.0000
  Fe  Fe41      1.0  0.14981  0.00420  0.53384  1.0000
  H   H344      1.0  0.25287  0.06071  0.52157  1.0000
  H   H345      1.0  0.01172  0.07277  0.53040  1.0000
  C   C230      1.0  0.22806  0.09990  0.61767  1.0000
  H   H346      1.0  0.17284  0.14385  0.50846  1.0000
  H   H347      1.0  0.22952  0.10023  0.48907  1.0000
  H   H348      1.0  0.20032  0.09536  0.63172  1.0000
  C   C231      1.0  0.21707  0.07256  0.62264  1.0000
  H   H349      1.0  0.25298  0.03833  0.51969  1.0000
  H   H350      1.0  0.03819  0.23014  0.60443  1.0000
  H   H351      1.0  0.04294  0.23454  0.63936  1.0000
  H   H352      1.0  0.37814  0.03445  0.64259  1.0000
  H   H353      1.0  0.03393  0.07057  0.51620  1.0000
  H   H354      1.0  0.06351  0.19506  0.62605  1.0000
  S   S82       1.0  0.13177  0.16851  0.49255  1.0000
  H   H355      1.0  0.21827  0.10781  0.62157  1.0000
  H   H356      1.0  0.08396  0.18259  0.53245  1.0000
  H   H357      1.0  0.05062  0.19903  0.65725  1.0000
  H   H358      1.0  0.46763  0.01083  0.69751  1.0000
  C   C232      1.0  0.21072  0.09509  0.50520  1.0000
  H   H359      1.0  0.07065  0.21078  0.61907  1.0000
  C   C233      1.0  0.11325  0.13208  0.49696  1.0000
  H   H360      1.0  0.03876  0.20796  0.62364  1.0000
  C   C234      1.0  0.05326  0.22620  0.63885  1.0000
  C   C235      1.0  0.08950  0.14827  0.49880  1.0000
  H   H361      1.0  0.10088  0.22779  0.50021  1.0000
  C   C236      1.0  0.03881  0.07646  0.52089  1.0000
  H   H362      1.0  0.02018  0.21201  0.65097  1.0000
  H   H363      1.0  0.04258  0.19384  0.64647  1.0000
  H   H364      1.0  0.31858  0.99302  0.58186  1.0000
  C   C237      1.0  0.04693  0.22652  0.61055  1.0000
  H   H365      1.0  0.09416  0.21956  0.54232  1.0000
  H   H366      1.0  0.01632  0.07081  0.57552  1.0000
  C   C238      1.0  0.05818  0.22447  0.65281  1.0000
  H   H367      1.0  0.22100  0.14519  0.57357  1.0000
  H   H368      1.0  0.36230  0.11300  0.72296  1.0000
  N   N14       1.0  0.05110  0.21293  0.63592  1.0000
  H   H369      1.0  0.36172  0.00824  0.67885  1.0000
  H   H370      1.0  0.13647  0.19963  0.48989  1.0000
  H   H371      1.0  0.38245  0.09845  0.68139  1.0000
  H   H372      1.0  0.02548  0.20378  0.66758  1.0000
  C   C239      1.0  0.46994  0.00482  0.67764  1.0000
  N   N15       1.0  0.15511  0.12639  0.53191  1.0000
  C   C240      1.0  0.15152  0.13439  0.54373  1.0000
  C   C241      1.0  0.14648  0.13529  0.52082  1.0000
  C   C242      1.0  0.17111  0.12398  0.52490  1.0000
  C   C243      1.0  0.15126  0.11192  0.53829  1.0000
  C   C244      1.0  0.16117  0.12840  0.55485  1.0000
  C   C245      1.0  0.12996  0.13585  0.52529  1.0000
  C   C246      1.0  0.17718  0.13766  0.51807  1.0000
  H   H373      1.0  0.15193  0.14593  0.53931  1.0000
  H   H374      1.0  0.14008  0.13462  0.54990  1.0000
  H   H375      1.0  0.15076  0.13161  0.51057  1.0000
  H   H376      1.0  0.14772  0.14662  0.51785  1.0000
  H   H377      1.0  0.17778  0.11677  0.53260  1.0000
  H   H378      1.0  0.17356  0.11817  0.51615  1.0000
  H   H379      1.0  0.15794  0.10544  0.54622  1.0000
  H   H380      1.0  0.13989  0.11284  0.54477  1.0000
  H   H381      1.0  0.16074  0.11715  0.56052  1.0000
  H   H382      1.0  0.17265  0.12919  0.55001  1.0000
  H   H383      1.0  0.15709  0.13492  0.56314  1.0000
  H   H384      1.0  0.12447  0.14400  0.51718  1.0000
  H   H385      1.0  0.10069  0.17901  0.51981  1.0000
  H   H386      1.0  0.02945  0.08355  0.55303  1.0000
  H   H387      1.0  0.17489  0.14470  0.52562  1.0000
  C   C247      1.0  0.20459  0.08696  0.64049  1.0000
  H   H388      1.0  0.26208  0.04266  0.49368  1.0000
  H   H389      1.0  0.05068  0.07281  0.53705  1.0000
  C   C248      1.0  0.04125  0.21751  0.62544  1.0000
  H   H390      1.0  0.37652  0.06521  0.70908  1.0000
  H   H391      1.0  0.44211  0.08015  0.71820  1.0000
  S   S83       1.0  0.17423  0.99990  0.52859  1.0000
  H   H392      1.0  0.22673  0.06900  0.65438  1.0000
  H   H393      1.0  0.19354  0.10077  0.65552  1.0000
  H   H394      1.0  0.38908  0.03931  0.62553  1.0000
  H   H395      1.0  0.48740  0.03972  0.68837  1.0000
  H   H396      1.0  0.38628  0.07423  0.73332  1.0000
  C   C249      1.0  0.35427  0.00317  0.59112  1.0000
  C   C250      1.0  0.00840  0.11240  0.52895  1.0000
  C   C251      1.0  0.00491  0.10619  0.51971  1.0000
  S   S84       1.0  0.42741  0.02311  0.70661  1.0000
  H   H397      1.0  0.33531  0.99700  0.60626  1.0000
  H   H398      1.0  0.18922  0.13450  0.51453  1.0000
  H   H399      1.0  0.24115  0.07916  0.62420  1.0000
  H   H400      1.0  0.03139  0.05045  0.56926  1.0000
  H   H401      1.0  0.02846  0.22135  0.65859  1.0000
  H   H402      1.0  0.21373  0.06053  0.65321  1.0000
  C   C252      1.0  0.11171  0.21652  0.52293  1.0000
  H   H403      1.0  0.06671  0.23070  0.65040  1.0000
  H   H404      1.0  0.41107  0.03620  0.61269  1.0000
  C   C253      1.0  0.24175  0.06380  0.52807  1.0000
  H   H405      1.0  0.42254  0.01132  0.63185  1.0000
  H   H406      1.0  0.43140  0.99378  0.67882  1.0000
  H   H407      1.0  0.32189  0.99783  0.67881  1.0000
  H   H408      1.0  0.09421  0.23523  0.52742  1.0000
  C   C254      1.0  0.22610  0.03876  0.53523  1.0000
  N   N16       1.0  0.10597  0.09392  0.56700  1.0000
  C   C255      1.0  0.10275  0.09834  0.58107  1.0000
  C   C256      1.0  0.09401  0.08681  0.56764  1.0000
  C   C257      1.0  0.10522  0.10749  0.55541  1.0000
  C   C258      1.0  0.12095  0.08410  0.56473  1.0000
  C   C259      1.0  0.11290  0.10717  0.58226  1.0000
  C   C260      1.0  0.09179  0.07393  0.58036  1.0000
  C   C261      1.0  0.10830  0.10577  0.53993  1.0000
  C   C262      1.0  0.12376  0.07326  0.55523  1.0000
  H   H409      1.0  0.09133  0.10478  0.58348  1.0000
  H   H410      1.0  0.10346  0.08875  0.59009  1.0000
  H   H411      1.0  0.09572  0.08302  0.55775  1.0000
  H   H412      1.0  0.08332  0.09469  0.56831  1.0000
  H   H413      1.0  0.09427  0.11473  0.55762  1.0000
  H   H414      1.0  0.11312  0.11367  0.55523  1.0000
  H   H415      1.0  0.12953  0.09049  0.56005  1.0000
  H   H416      1.0  0.12348  0.07749  0.57514  1.0000
  H   H417      1.0  0.11029  0.11849  0.57628  1.0000
  H   H418      1.0  0.11106  0.10762  0.59365  1.0000
  H   H419      1.0  0.12460  0.10232  0.57868  1.0000
  H   H420      1.0  0.10222  0.06667  0.58243  1.0000
  H   H421      1.0  0.08537  0.07770  0.59024  1.0000
  H   H422      1.0  0.08539  0.06757  0.57803  1.0000
  H   H423      1.0  0.10509  0.11653  0.53305  1.0000
  H   H424      1.0  0.10197  0.09886  0.53854  1.0000
  H   H425      1.0  0.12008  0.10179  0.53579  1.0000
  H   H426      1.0  0.11745  0.06476  0.56040  1.0000
  H   H427      1.0  0.13544  0.06766  0.55354  1.0000
  H   H428      1.0  0.12143  0.07829  0.54452  1.0000
  H   H429      1.0  0.14645  0.17273  0.51508  1.0000
  H   H430      1.0  0.12396  0.19051  0.51510  1.0000
  C   C263      1.0  0.36802  0.99825  0.58290  1.0000
  H   H431      1.0  0.19611  0.05515  0.51124  1.0000
  H   H432      1.0  0.29878  0.99303  0.70756  1.0000
  C   C264      1.0  0.21917  0.04900  0.51162  1.0000
  Fe  Fe42      1.0  0.39082  0.04059  0.69420  1.0000
  N   N17       1.0  0.03205  0.06324  0.54755  1.0000
  H   H433      1.0  0.12002  0.20895  0.52876  1.0000
  N   N18       1.0  0.23000  0.04767  0.52034  1.0000
  N   N19       1.0  0.19122  0.15791  0.56910  1.0000
  C   C265      1.0  0.20040  0.14277  0.57039  1.0000
  C   C266      1.0  0.17922  0.15872  0.56198  1.0000
  C   C267      1.0  0.18480  0.16064  0.58404  1.0000
  C   C268      1.0  0.20104  0.16803  0.56044  1.0000
  C   C269      1.0  0.18413  0.15660  0.54647  1.0000
  C   C270      1.0  0.17038  0.17198  0.58631  1.0000
  C   C271      1.0  0.19379  0.18407  0.55662  1.0000
  H   H434      1.0  0.20608  0.14043  0.55968  1.0000
  H   H435      1.0  0.17127  0.16916  0.56156  1.0000
  H   H436      1.0  0.17264  0.15063  0.56844  1.0000
  H   H437      1.0  0.20933  0.16755  0.56631  1.0000
  H   H438      1.0  0.20777  0.16466  0.55040  1.0000
  H   H439      1.0  0.17424  0.15831  0.54233  1.0000
  H   H440      1.0  0.19035  0.16464  0.53926  1.0000
  H   H441      1.0  0.19047  0.14557  0.54579  1.0000
  H   H442      1.0  0.16109  0.16800  0.58573  1.0000
  H   H443      1.0  0.17076  0.18244  0.57866  1.0000
  H   H444      1.0  0.16790  0.17393  0.59727  1.0000
  H   H445      1.0  0.19237  0.18942  0.56546  1.0000
  H   H446      1.0  0.18323  0.18600  0.55377  1.0000
  H   H447      1.0  0.20070  0.18943  0.54681  1.0000
  N   N20       1.0  0.39979  0.02072  0.63963  1.0000
  C   C272      1.0  0.39490  0.00832  0.65107  1.0000
  H   H448      1.0  0.03085  0.04634  0.53843  1.0000
  H   H449      1.0  0.21921  0.06716  0.52804  1.0000
  C   C273      1.0  0.32545  0.99524  0.68908  1.0000
  S   S85       1.0  0.20502  0.08662  0.49522  1.0000
  C   C274      1.0  0.37906  0.02195  0.62780  1.0000
  H   H450      1.0  0.04832  0.03450  0.55177  1.0000
  H   H451      1.0  0.00964  0.05563  0.53055  1.0000
  H   H452      1.0  0.38492  0.01224  0.65879  1.0000
  C   C275      1.0  0.09954  0.22693  0.61920  1.0000
  C   C276      1.0  0.12893  0.20717  0.49649  1.0000
  H   H453      1.0  0.06294  0.21342  0.65792  1.0000
  C   C277      1.0  0.20577  0.06314  0.62661  1.0000
  C   C278      1.0  0.11777  0.19927  0.50789  1.0000
  C   C279      1.0  0.40479  0.02941  0.64677  1.0000
  H   H454      1.0  0.41013  0.00475  0.62680  1.0000
  H   H455      1.0  0.13587  0.21054  0.50144  1.0000
  C   C280      1.0  0.02348  0.05416  0.54486  1.0000
  H   H456      1.0  0.42660  0.02255  0.60840  1.0000
  H   H457      1.0  0.37261  0.01497  0.63651  1.0000
  H   H458      1.0  0.37118  0.02998  0.62181  1.0000
  C   C281      1.0  0.32264  0.99691  0.57022  1.0000
  H   H459      1.0  0.48908  0.02184  0.65900  1.0000
  C   C282      1.0  0.49630  0.00901  0.60954  1.0000
  H   H460      1.0  0.24105  0.05757  0.53927  1.0000
  H   H461      1.0  0.48948  0.01941  0.61197  1.0000
  H   H462      1.0  0.33206  0.00178  0.56850  1.0000
  H   H463      1.0  0.06177  0.04479  0.54968  1.0000
  C   C283      1.0  0.22982  0.06253  0.52147  1.0000
  C   C284      1.0  0.41469  0.02455  0.61316  1.0000
  C   C285      1.0  0.10468  0.14602  0.49475  1.0000
  C   C286      1.0  0.08020  0.23902  0.60097  1.0000
  H   H464      1.0  0.42862  0.06390  0.71494  1.0000
  H   H465      1.0  0.18001  0.19667  0.52420  1.0000
  Fe  Fe43      1.0  0.33135  0.02266  0.61170  1.0000
  C   C287      1.0  0.01114  0.07464  0.56618  1.0000
  C   C288      1.0  0.22521  0.02321  0.53625  1.0000
  C   C289      1.0  0.49511  0.01231  0.68427  1.0000
  C   C290      1.0  0.43536  0.07453  0.72742  1.0000
  H   H466      1.0  0.23750  0.10506  0.61480  1.0000
  H   H467      1.0  0.23608  0.01581  0.53612  1.0000
  H   H468      1.0  0.22073  0.02220  0.52767  1.0000
  H   H469      1.0  0.21756  0.01957  0.54638  1.0000
  N   N21       1.0  0.48174  0.02359  0.68116  1.0000
  H   H470      1.0  0.10702  0.22216  0.62629  1.0000
  C   C291      1.0  0.41205  0.01471  0.62830  1.0000
  H   H471      1.0  0.20497  0.05617  0.63746  1.0000
  H   H472      1.0  0.39584  0.03302  0.65566  1.0000
  C   C292      1.0  0.38658  0.02981  0.63395  1.0000
  H   H473      1.0  0.46455  0.05510  0.69394  1.0000
  N   N22       1.0  0.21892  0.07767  0.63473  1.0000
  H   H474      1.0  0.10445  0.19148  0.53565  1.0000
  H   H475      1.0  0.46435  0.05178  0.67731  1.0000
  H   H476      1.0  0.25225  0.05955  0.49784  1.0000
  H   H477      1.0  0.12986  0.99638  0.51843  1.0000
  H   H478      1.0  0.18642  0.18741  0.50215  1.0000
  H   H479      1.0  0.19608  0.08050  0.64532  1.0000
  H   H480      1.0  0.40977  0.02162  0.60592  1.0000
  H   H481      1.0  0.22722  0.09779  0.60764  1.0000
  C   C293      1.0  0.07723  0.19812  0.63794  1.0000
  C   C294      1.0  0.16673  0.17970  0.50705  1.0000
  H   H482      1.0  0.19280  0.16373  0.58796  1.0000
  H   H483      1.0  0.19340  0.13481  0.57556  1.0000
  C   C295      1.0  0.47829  0.03443  0.69029  1.0000
  H   H484      1.0  0.47272  0.03476  0.66258  1.0000
  C   C296      1.0  0.05168  0.04146  0.55661  1.0000
  H   H485      1.0  0.35168  0.06135  0.66524  1.0000
  H   H486      1.0  0.20795  0.14024  0.59012  1.0000
  H   H487      1.0  0.18240  0.15064  0.59178  1.0000
  H   H488      1.0  0.19336  0.09079  0.52357  1.0000
  Fe  Fe44      1.0  0.40872  0.03947  0.71576  1.0000
  H   H489      1.0  0.45441  0.04278  0.69408  1.0000
  C   C297      1.0  0.46462  0.04662  0.68865  1.0000
  H   H490      1.0  0.07246  0.21859  0.51216  1.0000
  C   C298      1.0  0.06538  0.20423  0.62914  1.0000
  C   C299      1.0  0.31990  0.00916  0.69487  1.0000
  C   C300      1.0  0.21242  0.13897  0.57892  1.0000
  H   H491      1.0  0.08776  0.20385  0.53522  1.0000
  H   H492      1.0  0.08300  0.15908  0.49742  1.0000
  H   H493      1.0  0.23292  0.04748  0.63515  1.0000
  H   H494      1.0  0.32377  0.01812  0.68644  1.0000
  S   S86       1.0  0.17180  0.17339  0.49122  1.0000
  H   H495      1.0  0.39382  0.08537  0.69228  1.0000
  C   C301      1.0  0.36633  0.05885  0.73102  1.0000
  H   H496      1.0  0.45974  0.00075  0.68182  1.0000
  C   C302      1.0  0.23090  0.08592  0.62911  1.0000
  H   H497      1.0  0.41694  0.99562  0.65305  1.0000
  Fe  Fe45      1.0  0.41021  0.01254  0.70581  1.0000
  H   H498      1.0  0.35053  0.99584  0.54794  1.0000
  H   H499      1.0  0.04854  0.07924  0.51268  1.0000
  H   H500      1.0  0.01854  0.04759  0.55520  1.0000
  S   S87       1.0  0.39160  0.02778  0.71662  1.0000
  C   C303      1.0  0.41031  0.04275  0.63715  1.0000
  H   H501      1.0  0.49317  0.00669  0.69578  1.0000
  H   H502      1.0  0.40680  0.00382  0.66810  1.0000
  H   H503      1.0  0.05459  0.03489  0.56684  1.0000
  H   H504      1.0  0.36497  0.04923  0.72838  1.0000
  C   C304      1.0  0.09583  0.21855  0.50656  1.0000
  H   H505      1.0  0.20914  0.05568  0.61920  1.0000
  H   H506      1.0  0.20788  0.08672  0.66158  1.0000
  H   H507      1.0  0.11364  0.19384  0.50201  1.0000
  H   H508      1.0  0.08578  0.19335  0.51453  1.0000
  H   H509      1.0  0.07764  0.22502  0.52483  1.0000
  H   H510      1.0  0.05125  0.05729  0.53122  1.0000
  N   N23       1.0  0.10525  0.20840  0.51648  1.0000
  H   H511      1.0  0.35782  0.07363  0.71336  1.0000
  C   C305      1.0  0.36817  0.07065  0.71716  1.0000
  H   H512      1.0  0.01661  0.08375  0.54375  1.0000
  H   H513      1.0  0.30785  0.01243  0.69750  1.0000
  H   H514      1.0  0.36064  0.09731  0.70195  1.0000
  Fe  Fe46      1.0  0.45867  0.99362  0.61671  1.0000
  H   H515      1.0  0.22012  0.15917  0.49172  1.0000
  H   H516      1.0  0.34978  0.09205  0.72780  1.0000
  H   H517      1.0  0.04902  0.22930  0.66074  1.0000
  H   H518      1.0  0.49133  0.00056  0.61770  1.0000
  C   C306      1.0  0.49197  0.04253  0.65923  1.0000
  H   H519      1.0  0.00368  0.08516  0.56739  1.0000
  H   H520      1.0  0.04973  0.23631  0.61128  1.0000
  H   H521      1.0  0.40535  0.08963  0.70909  1.0000
  C   C307      1.0  0.34614  0.99330  0.60029  1.0000
  C   C308      1.0  0.37183  0.09441  0.70402  1.0000
  H   H522      1.0  0.37401  0.10476  0.70391  1.0000
  H   H523      1.0  0.15326  0.07309  0.49562  1.0000
  H   H524      1.0  0.33758  0.99337  0.68609  1.0000
  C   C309      1.0  0.38714  0.07941  0.72174  1.0000
  H   H525      1.0  0.20149  0.14603  0.48958  1.0000
  H   H526      1.0  0.06106  0.19097  0.49593  1.0000
  H   H527      1.0  0.39428  0.07098  0.71597  1.0000
  H   H528      1.0  0.40074  0.09000  0.72746  1.0000
  C   C310      1.0  0.36086  0.09005  0.72989  1.0000
  H   H529      1.0  0.37603  0.05541  0.73581  1.0000
  H   H530      1.0  0.14695  0.09844  0.49147  1.0000
  H   H531      1.0  0.36770  0.99244  0.62974  1.0000
  H   H532      1.0  0.37216  0.10226  0.73684  1.0000
  H   H533      1.0  0.16780  0.10703  0.49192  1.0000
  H   H534      1.0  0.19338  0.03501  0.48975  1.0000
  H   H535      1.0  0.10971  0.15512  0.48993  1.0000
  H   H536      1.0  0.24426  0.04989  0.49025  1.0000
  H   H537      1.0  0.16211  0.99488  0.49182  1.0000
  H   H538      1.0  0.19534  0.12577  0.49025  1.0000
  Fe  Fe47      1.0  0.44444  0.08090  0.79556  1.0000
  S   S88       1.0  0.46089  0.07353  0.77686  1.0000
  S   S89       1.0  0.43310  0.06695  0.81488  1.0000
  Fe  Fe48      1.0  0.44406  0.11239  0.78316  1.0000
  S   S90       1.0  0.46007  0.10807  0.76276  1.0000
  S   S91       1.0  0.43237  0.13309  0.79066  1.0000
  Fe  Fe49      1.0  0.44756  0.09171  0.76343  1.0000
  S   S92       1.0  0.44397  0.08859  0.74283  1.0000
  Fe  Fe50      1.0  0.47212  0.09016  0.77746  1.0000
  C   C311      1.0  0.47703  0.08999  0.86707  1.0000
  S   S93       1.0  0.43031  0.09800  0.78230  1.0000
  S   S94       1.0  0.45702  0.09550  0.79766  1.0000
  Fe  Fe51      1.0  0.44862  0.18135  0.86377  1.0000
  S   S95       1.0  0.44509  0.16352  0.85606  1.0000
  S   S96       1.0  0.43107  0.19384  0.87872  1.0000
  Fe  Fe52      1.0  0.48063  0.17632  0.85070  1.0000
  S   S97       1.0  0.48036  0.15815  0.84178  1.0000
  H   H539      1.0  0.48326  0.20372  0.80288  1.0000
  Fe  Fe53      1.0  0.45983  0.17172  0.83537  1.0000
  S   S98       1.0  0.45931  0.17151  0.81288  1.0000
  Fe  Fe54      1.0  0.46587  0.15103  0.86276  1.0000
  S   S99       1.0  0.47087  0.12731  0.87177  1.0000
  S   S100      1.0  0.46143  0.19092  0.84231  1.0000
  S   S101      1.0  0.46813  0.16785  0.87243  1.0000
  C   C312      1.0  0.45752  0.02251  0.84394  1.0000
  H   H540      1.0  0.42218  0.03581  0.81785  1.0000
  Fe  Fe55      1.0  0.47365  0.04565  0.87200  1.0000
  H   H541      1.0  0.47266  0.08186  0.86490  1.0000
  S   S102      1.0  0.45235  0.06168  0.87154  1.0000
  C   C313      1.0  0.46914  0.12429  0.89022  1.0000
  H   H542      1.0  0.40093  0.21952  0.87963  1.0000
  H   H543      1.0  0.41595  0.11724  0.82495  1.0000
  H   H544      1.0  0.41351  0.13278  0.84023  1.0000
  H   H545      1.0  0.46695  0.99834  0.88111  1.0000
  Fe  Fe56      1.0  0.49608  0.02799  0.88884  1.0000
  H   H546      1.0  0.43248  0.14200  0.84687  1.0000
  H   H547      1.0  0.47348  0.00719  0.83166  1.0000
  H   H548      1.0  0.45730  0.23207  0.86967  1.0000
  C   C314      1.0  0.44269  0.13387  0.84447  1.0000
  H   H549      1.0  0.41375  0.13008  0.85856  1.0000
  N   N24       1.0  0.49085  0.09872  0.84101  1.0000
  H   H550      1.0  0.49207  0.12126  0.81675  1.0000
  H   H551      1.0  0.48292  0.11435  0.77881  1.0000
  C   C315      1.0  0.43442  0.01822  0.87130  1.0000
  C   C316      1.0  0.47035  0.01887  0.83140  1.0000
  H   H552      1.0  0.42515  0.02310  0.87913  1.0000
  H   H553      1.0  0.42416  0.22793  0.90848  1.0000
  C   C317      1.0  0.43569  0.20770  0.88315  1.0000
  C   C318      1.0  0.42783  0.21239  0.89574  1.0000
  C   C319      1.0  0.43045  0.22426  0.89887  1.0000
  Fe  Fe57      1.0  0.48921  0.10547  0.94182  1.0000
  C   C320      1.0  0.44912  0.22654  0.87704  1.0000
  C   C321      1.0  0.44656  0.21463  0.87395  1.0000
  H   H554      1.0  0.41716  0.04039  0.83483  1.0000
  H   H555      1.0  0.46296  0.19013  0.89042  1.0000
  H   H556      1.0  0.45272  0.21107  0.86425  1.0000
  C   C322      1.0  0.42573  0.10834  0.82530  1.0000
  C   C323      1.0  0.46072  0.13493  0.89764  1.0000
  C   C324      1.0  0.45985  0.13271  0.91233  1.0000
  C   C325      1.0  0.42553  0.06925  0.75293  1.0000
  N   N25       1.0  0.44319  0.01953  0.84403  1.0000
  H   H557      1.0  0.49179  0.04321  0.81929  1.0000
  H   H558      1.0  0.45471  0.14481  0.89213  1.0000
  H   H559      1.0  0.45339  0.14097  0.91806  1.0000
  H   H560      1.0  0.44438  0.02012  0.87297  1.0000
  H   H561      1.0  0.48327  0.10212  0.81406  1.0000
  C   C326      1.0  0.43368  0.10647  0.86182  1.0000
  H   H562      1.0  0.39144  0.24169  0.91672  1.0000
  C   C327      1.0  0.40170  0.22832  0.86989  1.0000
  H   H563      1.0  0.43515  0.11198  0.81734  1.0000
  H   H564      1.0  0.41673  0.23658  0.87565  1.0000
  S   S103      1.0  0.47572  0.02354  0.88637  1.0000
  C   C328      1.0  0.48694  0.19243  0.80160  1.0000
  H   H565      1.0  0.39937  0.23005  0.89864  1.0000
  N   N26       1.0  0.48805  0.17173  0.91217  1.0000
  H   H566      1.0  0.35636  0.06217  0.73903  1.0000
  C   C329      1.0  0.44029  0.14215  0.79843  1.0000
  C   C330      1.0  0.45541  0.14000  0.79648  1.0000
  C   C331      1.0  0.46123  0.14856  0.80160  1.0000
  C   C332      1.0  0.45201  0.15888  0.80921  1.0000
  C   C333      1.0  0.43690  0.16047  0.81177  1.0000
  C   C334      1.0  0.43109  0.15226  0.80628  1.0000
  H   H567      1.0  0.46260  0.13236  0.79033  1.0000
  H   H568      1.0  0.47289  0.14757  0.79923  1.0000
  H   H569      1.0  0.42968  0.16866  0.81725  1.0000
  H   H570      1.0  0.41940  0.15407  0.80775  1.0000
  C   C335      1.0  0.43836  0.06651  0.83036  1.0000
  C   C336      1.0  0.45274  0.06659  0.82982  1.0000
  C   C337      1.0  0.45709  0.06517  0.84247  1.0000
  C   C338      1.0  0.44700  0.06390  0.85561  1.0000
  C   C339      1.0  0.43251  0.06428  0.85606  1.0000
  C   C340      1.0  0.42822  0.06546  0.84345  1.0000
  H   H571      1.0  0.46053  0.06740  0.81968  1.0000
  H   H572      1.0  0.46822  0.06514  0.84206  1.0000
  H   H573      1.0  0.42469  0.06327  0.86622  1.0000
  H   H574      1.0  0.41707  0.06544  0.84385  1.0000
  H   H575      1.0  0.48516  0.18522  0.81233  1.0000
  C   C341      1.0  0.43194  0.02536  0.85606  1.0000
  C   C342      1.0  0.47926  0.17477  0.90103  1.0000
  H   H576      1.0  0.46947  0.16544  0.92818  1.0000
  H   H577      1.0  0.47020  0.19507  0.92304  1.0000
  H   H578      1.0  0.39576  0.12044  0.84493  1.0000
  H   H579      1.0  0.48671  0.23327  0.89784  1.0000
  S   S104      1.0  0.50239  0.18121  0.84775  1.0000
  H   H580      1.0  0.45300  0.99966  0.83681  1.0000
  H   H581      1.0  0.47740  0.08570  0.81898  1.0000
  H   H582      1.0  0.47087  0.09340  0.84092  1.0000
  H   H583      1.0  0.45982  0.18498  0.93800  1.0000
  C   C343      1.0  0.44515  0.00355  0.84612  1.0000
  H   H584      1.0  0.42378  0.09952  0.82177  1.0000
  C   C344      1.0  0.46774  0.18897  0.89963  1.0000
  C   C345      1.0  0.47112  0.18537  0.93176  1.0000
  H   H585      1.0  0.46863  0.10010  0.86722  1.0000
  H   H586      1.0  0.48289  0.10301  0.89179  1.0000
  H   H587      1.0  0.47684  0.18678  0.93925  1.0000
  H   H588      1.0  0.47301  0.16633  0.90322  1.0000
  N   N27       1.0  0.42899  0.11384  0.84788  1.0000
  H   H589      1.0  0.48739  0.11984  0.84536  1.0000
  C   C346      1.0  0.48283  0.09025  0.83668  1.0000
  H   H590      1.0  0.48127  0.09906  0.91781  1.0000
  C   C347      1.0  0.47650  0.11131  0.89749  1.0000
  H   H591      1.0  0.48264  0.14358  0.92381  1.0000
  H   H592      1.0  0.45044  0.99759  0.85516  1.0000
  H   H593      1.0  0.38194  0.23397  0.89441  1.0000
  C   C348      1.0  0.39000  0.23897  0.89610  1.0000
  H   H594      1.0  0.48665  0.17458  0.89024  1.0000
  H   H595      1.0  0.44519  0.02092  0.82144  1.0000
  H   H596      1.0  0.35287  0.10761  0.74091  1.0000
  H   H597      1.0  0.39218  0.12384  0.86219  1.0000
  C   C349      1.0  0.43147  0.99782  0.84815  1.0000
  H   H598      1.0  0.43469  0.00655  0.87402  1.0000
  C   C350      1.0  0.43937  0.02730  0.82974  1.0000
  C   C351      1.0  0.41446  0.12430  0.85022  1.0000
  C   C352      1.0  0.41774  0.06019  0.75103  1.0000
  H   H599      1.0  0.36080  0.08232  0.74041  1.0000
  H   H600      1.0  0.45855  0.18888  0.90916  1.0000
  S   S105      1.0  0.49295  0.05069  0.87589  1.0000
  H   H601      1.0  0.45619  0.03407  0.84379  1.0000
  H   H602      1.0  0.43127  0.03702  0.85441  1.0000
  H   H603      1.0  0.42213  0.08855  0.86916  1.0000
  H   H604      1.0  0.41323  0.10382  0.87756  1.0000
  C   C353      1.0  0.49314  0.20014  0.86588  1.0000
  H   H605      1.0  0.49431  0.05763  0.82489  1.0000
  H   H606      1.0  0.41034  0.22359  0.86149  1.0000
  H   H607      1.0  0.41084  0.05475  0.76025  1.0000
  S   S106      1.0  0.46742  0.11775  0.93756  1.0000
  H   H608      1.0  0.43756  0.12776  0.82804  1.0000
  H   H609      1.0  0.43435  0.11442  0.86739  1.0000
  H   H610      1.0  0.42921  0.09162  0.88225  1.0000
  S   S107      1.0  0.48593  0.03755  0.85231  1.0000
  H   H611      1.0  0.42080  0.02466  0.85629  1.0000
  C   C354      1.0  0.42912  0.10260  0.84033  1.0000
  H   H612      1.0  0.42152  0.00346  0.85458  1.0000
  H   H613      1.0  0.44316  0.03756  0.82572  1.0000
  H   H614      1.0  0.47439  0.22456  0.92352  1.0000
  H   H615      1.0  0.45111  0.11464  0.83598  1.0000
  C   C355      1.0  0.44037  0.12210  0.83853  1.0000
  H   H616      1.0  0.47230  0.19857  0.89736  1.0000
  H   H617      1.0  0.48682  0.21546  0.87939  1.0000
  H   H618      1.0  0.41765  0.02239  0.83356  1.0000
  H   H619      1.0  0.48467  0.16417  0.93516  1.0000
  H   H620      1.0  0.46138  0.01639  0.85385  1.0000
  S   S108      1.0  0.49641  0.08520  0.77589  1.0000
  H   H621      1.0  0.45056  0.13969  0.83621  1.0000
  S   S109      1.0  0.49191  0.99760  0.85696  1.0000
  C   C356      1.0  0.49159  0.09224  0.85652  1.0000
  C   C357      1.0  0.49727  0.18275  0.90811  1.0000
  C   C358      1.0  0.48288  0.11422  0.83997  1.0000
  C   C359      1.0  0.43436  0.07655  0.74112  1.0000
  H   H622      1.0  0.43998  0.09502  0.83910  1.0000
  C   C360      1.0  0.50287  0.18945  0.79300  1.0000
  H   H623      1.0  0.48006  0.02176  0.83253  1.0000
  H   H624      1.0  0.48095  0.13505  0.82508  1.0000
  C   C361      1.0  0.50170  0.09736  0.78218  1.0000
  C   C362      1.0  0.40060  0.11813  0.85437  1.0000
  C   C363      1.0  0.42310  0.03153  0.82920  1.0000
  C   C364      1.0  0.48207  0.12365  0.82493  1.0000
  C   C365      1.0  0.47575  0.10915  0.91215  1.0000
  H   H625      1.0  0.47144  0.11494  0.84610  1.0000
  H   H626      1.0  0.41954  0.20694  0.90297  1.0000
  H   H627      1.0  0.40204  0.10656  0.85937  1.0000
  C   C366      1.0  0.46756  0.11992  0.91953  1.0000
  H   H628      1.0  0.46814  0.02506  0.82083  1.0000
  H   H629      1.0  0.49065  0.19385  0.90752  1.0000
  C   C367      1.0  0.49310  0.11118  0.78229  1.0000
  H   H630      1.0  0.48500  0.05985  0.98542  1.0000
  H   H631      1.0  0.47976  0.19037  0.79589  1.0000
  H   H632      1.0  0.48211  0.20089  0.86519  1.0000
  C   C368      1.0  0.49582  0.20839  0.87386  1.0000
  H   H633      1.0  0.47259  0.12291  0.82143  1.0000
  H   H634      1.0  0.37432  0.23920  0.91656  1.0000
  H   H635      1.0  0.48581  0.06154  0.81036  1.0000
  C   C369      1.0  0.42381  0.09715  0.87313  1.0000
  H   H636      1.0  0.44483  0.09948  0.85977  1.0000
  C   C370      1.0  0.44087  0.23158  0.88934  1.0000
  C   C371      1.0  0.47834  0.17096  0.92699  1.0000
  H   H637      1.0  0.44756  0.12945  0.85400  1.0000
  H   H638      1.0  0.42457  0.07073  0.76352  1.0000
  S   S110      1.0  0.50119  0.11734  0.94890  1.0000
  H   H639      1.0  0.42138  0.09569  0.84659  1.0000
  H   H640      1.0  0.48754  0.14466  0.90464  1.0000
  C   C372      1.0  0.49775  0.04681  0.78306  1.0000
  C   C373      1.0  0.47231  0.23608  0.91799  1.0000
  H   H641      1.0  0.47897  0.08583  0.87810  1.0000
  C   C374      1.0  0.48519  0.09105  0.82054  1.0000
  H   H642      1.0  0.39138  0.23164  0.86616  1.0000
  H   H643      1.0  0.49143  0.05645  0.78726  1.0000
  C   C375      1.0  0.49155  0.14440  0.91408  1.0000
  C   C376      1.0  0.40619  0.24105  0.87223  1.0000
  H   H644      1.0  0.48611  0.07857  0.84152  1.0000
  S   S111      1.0  0.49332  0.08536  0.95866  1.0000
  H   H645      1.0  0.46273  0.23797  0.91333  1.0000
  C   C377      1.0  0.49459  0.05383  0.81535  1.0000
  H   H646      1.0  0.50239  0.17841  0.92944  1.0000
  Fe  Fe58      1.0  0.49001  0.01594  0.86680  1.0000
  H   H647      1.0  0.49150  0.13197  0.78591  1.0000
  H   H648      1.0  0.49553  0.23317  0.91087  1.0000
  H   H649      1.0  0.49500  0.05052  0.90902  1.0000
  H   H650      1.0  0.49587  0.09902  0.86083  1.0000
  H   H651      1.0  0.49629  0.08514  0.81621  1.0000
  H   H652      1.0  0.50001  0.13430  0.91560  1.0000
  H   H653      1.0  0.42948  0.99806  0.83766  1.0000
  C   C378      1.0  0.49845  0.15732  0.91167  1.0000
  H   H654      1.0  0.50010  0.16186  0.80539  1.0000
  H   H655      1.0  0.48974  0.04172  0.78150  1.0000
  H   H656      1.0  0.49929  0.08155  0.85757  1.0000
  C   C379      1.0  0.49797  0.12114  0.78632  1.0000
  C   C380      1.0  0.48594  0.23901  0.90624  1.0000
  H   H657      1.0  0.49873  0.03144  0.80278  1.0000
  H   H658      1.0  0.50247  0.19869  0.81673  1.0000
  H   H659      1.0  0.50224  0.02961  0.97065  1.0000
  H   H660      1.0  0.50216  0.06480  0.92192  1.0000
  C   C381      1.0  0.50269  0.04532  0.91584  1.0000
  C   C382      1.0  0.41879  0.05813  0.73735  1.0000
  Fe  Fe59      1.0  0.30124  0.32836  0.03836  1.0000
  S   S112      1.0  0.32387  0.31628  0.04053  1.0000
  S   S113      1.0  0.28649  0.31807  0.03279  1.0000
  Fe  Fe60      1.0  0.30383  0.35448  0.04667  1.0000
  S   S114      1.0  0.32678  0.34484  0.04952  1.0000
  S   S115      1.0  0.29079  0.37682  0.04828  1.0000
  Fe  Fe61      1.0  0.33022  0.33729  0.02936  1.0000
  S   S116      1.0  0.34973  0.33723  0.01084  1.0000
  Fe  Fe62      1.0  0.31858  0.32466  0.06041  1.0000
  S   S117      1.0  0.32475  0.31117  0.08089  1.0000
  S   S118      1.0  0.30802  0.34868  0.02549  1.0000
  S   S119      1.0  0.29525  0.33493  0.05938  1.0000
  H   H661      1.0  0.50166  0.25088  0.04454  1.0000
  H   H662      1.0  0.38817  0.27194  0.98885  1.0000
  H   H663      1.0  0.17821  0.46076  0.11935  1.0000
  C   C383      1.0  0.28118  0.31318  0.99598  1.0000
  N   N28       1.0  0.33400  0.30226  0.99576  1.0000
  H   H664      1.0  0.33161  0.39938  0.99597  1.0000
  S   S120      1.0  0.17118  0.44820  0.21961  1.0000
  C   C384      1.0  0.19547  0.41844  0.19690  1.0000
  N   N29       1.0  0.36504  0.25049  0.10118  1.0000
  Fe  Fe63      1.0  0.40627  0.26209  0.03403  1.0000
  S   S121      1.0  0.39140  0.25831  0.05565  1.0000
  C   C385      1.0  0.22606  0.35309  0.13076  1.0000
  S   S122      1.0  0.12973  0.48344  0.10495  1.0000
  H   H665      1.0  0.03501  0.47565  0.12495  1.0000
  H   H666      1.0  0.15294  0.47485  0.13467  1.0000
  C   C386      1.0  0.10119  0.44943  0.99208  1.0000
  C   C387      1.0  0.47819  0.26388  0.01920  1.0000
  C   C388      1.0  0.40436  0.26067  0.00126  1.0000
  H   H667      1.0  0.38237  0.48880  0.01737  1.0000
  H   H668      1.0  0.26410  0.45592  0.06368  1.0000
  Fe  Fe64      1.0  0.23040  0.42791  0.11215  1.0000
  S   S123      1.0  0.25139  0.42601  0.11810  1.0000
  S   S124      1.0  0.22223  0.44694  0.09591  1.0000
  Fe  Fe65      1.0  0.22400  0.40098  0.13326  1.0000
  S   S125      1.0  0.24439  0.39660  0.14108  1.0000
  S   S126      1.0  0.20962  0.38516  0.14245  1.0000
  Fe  Fe66      1.0  0.23867  0.42018  0.14055  1.0000
  S   S127      1.0  0.23954  0.42754  0.15948  1.0000
  Fe  Fe67      1.0  0.25518  0.40272  0.11789  1.0000
  S   S128      1.0  0.27706  0.38899  0.11017  1.0000
  S   S129      1.0  0.21731  0.42402  0.13471  1.0000
  S   S130      1.0  0.23519  0.40511  0.11000  1.0000
  H   H669      1.0  0.20022  0.40935  0.22339  1.0000
  H   H670      1.0  0.16535  0.43849  0.04005  1.0000
  H   H671      1.0  0.49371  0.32141  0.99319  1.0000
  H   H672      1.0  0.08071  0.48380  0.20871  1.0000
  H   H673      1.0  0.49589  0.26852  0.00140  1.0000
  H   H674      1.0  0.17535  0.41265  0.17704  1.0000
  C   C389      1.0  0.48704  0.26298  0.00561  1.0000
  S   S131      1.0  0.05757  0.46407  0.19035  1.0000
  H   H675      1.0  0.21909  0.38542  0.19922  1.0000
  Fe  Fe68      1.0  0.14367  0.47070  0.08889  1.0000
  H   H676      1.0  0.41695  0.30871  0.98771  1.0000
  S   S132      1.0  0.15698  0.44907  0.09710  1.0000
  H   H677      1.0  0.26812  0.33546  0.09122  1.0000
  C   C390      1.0  0.18915  0.44086  0.04745  1.0000
  H   H678      1.0  0.22216  0.38898  0.17299  1.0000
  C   C391      1.0  0.33887  0.26291  0.11217  1.0000
  H   H679      1.0  0.23639  0.48563  0.09763  1.0000
  H   H680      1.0  0.23290  0.39817  0.17742  1.0000
  C   C392      1.0  0.13729  0.46040  0.02101  1.0000
  H   H681      1.0  0.36221  0.26491  0.07297  1.0000
  H   H682      1.0  0.11162  0.42677  0.99752  1.0000
  H   H683      1.0  0.12162  0.45376  0.04016  1.0000
  Fe  Fe69      1.0  0.04654  0.48747  0.18576  1.0000
  C   C393      1.0  0.28277  0.46039  0.07783  1.0000
  H   H684      1.0  0.48017  0.27027  0.02533  1.0000
  H   H685      1.0  0.37933  0.26277  0.08488  1.0000
  C   C394      1.0  0.47338  0.24718  0.00339  1.0000
  H   H686      1.0  0.31067  0.28591  0.02510  1.0000
  H   H687      1.0  0.43312  0.27062  0.99379  1.0000
  C   C395      1.0  0.17606  0.47110  0.12263  1.0000
  H   H688      1.0  0.41674  0.33127  0.02241  1.0000
  C   C396      1.0  0.12796  0.46177  0.03433  1.0000
  H   H689      1.0  0.16334  0.47306  0.04821  1.0000
  H   H690      1.0  0.33700  0.26021  0.12404  1.0000
  H   H691      1.0  0.15567  0.47416  0.11669  1.0000
  H   H692      1.0  0.27790  0.34056  0.10121  1.0000
  H   H693      1.0  0.18150  0.39953  0.21911  1.0000
  C   C397      1.0  0.10702  0.45735  0.18123  1.0000
  H   H694      1.0  0.19972  0.44383  0.04138  1.0000
  H   H695      1.0  0.33109  0.38446  0.01124  1.0000
  C   C398      1.0  0.07665  0.46132  0.18605  1.0000
  C   C399      1.0  0.08520  0.44764  0.19022  1.0000
  C   C400      1.0  0.10041  0.44566  0.18788  1.0000
  H   H696      1.0  0.40907  0.33448  0.00686  1.0000
  H   H697      1.0  0.23584  0.47080  0.08192  1.0000
  H   H698      1.0  0.08005  0.43866  0.19563  1.0000
  C   C401      1.0  0.19755  0.38728  0.15889  1.0000
  C   C402      1.0  0.19074  0.40090  0.16180  1.0000
  C   C403      1.0  0.18084  0.40217  0.17495  1.0000
  C   C404      1.0  0.17814  0.38982  0.18536  1.0000
  C   C405      1.0  0.18506  0.37627  0.18241  1.0000
  C   C406      1.0  0.19455  0.37501  0.16916  1.0000
  H   H699      1.0  0.19280  0.41041  0.15378  1.0000
  H   H700      1.0  0.18300  0.36669  0.19038  1.0000
  H   H701      1.0  0.19970  0.36448  0.16695  1.0000
  C   C407      1.0  0.23784  0.44592  0.15800  1.0000
  C   C408      1.0  0.23444  0.45634  0.14592  1.0000
  C   C409      1.0  0.23620  0.47498  0.15640  1.0000
  C   C410      1.0  0.18295  0.44960  0.01719  1.0000
  C   C411      1.0  0.23931  0.46455  0.16850  1.0000
  C   C412      1.0  0.24003  0.45011  0.16934  1.0000
  H   H702      1.0  0.23283  0.45306  0.13715  1.0000
  C   C413      1.0  0.29944  0.40424  0.01410  1.0000
  H   H703      1.0  0.01859  0.48357  0.16745  1.0000
  H   H704      1.0  0.24273  0.44209  0.17863  1.0000
  C   C414      1.0  0.20413  0.44755  0.09619  1.0000
  C   C415      1.0  0.19587  0.45988  0.08893  1.0000
  C   C416      1.0  0.18126  0.46055  0.08939  1.0000
  C   C417      1.0  0.17501  0.44878  0.09685  1.0000
  C   C418      1.0  0.18331  0.43642  0.10405  1.0000
  C   C419      1.0  0.19783  0.43585  0.10383  1.0000
  H   H705      1.0  0.20074  0.46894  0.08303  1.0000
  H   H706      1.0  0.17493  0.47014  0.08390  1.0000
  H   H707      1.0  0.17854  0.42726  0.10981  1.0000
  H   H708      1.0  0.20418  0.42625  0.10939  1.0000
  H   H709      1.0  0.04861  0.47835  0.13249  1.0000
  H   H710      1.0  0.37057  0.30109  0.09583  1.0000
  C   C420      1.0  0.17469  0.46053  0.14879  1.0000
  C   C421      1.0  0.23426  0.36139  0.11665  1.0000
  H   H711      1.0  0.35514  0.27334  0.09607  1.0000
  S   S133      1.0  0.45594  0.25819  0.04184  1.0000
  H   H712      1.0  0.19440  0.42487  0.06638  1.0000
  C   C422      1.0  0.33263  0.38765  0.99941  1.0000
  H   H713      1.0  0.18552  0.46988  0.17716  1.0000
  H   H714      1.0  0.10651  0.43532  0.01223  1.0000
  C   C423      1.0  0.18075  0.45942  0.02752  1.0000
  H   H715      1.0  0.37342  0.28789  0.05751  1.0000
  C   C424      1.0  0.28750  0.38067  0.06521  1.0000
  C   C425      1.0  0.27628  0.39225  0.06890  1.0000
  C   C426      1.0  0.27313  0.39510  0.08261  1.0000
  C   C427      1.0  0.28145  0.38657  0.09253  1.0000
  C   C428      1.0  0.29301  0.37533  0.08862  1.0000
  C   C429      1.0  0.29586  0.37221  0.07510  1.0000
  H   H716      1.0  0.26981  0.39883  0.06126  1.0000
  H   H717      1.0  0.26423  0.40382  0.08552  1.0000
  H   H718      1.0  0.29956  0.36878  0.09621  1.0000
  H   H719      1.0  0.30459  0.36332  0.07229  1.0000
  C   C430      1.0  0.35806  0.35162  0.00771  1.0000
  S   S134      1.0  0.13090  0.44744  0.21745  1.0000
  C   C431      1.0  0.35444  0.25787  0.07851  1.0000
  C   C432      1.0  0.37325  0.37302  0.00371  1.0000
  C   C433      1.0  0.36214  0.37062  0.01590  1.0000
  C   C434      1.0  0.35446  0.36004  0.01781  1.0000
  H   H720      1.0  0.38202  0.26768  0.10685  1.0000
  H   H721      1.0  0.36150  0.47912  0.01735  1.0000
  H   H722      1.0  0.35956  0.37687  0.02394  1.0000
  H   H723      1.0  0.34596  0.35829  0.02724  1.0000
  Fe  Fe70      1.0  0.15473  0.43814  0.21624  1.0000
  H   H724      1.0  0.21957  0.46206  0.11841  1.0000
  C   C435      1.0  0.28018  0.31211  0.01051  1.0000
  C   C436      1.0  0.28592  0.32128  0.01469  1.0000
  C   C437      1.0  0.29206  0.33200  0.00427  1.0000
  H   H725      1.0  0.21655  0.40790  0.17096  1.0000
  C   C438      1.0  0.44372  0.29544  0.98768  1.0000
  H   H726      1.0  0.27540  0.30381  0.01851  1.0000
  H   H727      1.0  0.29635  0.33919  0.00744  1.0000
  C   C439      1.0  0.36541  0.30028  0.08790  1.0000
  N   N30       1.0  0.07849  0.46698  0.22806  1.0000
  H   H728      1.0  0.44071  0.30714  0.98746  1.0000
  H   H729      1.0  0.18915  0.43097  0.04429  1.0000
  C   C440      1.0  0.48464  0.25468  0.99764  1.0000
  H   H730      1.0  0.18689  0.48921  0.21050  1.0000
  H   H731      1.0  0.38042  0.30267  0.01680  1.0000
  C   C441      1.0  0.35035  0.30546  0.08922  1.0000
  C   C442      1.0  0.34364  0.30473  0.07888  1.0000
  C   C443      1.0  0.35200  0.29851  0.06734  1.0000
  C   C444      1.0  0.36703  0.29286  0.06630  1.0000
  H   H732      1.0  0.34391  0.31025  0.09815  1.0000
  H   H733      1.0  0.34681  0.29780  0.05941  1.0000
  C   C445      1.0  0.17394  0.44553  0.14786  1.0000
  N   N31       1.0  0.11269  0.44436  0.13674  1.0000
  C   C446      1.0  0.11843  0.44820  0.12073  1.0000
  C   C447      1.0  0.11431  0.45592  0.14286  1.0000
  C   C448      1.0  0.09673  0.44417  0.13941  1.0000
  C   C449      1.0  0.12153  0.42979  0.14241  1.0000
  C   C450      1.0  0.11621  0.43871  0.11198  1.0000
  C   C451      1.0  0.13005  0.45727  0.14116  1.0000
  C   C452      1.0  0.08669  0.44731  0.15373  1.0000
  C   C453      1.0  0.11900  0.42453  0.15879  1.0000
  H   H734      1.0  0.11333  0.45949  0.11622  1.0000
  H   H735      1.0  0.13034  0.44762  0.11805  1.0000
  H   H736      1.0  0.10951  0.45426  0.15449  1.0000
  H   H737      1.0  0.10809  0.46661  0.13803  1.0000
  H   H738      1.0  0.09156  0.45245  0.13104  1.0000
  H   H739      1.0  0.09551  0.43368  0.13850  1.0000
  H   H740      1.0  0.11952  0.42132  0.13839  1.0000
  H   H741      1.0  0.13340  0.42958  0.13834  1.0000
  H   H742      1.0  0.12218  0.42741  0.11477  1.0000
  H   H743      1.0  0.10452  0.43917  0.11302  1.0000
  H   H744      1.0  0.12075  0.44281  0.10046  1.0000
  C   C454      1.0  0.18538  0.47271  0.04846  1.0000
  H   H745      1.0  0.12958  0.46619  0.14605  1.0000
  H   H746      1.0  0.13653  0.44745  0.14693  1.0000
  H   H747      1.0  0.08507  0.45867  0.15421  1.0000
  H   H748      1.0  0.09063  0.44039  0.16323  1.0000
  H   H749      1.0  0.07573  0.44554  0.15466  1.0000
  H   H750      1.0  0.12062  0.43217  0.16411  1.0000
  H   H751      1.0  0.12710  0.41436  0.16137  1.0000
  H   H752      1.0  0.10813  0.42198  0.16351  1.0000
  H   H753      1.0  0.37186  0.34765  0.98757  1.0000
  S   S135      1.0  0.41653  0.27691  0.03929  1.0000
  H   H754      1.0  0.26107  0.45058  0.09733  1.0000
  H   H755      1.0  0.34384  0.31058  0.00775  1.0000
  C   C455      1.0  0.04603  0.47785  0.12254  1.0000
  H   H756      1.0  0.02052  0.46636  0.15283  1.0000
  H   H757      1.0  0.18173  0.47786  0.11299  1.0000
  S   S136      1.0  0.12587  0.45540  0.17849  1.0000
  H   H758      1.0  0.08989  0.44756  0.99628  1.0000
  C   C456      1.0  0.41739  0.25035  0.00181  1.0000
  H   H759      1.0  0.25402  0.44644  0.08033  1.0000
  N   N32       1.0  0.25554  0.47293  0.08607  1.0000
  H   H760      1.0  0.35866  0.26716  0.11321  1.0000
  C   C457      1.0  0.25344  0.45604  0.07140  1.0000
  H   H761      1.0  0.25377  0.47186  0.11665  1.0000
  C   C458      1.0  0.18241  0.48368  0.13758  1.0000
  C   C459      1.0  0.19185  0.39251  0.22161  1.0000
  C   C460      1.0  0.36445  0.48207  0.00551  1.0000
  H   H762      1.0  0.20908  0.43092  0.17808  1.0000
  H   H763      1.0  0.43182  0.29001  0.01015  1.0000
  H   H764      1.0  0.31069  0.40287  0.01518  1.0000
  C   C461      1.0  0.42494  0.24431  0.98994  1.0000
  C   C462      1.0  0.34659  0.30189  0.00179  1.0000
  C   C463      1.0  0.19614  0.47284  0.17506  1.0000
  H   H765      1.0  0.18967  0.38842  0.23340  1.0000
  H   H766      1.0  0.17242  0.44779  0.01675  1.0000
  H   H767      1.0  0.21577  0.48341  0.18858  1.0000
  H   H768      1.0  0.21037  0.47855  0.12363  1.0000
  H   H769      1.0  0.16976  0.46104  0.06291  1.0000
  H   H770      1.0  0.37647  0.47962  0.00154  1.0000
  H   H771      1.0  0.36922  0.30352  0.99631  1.0000
  H   H772      1.0  0.05388  0.46839  0.11890  1.0000
  N   N33       1.0  0.38767  0.32611  0.03332  1.0000
  C   C464      1.0  0.38729  0.31946  0.02158  1.0000
  C   C465      1.0  0.39288  0.33986  0.02618  1.0000
  C   C466      1.0  0.37233  0.32929  0.04228  1.0000
  C   C467      1.0  0.39782  0.31544  0.04216  1.0000
  C   C468      1.0  0.38026  0.30628  0.02642  1.0000
  C   C469      1.0  0.40836  0.33830  0.01650  1.0000
  C   C470      1.0  0.36850  0.34111  0.05081  1.0000
  C   C471      1.0  0.40105  0.32037  0.05404  1.0000
  H   H773      1.0  0.38129  0.32754  0.01376  1.0000
  H   H774      1.0  0.39847  0.31583  0.01535  1.0000
  H   H775      1.0  0.39266  0.34597  0.03399  1.0000
  H   H776      1.0  0.38531  0.34721  0.01949  1.0000
  H   H777      1.0  0.36418  0.33268  0.03546  1.0000
  H   H778      1.0  0.36971  0.31944  0.05011  1.0000
  H   H779      1.0  0.39330  0.30574  0.04769  1.0000
  H   H780      1.0  0.40840  0.31106  0.03538  1.0000
  H   H781      1.0  0.36866  0.30881  0.03209  1.0000
  S   S137      1.0  0.38363  0.38524  0.00237  1.0000
  H   H782      1.0  0.38644  0.29703  0.03311  1.0000
  C   C472      1.0  0.39844  0.26426  0.98917  1.0000
  H   H783      1.0  0.47952  0.24635  0.05535  1.0000
  C   C473      1.0  0.46664  0.25681  0.02475  1.0000
  H   H784      1.0  0.35748  0.34109  0.05793  1.0000
  H   H785      1.0  0.36788  0.35193  0.04359  1.0000
  H   H786      1.0  0.37610  0.33946  0.05773  1.0000
  H   H787      1.0  0.39256  0.31873  0.06408  1.0000
  H   H788      1.0  0.40227  0.33161  0.05103  1.0000
  H   H789      1.0  0.41172  0.31385  0.05632  1.0000
  C   C474      1.0  0.25630  0.36607  0.09920  1.0000
  C   C475      1.0  0.25656  0.35744  0.12475  1.0000
  C   C476      1.0  0.27311  0.35213  0.12353  1.0000
  H   H790      1.0  0.26830  0.36322  0.09579  1.0000
  H   H791      1.0  0.25389  0.37719  0.10089  1.0000
  H   H792      1.0  0.25363  0.36886  0.12578  1.0000
  H   H793      1.0  0.25166  0.35122  0.13526  1.0000
  H   H794      1.0  0.27605  0.35488  0.13225  1.0000
  H   H795      1.0  0.27953  0.35740  0.11340  1.0000
  H   H796      1.0  0.27646  0.34028  0.12497  1.0000
  H   H797      1.0  0.32626  0.28963  0.02849  1.0000
  C   C477      1.0  0.32237  0.38180  0.99439  1.0000
  H   H798      1.0  0.17953  0.43891  0.07110  1.0000
  C   C478      1.0  0.16314  0.44723  0.04580  1.0000
  H   H799      1.0  0.33157  0.27343  0.10875  1.0000
  S   S138      1.0  0.12557  0.47230  0.07861  1.0000
  H   H800      1.0  0.27712  0.30575  0.99282  1.0000
  C   C479      1.0  0.15606  0.44103  0.06137  1.0000
  S   S139      1.0  0.15153  0.48947  0.07325  1.0000
  C   C480      1.0  0.08427  0.48007  0.21908  1.0000
  C   C481      1.0  0.32998  0.33005  0.98879  1.0000
  H   H801      1.0  0.34370  0.26457  0.08257  1.0000
  C   C482      1.0  0.37996  0.25359  0.09422  1.0000
  H   H802      1.0  0.15462  0.45592  0.04135  1.0000
  C   C483      1.0  0.10097  0.47849  0.21480  1.0000
  H   H803      1.0  0.29078  0.46179  0.06741  1.0000
  C   C484      1.0  0.25022  0.36706  0.08619  1.0000
  C   C485      1.0  0.21856  0.42633  0.20616  1.0000
  H   H804      1.0  0.20269  0.45730  0.14174  1.0000
  H   H805      1.0  0.22859  0.43066  0.20292  1.0000
  C   C486      1.0  0.13547  0.48354  0.03287  1.0000
  C   C487      1.0  0.19000  0.43663  0.06342  1.0000
  S   S140      1.0  0.42013  0.25247  0.06899  1.0000
  H   H806      1.0  0.14576  0.43837  0.06144  1.0000
  H   H807      1.0  0.15297  0.44880  0.06834  1.0000
  C   C488      1.0  0.35491  0.26392  0.10530  1.0000
  C   C489      1.0  0.19808  0.46116  0.13195  1.0000
  H   H808      1.0  0.23103  0.47902  0.13581  1.0000
  H   H809      1.0  0.34102  0.33149  0.98793  1.0000
  H   H810      1.0  0.27315  0.32360  0.10676  1.0000
  H   H811      1.0  0.41534  0.29119  0.99786  1.0000
  H   H812      1.0  0.16815  0.44615  0.13955  1.0000
  H   H813      1.0  0.31800  0.31077  0.01301  1.0000
  H   H814      1.0  0.15292  0.46969  0.00348  1.0000
  H   H815      1.0  0.22920  0.36088  0.10818  1.0000
  C   C490      1.0  0.44301  0.28778  0.00353  1.0000
  N   N34       1.0  0.20842  0.40729  0.20124  1.0000
  C   C491      1.0  0.01217  0.47618  0.15230  1.0000
  H   H816      1.0  0.16328  0.46610  0.15251  1.0000
  C   C492      1.0  0.09853  0.47081  0.17645  1.0000
  H   H817      1.0  0.07693  0.48331  0.17537  1.0000
  C   C493      1.0  0.17304  0.46481  0.05117  1.0000
  H   H818      1.0  0.18003  0.45899  0.15777  1.0000
  H   H819      1.0  0.16766  0.44035  0.15826  1.0000
  H   H820      1.0  0.25325  0.33332  0.12228  1.0000
  C   C494      1.0  0.27086  0.47443  0.07823  1.0000
  H   H821      1.0  0.04219  0.48256  0.22489  1.0000
  H   H822      1.0  0.16675  0.48589  0.15801  1.0000
  H   H823      1.0  0.19112  0.46310  0.02484  1.0000
  H   H824      1.0  0.30787  0.36161  0.99387  1.0000
  S   S141      1.0  0.13915  0.44535  0.01419  1.0000
  Fe  Fe71      1.0  0.11225  0.48682  0.09333  1.0000
  H   H825      1.0  0.10611  0.47155  0.20693  1.0000
  C   C495      1.0  0.12713  0.47327  0.04032  1.0000
  H   H826      1.0  0.07941  0.47921  0.13718  1.0000
  H   H827      1.0  0.20546  0.47336  0.10989  1.0000
  H   H828      1.0  0.39877  0.25858  0.09758  1.0000
  H   H829      1.0  0.20253  0.47048  0.16454  1.0000
  C   C496      1.0  0.26129  0.46337  0.11123  1.0000
  H   H830      1.0  0.24146  0.46761  0.17716  1.0000
  H   H831      1.0  0.28912  0.45837  0.08610  1.0000
  C   C497      1.0  0.06359  0.46855  0.22549  1.0000
  H   H832      1.0  0.29248  0.40307  0.02511  1.0000
  N   N35       1.0  0.17663  0.45286  0.04334  1.0000
  Fe  Fe72      1.0  0.15356  0.44598  0.99203  1.0000
  H   H833      1.0  0.45001  0.29184  0.00782  1.0000
  H   H834      1.0  0.32842  0.27815  0.01657  1.0000
  C   C498      1.0  0.20411  0.40087  0.21706  1.0000
  H   H835      1.0  0.21610  0.42309  0.21801  1.0000
  S   S142      1.0  0.17764  0.43652  0.98755  1.0000
  H   H836      1.0  0.24587  0.33907  0.10670  1.0000
  H   H837      1.0  0.18686  0.41312  0.19699  1.0000
  H   H838      1.0  0.18488  0.43832  0.14596  1.0000
  Fe  Fe73      1.0  0.43260  0.25681  0.04618  1.0000
  H   H839      1.0  0.25004  0.35641  0.08491  1.0000
  H   H840      1.0  0.16303  0.43083  0.06594  1.0000
  C   C499      1.0  0.22143  0.41351  0.19914  1.0000
  C   C500      1.0  0.05249  0.48273  0.22739  1.0000
  C   C501      1.0  0.19801  0.42882  0.18206  1.0000
  C   C502      1.0  0.22151  0.39799  0.17784  1.0000
  C   C503      1.0  0.24756  0.47026  0.07650  1.0000
  H   H841      1.0  0.21414  0.35687  0.13132  1.0000
  N   N36       1.0  0.18242  0.46928  0.13529  1.0000
  H   H842      1.0  0.12004  0.47421  0.05064  1.0000
  H   H843      1.0  0.20970  0.43525  0.20260  1.0000
  S   S143      1.0  0.15151  0.41626  0.22886  1.0000
  H   H844      1.0  0.07883  0.47157  0.99119  1.0000
  S   S144      1.0  0.39250  0.28718  0.07543  1.0000
  C   C504      1.0  0.01119  0.48599  0.16043  1.0000
  H   H845      1.0  0.25726  0.37209  0.07626  1.0000
  C   C505      1.0  0.19262  0.48486  0.20078  1.0000
  S   S145      1.0  0.15861  0.43295  0.19484  1.0000
  H   H846      1.0  0.27473  0.48095  0.08324  1.0000
  Fe  Fe74      1.0  0.12783  0.42506  0.22852  1.0000
  H   H847      1.0  0.19541  0.42489  0.17391  1.0000
  H   H848      1.0  0.22876  0.34135  0.13147  1.0000
  H   H849      1.0  0.34890  0.29173  0.00990  1.0000
  H   H850      1.0  0.19056  0.43915  0.01991  1.0000
  H   H851      1.0  0.10621  0.47439  0.22405  1.0000
  H   H852      1.0  0.23912  0.37406  0.08688  1.0000
  H   H853      1.0  0.17027  0.48044  0.19451  1.0000
  H   H854      1.0  0.23042  0.40505  0.20324  1.0000
  C   C506      1.0  0.32072  0.30152  0.00784  1.0000
  H   H855      1.0  0.06459  0.46753  0.21442  1.0000
  H   H856      1.0  0.33542  0.25489  0.10886  1.0000
  C   C507      1.0  0.14543  0.47079  0.01354  1.0000
  H   H857      1.0  0.24371  0.45997  0.10446  1.0000
  H   H858      1.0  0.18477  0.46348  0.23077  1.0000
  H   H859      1.0  0.07970  0.48916  0.22459  1.0000
  H   H860      1.0  0.44735  0.27603  0.00490  1.0000
  H   H861      1.0  0.42207  0.24753  0.01102  1.0000
  S   S146      1.0  0.39599  0.27010  0.01495  1.0000
  C   C508      1.0  0.36906  0.35413  0.99541  1.0000
  Fe  Fe75      1.0  0.13447  0.44027  0.19716  1.0000
  C   C509      1.0  0.14873  0.46719  0.23296  1.0000
  C   C510      1.0  0.26916  0.33514  0.10211  1.0000
  C   C511      1.0  0.23348  0.47095  0.14517  1.0000
  N   N37       1.0  0.25063  0.35611  0.11288  1.0000
  H   H862      1.0  0.25304  0.48988  0.09692  1.0000
  Fe  Fe76      1.0  0.40318  0.27134  0.06143  1.0000
  C   C512      1.0  0.21255  0.39526  0.19338  1.0000
  S   S147      1.0  0.12946  0.41866  0.20814  1.0000
  C   C513      1.0  0.29787  0.39295  0.00707  1.0000
  H   H863      1.0  0.24575  0.45508  0.06557  1.0000
  H   H864      1.0  0.19068  0.43950  0.18280  1.0000
  H   H865      1.0  0.23134  0.37292  0.11727  1.0000
  S   S148      1.0  0.16692  0.39066  0.20245  1.0000
  H   H866      1.0  0.19000  0.42512  0.20501  1.0000
  H   H867      1.0  0.21368  0.39339  0.22105  1.0000
  Fe  Fe77      1.0  0.15352  0.41179  0.20743  1.0000
  H   H868      1.0  0.28619  0.39575  0.00641  1.0000
  H   H869      1.0  0.10694  0.43514  0.19135  1.0000
  H   H870      1.0  0.22788  0.35538  0.14030  1.0000
  C   C514      1.0  0.33779  0.28977  0.98862  1.0000
  H   H871      1.0  0.22629  0.41720  0.18772  1.0000
  C   C515      1.0  0.37375  0.29389  0.07652  1.0000
  H   H872      1.0  0.49857  0.34024  0.00050  1.0000
  H   H873      1.0  0.20266  0.39211  0.19302  1.0000
  H   H874      1.0  0.27100  0.48049  0.06697  1.0000
  C   C516      1.0  0.20876  0.46946  0.12030  1.0000
  H   H875      1.0  0.02297  0.48774  0.10565  1.0000
  H   H876      1.0  0.05824  0.45984  0.23279  1.0000
  H   H877      1.0  0.29543  0.41534  0.00830  1.0000
  C   C517      1.0  0.25513  0.46123  0.09953  1.0000
  H   H878      1.0  0.18257  0.47949  0.05641  1.0000
  C   C518      1.0  0.14433  0.48245  0.01934  1.0000
  C   C519      1.0  0.08338  0.47283  0.17894  1.0000
  H   H879      1.0  0.10369  0.47973  0.17108  1.0000
  S   S149      1.0  0.09071  0.48317  0.10706  1.0000
  H   H880      1.0  0.27891  0.45066  0.07885  1.0000
  C   C520      1.0  0.25412  0.34069  0.11150  1.0000
  H   H881      1.0  0.09022  0.45560  0.21149  1.0000
  H   H882      1.0  0.13583  0.45995  0.12984  1.0000
  C   C521      1.0  0.08815  0.45368  0.22328  1.0000
  H   H883      1.0  0.14137  0.46242  0.23053  1.0000
  H   H884      1.0  0.41105  0.34909  0.01255  1.0000
  C   C522      1.0  0.20898  0.48356  0.19948  1.0000
  H   H885      1.0  0.17237  0.46923  0.02440  1.0000
  C   C523      1.0  0.37656  0.36493  0.99334  1.0000
  H   H886      1.0  0.12457  0.46133  0.99120  1.0000
  H   H887      1.0  0.10342  0.48923  0.20945  1.0000
  H   H888      1.0  0.19882  0.45141  0.12818  1.0000
  C   C524      1.0  0.15973  0.47802  0.12393  1.0000
  N   N38       1.0  0.10157  0.46445  0.99236  1.0000
  C   C525      1.0  0.17314  0.46781  0.23315  1.0000
  H   H889      1.0  0.31082  0.30281  0.00387  1.0000
  H   H890      1.0  0.19792  0.44169  0.06520  1.0000
  N   N39       1.0  0.30781  0.39153  0.99262  1.0000
  H   H891      1.0  0.19480  0.38303  0.21677  1.0000
  C   C526      1.0  0.46422  0.24842  0.01686  1.0000
  C   C527      1.0  0.16378  0.46182  0.22939  1.0000
  H   H892      1.0  0.32334  0.33087  0.99964  1.0000
  H   H893      1.0  0.35295  0.25305  0.07038  1.0000
  C   C528      1.0  0.11103  0.43690  0.00051  1.0000
  H   H894      1.0  0.09910  0.45120  0.22554  1.0000
  H   H895      1.0  0.10693  0.45745  0.01327  1.0000
  H   H896      1.0  0.04710  0.48918  0.10051  1.0000
  H   H897      1.0  0.36028  0.47492  0.00159  1.0000
  H   H898      1.0  0.20239  0.46583  0.18312  1.0000
  C   C529      1.0  0.32177  0.28802  0.02014  1.0000
  H   H899      1.0  0.12231  0.43836  0.99808  1.0000
  H   H900      1.0  0.18768  0.45501  0.00614  1.0000
  H   H901      1.0  0.08787  0.46234  0.01373  1.0000
  C   C530      1.0  0.09848  0.46530  0.00784  1.0000
  H   H902      1.0  0.18658  0.48009  0.03773  1.0000
  C   C531      1.0  0.29291  0.33320  0.98969  1.0000
  C   C532      1.0  0.29760  0.36988  0.99334  1.0000
  H   H903      1.0  0.27220  0.46595  0.10697  1.0000
  H   H904      1.0  0.29926  0.38249  0.01499  1.0000
  H   H905      1.0  0.19596  0.46521  0.04957  1.0000
  H   H906      1.0  0.21342  0.47309  0.20616  1.0000
  H   H907      1.0  0.09027  0.48887  0.00607  1.0000
  H   H908      1.0  0.26238  0.45329  0.11964  1.0000
  H   H909      1.0  0.19116  0.48259  0.14318  1.0000
  H   H910      1.0  0.29056  0.36990  0.00420  1.0000
  C   C533      1.0  0.09823  0.47976  0.01081  1.0000
  H   H911      1.0  0.19060  0.47379  0.20388  1.0000
  H   H912      1.0  0.32092  0.37158  0.00226  1.0000
  C   C534      1.0  0.38769  0.25728  0.10380  1.0000
  H   H913      1.0  0.31289  0.41258  0.98833  1.0000
  H   H914      1.0  0.34295  0.27965  0.99529  1.0000
  C   C535      1.0  0.36111  0.30291  0.99078  1.0000
  H   H915      1.0  0.49583  0.36482  0.99186  1.0000
  H   H916      1.0  0.09099  0.43062  0.22623  1.0000
  C   C536      1.0  0.07932  0.49047  0.13285  1.0000
  H   H917      1.0  0.07299  0.44022  0.22492  1.0000
  H   H918      1.0  0.34409  0.38311  0.99451  1.0000
  C   C537      1.0  0.08228  0.43981  0.22942  1.0000
  H   H919      1.0  0.24762  0.47879  0.06651  1.0000
  H   H920      1.0  0.10926  0.48212  0.00747  1.0000
  H   H921      1.0  0.31699  0.28281  0.99416  1.0000
  H   H922      1.0  0.09496  0.47893  0.02258  1.0000
  C   C538      1.0  0.19434  0.48892  0.17446  1.0000
  C   C539      1.0  0.24722  0.48686  0.09051  1.0000
  C   C540      1.0  0.16839  0.49142  0.14652  1.0000
  C   C541      1.0  0.36003  0.24578  0.09057  1.0000
  S   S150      1.0  0.00418  0.46736  0.13262  1.0000
  H   H923      1.0  0.38919  0.24867  0.11345  1.0000
  H   H924      1.0  0.45541  0.24279  0.02118  1.0000
  H   H925      1.0  0.45852  0.24359  0.07203  1.0000
  H   H926      1.0  0.20549  0.49098  0.17078  1.0000
  H   H927      1.0  0.18503  0.49129  0.12710  1.0000
  C   C542      1.0  0.17074  0.49202  0.19111  1.0000
  H   H928      1.0  0.15787  0.48991  0.12065  1.0000
  C   C543      1.0  0.04791  0.49140  0.11056  1.0000
  H   H929      1.0  0.15077  0.49038  0.01353  1.0000
  H   H930      1.0  0.38750  0.24443  0.08972  1.0000
  H   H931      1.0  0.36756  0.24231  0.12314  1.0000
  S   S151      1.0  0.42348  0.24217  0.03926  1.0000
  H   H932      1.0  0.29169  0.36655  0.98725  1.0000
  H   H933      1.0  0.02310  0.31942  0.47964  1.0000
  H   H934      1.0  0.10225  0.25383  0.36612  1.0000
  H   H935      1.0  0.08891  0.45847  0.26069  1.0000
  Fe  Fe78      1.0  0.05265  0.27918  0.40678  1.0000
  H   H936      1.0  0.12607  0.24588  0.39312  1.0000
  H   H937      1.0  0.01592  0.34922  0.30486  1.0000
  C   C544      1.0  0.10739  0.36339  0.30708  1.0000
  S   S152      1.0  0.05734  0.26108  0.39583  1.0000
  H   H938      1.0  0.03875  0.35713  0.38923  1.0000
  C   C545      1.0  0.01972  0.32109  0.40771  1.0000
  C   C546      1.0  0.09700  0.26034  0.39947  1.0000
  H   H939      1.0  0.12387  0.39388  0.24688  1.0000
  C   C547      1.0  0.11703  0.26583  0.37786  1.0000
  Fe  Fe79      1.0  0.05151  0.34353  0.31938  1.0000
  S   S153      1.0  0.05328  0.35031  0.29554  1.0000
  S   S154      1.0  0.04907  0.32132  0.33208  1.0000
  Fe  Fe80      1.0  0.04965  0.37342  0.32215  1.0000
  S   S155      1.0  0.05090  0.38313  0.29882  1.0000
  S   S156      1.0  0.04762  0.38523  0.33892  1.0000
  Fe  Fe81      1.0  0.03560  0.36926  0.30065  1.0000
  H   H940      1.0  0.07916  0.43740  0.24127  1.0000
  Fe  Fe82      1.0  0.06854  0.36360  0.29544  1.0000
  S   S157      1.0  0.08994  0.36445  0.27908  1.0000
  S   S158      1.0  0.03258  0.36154  0.32441  1.0000
  S   S159      1.0  0.06850  0.35484  0.31890  1.0000
  H   H941      1.0  0.08174  0.41718  0.26499  1.0000
  H   H942      1.0  0.08629  0.29264  0.35858  1.0000
  H   H943      1.0  0.00925  0.32540  0.41459  1.0000
  C   C548      1.0  0.01634  0.30516  0.45322  1.0000
  C   C549      1.0  0.02249  0.29125  0.45084  1.0000
  H   H944      1.0  0.02986  0.32414  0.37394  1.0000
  H   H945      1.0  0.01854  0.31308  0.40258  1.0000
  C   C550      1.0  0.12852  0.25622  0.38650  1.0000
  H   H946      1.0  0.07363  0.41307  0.30989  1.0000
  H   H947      1.0  0.03204  0.28939  0.44235  1.0000
  H   H948      1.0  0.02111  0.31406  0.44653  1.0000
  C   C551      1.0  0.07207  0.40469  0.30558  1.0000
  C   C552      1.0  0.03187  0.39902  0.33941  1.0000
  C   C553      1.0  0.02353  0.40180  0.35262  1.0000
  C   C554      1.0  0.01190  0.34545  0.48409  1.0000
  H   H949      1.0  0.11707  0.27712  0.37756  1.0000
  S   S160      1.0  0.01983  0.26228  0.39048  1.0000
  C   C555      1.0  0.02734  0.40699  0.32681  1.0000
  H   H950      1.0  0.02701  0.39574  0.36238  1.0000
  H   H951      1.0  0.02719  0.31509  0.41504  1.0000
  H   H952      1.0  0.03622  0.37069  0.37360  1.0000
  H   H953      1.0  0.03370  0.40485  0.31656  1.0000
  C   C556      1.0  0.05258  0.31549  0.34939  1.0000
  C   C557      1.0  0.04859  0.30285  0.35815  1.0000
  C   C558      1.0  0.05083  0.29804  0.37216  1.0000
  C   C559      1.0  0.05736  0.30568  0.37743  1.0000
  C   C560      1.0  0.06149  0.31830  0.36864  1.0000
  C   C561      1.0  0.05900  0.32327  0.35467  1.0000
  H   H954      1.0  0.04354  0.29683  0.35416  1.0000
  H   H955      1.0  0.06652  0.32429  0.37266  1.0000
  H   H956      1.0  0.06210  0.33304  0.34797  1.0000
  H   H957      1.0  0.09064  0.38376  0.34215  1.0000
  C   C562      1.0  0.11296  0.39400  0.25342  1.0000
  H   H958      1.0  0.07523  0.39600  0.33544  1.0000
  H   H959      1.0  0.04728  0.28851  0.37889  1.0000
  N   N40       1.0  0.01902  0.34154  0.38477  1.0000
  S   S161      1.0  0.01661  0.37892  0.28999  1.0000
  H   H960      1.0  0.07093  0.45735  0.25055  1.0000
  H   H961      1.0  0.01867  0.47745  0.45311  1.0000
  C   C563      1.0  0.08229  0.38982  0.30911  1.0000
  H   H962      1.0  0.12123  0.26455  0.36658  1.0000
  C   C564      1.0  0.08925  0.40709  0.26367  1.0000
  C   C565      1.0  0.08479  0.39410  0.27050  1.0000
  C   C566      1.0  0.09455  0.38097  0.26923  1.0000
  H   H963      1.0  0.17483  0.48459  0.24203  1.0000
  H   H964      1.0  0.13055  0.26222  0.39335  1.0000
  H   H965      1.0  0.10367  0.25028  0.40463  1.0000
  H   H966      1.0  0.07386  0.39423  0.27686  1.0000
  H   H967      1.0  0.00396  0.41397  0.36359  1.0000
  C   C567      1.0  0.09289  0.28156  0.36134  1.0000
  H   H968      1.0  0.01165  0.32374  0.38240  1.0000
  H   H969      1.0  0.09406  0.41640  0.28960  1.0000
  H   H970      1.0  0.11618  0.37088  0.25939  1.0000
  H   H971      1.0  0.09701  0.36958  0.32693  1.0000
  C   C568      1.0  0.08668  0.39470  0.33604  1.0000
  H   H972      1.0  0.00370  0.35346  0.40005  1.0000
  H   H973      1.0  0.10034  0.45633  0.24414  1.0000
  S   S162      1.0  0.05949  0.26490  0.42674  1.0000
  H   H974      1.0  0.03906  0.34604  0.36994  1.0000
  N   N41       1.0  0.09723  0.38949  0.31073  1.0000
  H   H975      1.0  0.08319  0.38430  0.30053  1.0000
  H   H976      1.0  0.07980  0.27615  0.38247  1.0000
  S   S163      1.0  0.10892  0.42356  0.24778  1.0000
  C   C569      1.0  0.10336  0.40709  0.25516  1.0000
  S   S164      1.0  0.02384  0.26232  0.45683  1.0000
  N   N42       1.0  0.10167  0.26347  0.38334  1.0000
  C   C570      1.0  0.10691  0.39438  0.29637  1.0000
  Fe  Fe83      1.0  0.03621  0.26285  0.43419  1.0000
  H   H977      1.0  0.08656  0.40231  0.34238  1.0000
  H   H978      1.0  0.02670  0.34051  0.40352  1.0000
  H   H979      1.0  0.13912  0.25356  0.37892  1.0000
  C   C571      1.0  0.10859  0.38098  0.26052  1.0000
  C   C572      1.0  0.07683  0.46586  0.24379  1.0000
  H   H980      1.0  0.09574  0.26785  0.41835  1.0000
  C   C573      1.0  0.00660  0.35376  0.29997  1.0000
  H   H981      1.0  0.07629  0.38329  0.31879  1.0000
  H   H982      1.0  0.00540  0.47205  0.44738  1.0000
  H   H983      1.0  0.10525  0.38996  0.28802  1.0000
  H   H984      1.0  0.10956  0.41564  0.29658  1.0000
  C   C574      1.0  0.09131  0.27704  0.37774  1.0000
  C   C575      1.0  0.09669  0.39823  0.32108  1.0000
  S   S165      1.0  0.02897  0.27911  0.41544  1.0000
  Fe  Fe84      1.0  0.06212  0.24667  0.41653  1.0000
  H   H985      1.0  0.11495  0.36632  0.29666  1.0000
  H   H986      1.0  0.03809  0.32844  0.39265  1.0000
  H   H987      1.0  0.02076  0.36844  0.38808  1.0000
  H   H988      1.0  0.09727  0.36213  0.30522  1.0000
  H   H989      1.0  0.11212  0.41250  0.27928  1.0000
  H   H990      1.0  0.09360  0.47418  0.24768  1.0000
  H   H991      1.0  0.11462  0.37348  0.31944  1.0000
  C   C576      1.0  0.00408  0.28213  0.47062  1.0000
  H   H992      1.0  0.11864  0.39008  0.29675  1.0000
  C   C577      1.0  0.02646  0.33327  0.39693  1.0000
  H   H993      1.0  0.06062  0.40377  0.31062  1.0000
  H   H994      1.0  0.09307  0.40990  0.31692  1.0000
  H   H995      1.0  0.07297  0.40854  0.29386  1.0000
  C   C578      1.0  0.09078  0.46371  0.24912  1.0000
  Fe  Fe85      1.0  0.03396  0.26018  0.40552  1.0000
  C   C579      1.0  0.10412  0.37410  0.31676  1.0000
  C   C580      1.0  0.01641  0.27973  0.45963  1.0000
  H   H996      1.0  0.08578  0.25834  0.40293  1.0000
  C   C581      1.0  0.15251  0.48560  0.24234  1.0000
  C   C582      1.0  0.01156  0.48048  0.44538  1.0000
  H   H997      1.0  0.10713  0.27625  0.40257  1.0000
  H   H998      1.0  0.11270  0.35262  0.31256  1.0000
  C   C583      1.0  0.02821  0.35194  0.37504  1.0000
  H   H999      1.0  0.04973  0.48413  0.23853  1.0000
  H   H1000     1.0  0.10429  0.28168  0.35546  1.0000
  C   C584      1.0  0.10533  0.41069  0.29036  1.0000
  C   C585      1.0  0.03100  0.36257  0.38211  1.0000
  S   S166      1.0  0.06009  0.29978  0.39505  1.0000
  C   C586      1.0  0.01889  0.33124  0.37625  1.0000
  H   H1001     1.0  0.10786  0.39700  0.32260  1.0000
  C   C587      1.0  0.14311  0.47899  0.23949  1.0000
  H   H1002     1.0  0.09245  0.28643  0.38099  1.0000
  S   S167      1.0  0.03909  0.24371  0.42515  1.0000
  C   C588      1.0  0.00481  0.36782  0.29167  1.0000
  C   C589      1.0  0.09694  0.27224  0.40663  1.0000
  H   H1003     1.0  0.02307  0.35876  0.36605  1.0000
  H   H1004     1.0  0.11778  0.48519  0.31623  1.0000
  C   C590      1.0  0.01044  0.41216  0.35331  1.0000
  H   H1005     1.0  0.01067  0.34375  0.47399  1.0000
  H   H1006     1.0  0.08746  0.28136  0.40525  1.0000
  H   H1007     1.0  0.01886  0.48058  0.43458  1.0000
  H   H1008     1.0  0.01011  0.35722  0.48297  1.0000
  H   H1009     1.0  0.06970  0.47587  0.24693  1.0000
  C   C591      1.0  0.00386  0.30757  0.46406  1.0000
  C   C592      1.0  0.01443  0.41771  0.32747  1.0000
  H   H1010     1.0  0.08839  0.27465  0.35745  1.0000
  C   C593      1.0  0.00588  0.42015  0.34076  1.0000
  C   C594      1.0  0.00431  0.25494  0.39753  1.0000
  C   C595      1.0  0.01450  0.33821  0.36174  1.0000
  H   H1011     1.0  0.02334  0.34093  0.48491  1.0000
  H   H1012     1.0  0.02336  0.30085  0.48524  1.0000
  C   C596      1.0  0.09985  0.25144  0.37801  1.0000
  C   C597      1.0  0.00393  0.24305  0.40902  1.0000
  H   H1013     1.0  0.00637  0.37788  0.34708  1.0000
  H   H1014     1.0  0.00772  0.24416  0.44994  1.0000
  C   C598      1.0  0.16752  0.47966  0.23965  1.0000
  H   H1015     1.0  0.02381  0.34190  0.35353  1.0000
  H   H1016     1.0  0.08831  0.25025  0.38167  1.0000
  H   H1017     1.0  0.00760  0.39068  0.33059  1.0000
  H   H1018     1.0  0.13147  0.48296  0.24232  1.0000
  H   H1019     1.0  0.01089  0.42379  0.31774  1.0000
  H   H1020     1.0  0.01179  0.33005  0.35785  1.0000
  H   H1021     1.0  0.00497  0.34738  0.36247  1.0000
  C   C599      1.0  0.00395  0.34996  0.39029  1.0000
  H   H1022     1.0  0.10306  0.49160  0.30730  1.0000
  C   C600      1.0  0.01056  0.25753  0.64382  1.0000
  H   H1023     1.0  0.10162  0.46692  0.69102  1.0000
  H   H1024     1.0  0.00942  0.37773  0.73575  1.0000
  C   C601      1.0  0.01041  0.31678  0.73195  1.0000
  H   H1025     1.0  0.01913  0.44407  0.65469  1.0000
  C   C602      1.0  0.07498  0.33580  0.59214  1.0000
  H   H1026     1.0  0.02536  0.35265  0.66921  1.0000
  S   S168      1.0  0.02998  0.32791  0.56579  1.0000
  H   H1027     1.0  0.04282  0.29381  0.71534  1.0000
  S   S169      1.0  0.03663  0.47956  0.65924  1.0000
  Fe  Fe86      1.0  0.05414  0.39715  0.62878  1.0000
  S   S170      1.0  0.04128  0.41826  0.63414  1.0000
  S   S171      1.0  0.06279  0.37770  0.64465  1.0000
  Fe  Fe87      1.0  0.05058  0.40687  0.59806  1.0000
  S   S172      1.0  0.03733  0.42870  0.60089  1.0000
  S   S173      1.0  0.05507  0.39865  0.57819  1.0000
  Fe  Fe88      1.0  0.05395  0.42785  0.61280  1.0000
  S   S174      1.0  0.06287  0.44748  0.60843  1.0000
  Fe  Fe89      1.0  0.02600  0.41692  0.62185  1.0000
  S   S175      1.0  0.06816  0.40684  0.60834  1.0000
  S   S176      1.0  0.03790  0.39506  0.61800  1.0000
  H   H1028     1.0  0.07543  0.44427  0.67172  1.0000
  S   S177      1.0  0.04418  0.38815  0.70752  1.0000
  S   S178      1.0  0.07806  0.32238  0.71165  1.0000
  H   H1029     1.0  0.03482  0.24999  0.69290  1.0000
  C   C603      1.0  0.07153  0.45613  0.66979  1.0000
  S   S179      1.0  0.04801  0.31797  0.62418  1.0000
  H   H1030     1.0  0.08578  0.37724  0.57908  1.0000
  S   S180      1.0  0.05114  0.28315  0.68968  1.0000
  H   H1031     1.0  0.07701  0.29567  0.67731  1.0000
  H   H1032     1.0  0.08686  0.35420  0.56646  1.0000
  C   C604      1.0  0.07043  0.31157  0.70557  1.0000
  C   C605      1.0  0.07735  0.30741  0.69247  1.0000
  C   C606      1.0  0.07164  0.29871  0.68742  1.0000
  H   H1033     1.0  0.08719  0.31091  0.68620  1.0000
  H   H1034     1.0  0.01961  0.37720  0.66321  1.0000
  H   H1035     1.0  0.02185  0.39955  0.64571  1.0000
  C   C607      1.0  0.04934  0.38525  0.69007  1.0000
  C   C608      1.0  0.05289  0.37134  0.68772  1.0000
  C   C609      1.0  0.05689  0.36913  0.67376  1.0000
  C   C610      1.0  0.05759  0.38078  0.66204  1.0000
  C   C611      1.0  0.05445  0.39467  0.66436  1.0000
  C   C612      1.0  0.05015  0.39693  0.67835  1.0000
  H   H1036     1.0  0.05276  0.36222  0.69658  1.0000
  H   H1037     1.0  0.05958  0.35836  0.67209  1.0000
  H   H1038     1.0  0.05576  0.40365  0.65544  1.0000
  H   H1039     1.0  0.04771  0.40770  0.68008  1.0000
  C   C613      1.0  0.04460  0.47055  0.64524  1.0000
  C   C614      1.0  0.04726  0.47836  0.63109  1.0000
  C   C615      1.0  0.05340  0.47116  0.61986  1.0000
  C   C616      1.0  0.05658  0.45615  0.62273  1.0000
  C   C617      1.0  0.05408  0.44830  0.63690  1.0000
  C   C618      1.0  0.04808  0.45551  0.64818  1.0000
  H   H1040     1.0  0.02301  0.48026  0.61559  1.0000
  H   H1041     1.0  0.05529  0.47723  0.60890  1.0000
  H   H1042     1.0  0.05680  0.43670  0.63917  1.0000
  H   H1043     1.0  0.04602  0.44945  0.65912  1.0000
  C   C619      1.0  0.05879  0.35897  0.59536  1.0000
  C   C620      1.0  0.09238  0.47643  0.69156  1.0000
  C   C621      1.0  0.02551  0.40722  0.58160  1.0000
  C   C622      1.0  0.03818  0.39803  0.57594  1.0000
  C   C623      1.0  0.03722  0.38809  0.56890  1.0000
  C   C624      1.0  0.02357  0.38730  0.56766  1.0000
  H   H1044     1.0  0.01345  0.28135  0.59496  1.0000
  H   H1045     1.0  0.02613  0.41494  0.58699  1.0000
  H   H1046     1.0  0.04698  0.38103  0.56446  1.0000
  H   H1047     1.0  0.05659  0.37073  0.59117  1.0000
  C   C625      1.0  0.03605  0.32554  0.58139  1.0000
  C   C626      1.0  0.04485  0.31239  0.58665  1.0000
  C   C627      1.0  0.04836  0.30982  0.59998  1.0000
  C   C628      1.0  0.04336  0.32055  0.60785  1.0000
  C   C629      1.0  0.03512  0.33389  0.60230  1.0000
  C   C630      1.0  0.03154  0.33641  0.58905  1.0000
  H   H1048     1.0  0.04858  0.30404  0.58062  1.0000
  H   H1049     1.0  0.05508  0.29963  0.60405  1.0000
  H   H1050     1.0  0.03143  0.34226  0.60828  1.0000
  H   H1051     1.0  0.02547  0.34683  0.58468  1.0000
  H   H1052     1.0  0.04432  0.48995  0.62873  1.0000
  H   H1053     1.0  0.01504  0.35054  0.71683  1.0000
  H   H1054     1.0  0.11407  0.36958  0.64979  1.0000
  H   H1055     1.0  0.04530  0.32021  0.65168  1.0000
  C   C631      1.0  0.04790  0.32087  0.66148  1.0000
  C   C632      1.0  0.02136  0.32678  0.67095  1.0000
  H   H1056     1.0  0.12447  0.37610  0.65757  1.0000
  H   H1057     1.0  0.02878  0.28946  0.58714  1.0000
  Fe  Fe90      1.0  0.06955  0.26492  0.64189  1.0000
  C   C633      1.0  0.05917  0.29373  0.69564  1.0000
  C   C634      1.0  0.11547  0.33053  0.69591  1.0000
  H   H1058     1.0  0.01819  0.30766  0.60221  1.0000
  H   H1059     1.0  0.03622  0.31563  0.69029  1.0000
  H   H1060     1.0  0.06589  0.33288  0.58980  1.0000
  H   H1061     1.0  0.07403  0.33174  0.60388  1.0000
  H   H1062     1.0  0.02031  0.38983  0.68327  1.0000
  H   H1063     1.0  0.02582  0.35931  0.64543  1.0000
  C   C635      1.0  0.01695  0.45600  0.63322  1.0000
  H   H1064     1.0  0.10130  0.33407  0.65798  1.0000
  H   H1065     1.0  0.05007  0.35556  0.59296  1.0000
  H   H1066     1.0  0.00757  0.32693  0.61067  1.0000
  H   H1067     1.0  0.00815  0.43756  0.64732  1.0000
  S   S181      1.0  0.05152  0.27530  0.63001  1.0000
  Fe  Fe91      1.0  0.05170  0.29508  0.63660  1.0000
  H   H1068     1.0  0.01627  0.29216  0.70990  1.0000
  H   H1069     1.0  0.07258  0.25630  0.61222  1.0000
  C   C636      1.0  0.05785  0.30673  0.71367  1.0000
  S   S182      1.0  0.07160  0.35636  0.72656  1.0000
  H   H1070     1.0  0.09878  0.32724  0.58876  1.0000
  H   H1071     1.0  0.04459  0.36216  0.61573  1.0000
  H   H1072     1.0  0.11309  0.34666  0.65025  1.0000
  C   C637      1.0  0.05244  0.29763  0.70887  1.0000
  H   H1073     1.0  0.01143  0.40734  0.67546  1.0000
  S   S183      1.0  0.03524  0.29092  0.65712  1.0000
  Fe  Fe92      1.0  0.05444  0.27982  0.66715  1.0000
  C   C638      1.0  0.08480  0.37148  0.59046  1.0000
  H   H1074     1.0  0.07236  0.34227  0.56106  1.0000
  H   H1075     1.0  0.05545  0.35015  0.57213  1.0000
  H   H1076     1.0  0.03068  0.25771  0.62790  1.0000
  C   C639      1.0  0.01097  0.39683  0.57299  1.0000
  Fe  Fe93      1.0  0.03686  0.27013  0.65160  1.0000
  H   H1077     1.0  0.09643  0.35094  0.58621  1.0000
  H   H1078     1.0  0.06314  0.36080  0.61537  1.0000
  H   H1079     1.0  0.00598  0.32600  0.65942  1.0000
  C   C640      1.0  0.02857  0.33660  0.69491  1.0000
  H   H1080     1.0  0.03129  0.34735  0.69143  1.0000
  H   H1081     1.0  0.06654  0.32641  0.66581  1.0000
  C   C641      1.0  0.01548  0.33089  0.65723  1.0000
  C   C642      1.0  0.08885  0.48335  0.67664  1.0000
  H   H1082     1.0  0.09853  0.35484  0.69942  1.0000
  C   C643      1.0  0.01076  0.44742  0.64815  1.0000
  H   H1083     1.0  0.11931  0.36029  0.68054  1.0000
  N   N43       1.0  0.07698  0.47855  0.67357  1.0000
  S   S184      1.0  0.05473  0.25849  0.66324  1.0000
  H   H1084     1.0  0.02343  0.32689  0.64811  1.0000
  H   H1085     1.0  0.09540  0.48442  0.69542  1.0000
  H   H1086     1.0  0.00878  0.30972  0.58883  1.0000
  H   H1087     1.0  0.00941  0.30280  0.50930  1.0000
  H   H1088     1.0  0.02450  0.25205  0.71027  1.0000
  C   C644      1.0  0.00878  0.31284  0.50076  1.0000
  C   C645      1.0  0.01520  0.47606  0.61253  1.0000
  H   H1089     1.0  0.01405  0.34926  0.51157  1.0000
  H   H1090     1.0  0.10745  0.33147  0.70619  1.0000
  H   H1091     1.0  0.01413  0.28195  0.72787  1.0000
  Fe  Fe94      1.0  0.00951  0.34516  0.56459  1.0000
  H   H1092     1.0  0.08332  0.35211  0.69502  1.0000
  H   H1093     1.0  0.00765  0.29691  0.69038  1.0000
  S   S185      1.0  0.07096  0.28529  0.64682  1.0000
  N   N44       1.0  0.03566  0.33045  0.66979  1.0000
  H   H1094     1.0  0.00568  0.28341  0.62449  1.0000
  H   H1095     1.0  0.02574  0.46035  0.63427  1.0000
  C   C646      1.0  0.01683  0.33876  0.51897  1.0000
  H   H1096     1.0  0.01724  0.40479  0.69154  1.0000
  C   C647      1.0  0.09289  0.35726  0.69052  1.0000
  H   H1097     1.0  0.01202  0.38564  0.61150  1.0000
  H   H1098     1.0  0.00415  0.28850  0.66999  1.0000
  H   H1099     1.0  0.06350  0.36029  0.55550  1.0000
  C   C648      1.0  0.08552  0.35533  0.59246  1.0000
  C   C649      1.0  0.01083  0.30281  0.59932  1.0000
  H   H1100     1.0  0.08849  0.31526  0.58826  1.0000
  H   H1101     1.0  0.08575  0.35004  0.60385  1.0000
  H   H1102     1.0  0.07237  0.36931  0.56927  1.0000
  H   H1103     1.0  0.09408  0.37268  0.59401  1.0000
  C   C650      1.0  0.08765  0.48405  0.64620  1.0000
  H   H1104     1.0  0.07473  0.37693  0.59700  1.0000
  H   H1105     1.0  0.08180  0.37792  0.67845  1.0000
  H   H1106     1.0  0.10510  0.38029  0.66289  1.0000
  H   H1107     1.0  0.02283  0.37957  0.56229  1.0000
  C   C651      1.0  0.06603  0.35203  0.56513  1.0000
  H   H1108     1.0  0.05664  0.34494  0.61709  1.0000
  H   H1109     1.0  0.09150  0.32969  0.57320  1.0000
  C   C652      1.0  0.05588  0.35642  0.61180  1.0000
  H   H1110     1.0  0.09566  0.35044  0.64577  1.0000
  N   N45       1.0  0.07366  0.35184  0.58801  1.0000
  H   H1111     1.0  0.09579  0.37929  0.68641  1.0000
  H   H1112     1.0  0.09930  0.48078  0.66882  1.0000
  H   H1113     1.0  0.05248  0.30970  0.72382  1.0000
  C   C653      1.0  0.08933  0.32670  0.58504  1.0000
  H   H1114     1.0  0.07862  0.37640  0.69720  1.0000
  H   H1115     1.0  0.04946  0.30956  0.66775  1.0000
  H   H1116     1.0  0.02215  0.31501  0.67521  1.0000
  H   H1117     1.0  0.01799  0.30948  0.72560  1.0000
  H   H1118     1.0  0.03100  0.33182  0.70570  1.0000
  H   H1119     1.0  0.06298  0.33491  0.64827  1.0000
  H   H1120     1.0  0.01777  0.46382  0.59615  1.0000
  C   C654      1.0  0.03618  0.35176  0.64740  1.0000
  C   C655      1.0  0.01989  0.28792  0.59683  1.0000
  H   H1121     1.0  0.07121  0.31627  0.65236  1.0000
  H   H1122     1.0  0.12560  0.35013  0.66719  1.0000
  C   C656      1.0  0.02360  0.25337  0.69915  1.0000
  H   H1123     1.0  0.06013  0.45838  0.67601  1.0000
  H   H1124     1.0  0.03039  0.47509  0.59199  1.0000
  C   C657      1.0  0.07526  0.35734  0.57204  1.0000
  C   C658      1.0  0.08162  0.46259  0.67440  1.0000
  C   C659      1.0  0.03807  0.32659  0.68485  1.0000
  C   C660      1.0  0.02289  0.31044  0.48915  1.0000
  Fe  Fe95      1.0  0.04897  0.36763  0.72382  1.0000
  H   H1125     1.0  0.12090  0.31896  0.69708  1.0000
  C   C661      1.0  0.08707  0.37365  0.68769  1.0000
  H   H1126     1.0  0.01181  0.39514  0.71460  1.0000
  H   H1127     1.0  0.04487  0.35797  0.64265  1.0000
  C   C662      1.0  0.03535  0.34616  0.66367  1.0000
  H   H1128     1.0  0.01250  0.33204  0.67877  1.0000
  H   H1129     1.0  0.03293  0.45872  0.60492  1.0000
  C   C663      1.0  0.10781  0.33523  0.68325  1.0000
  H   H1130     1.0  0.02154  0.31594  0.52023  1.0000
  C   C664      1.0  0.06290  0.32501  0.65685  1.0000
  N   N46       1.0  0.10277  0.35122  0.67795  1.0000
  H   H1131     1.0  0.00861  0.33833  0.52924  1.0000
  C   C665      1.0  0.09392  0.35328  0.66709  1.0000
  H   H1132     1.0  0.03863  0.34327  0.64140  1.0000
  C   C666      1.0  0.11596  0.35785  0.67185  1.0000
  C   C667      1.0  0.00521  0.35925  0.71809  1.0000
  C   C668      1.0  0.10161  0.34565  0.65458  1.0000
  H   H1133     1.0  0.04442  0.34909  0.66602  1.0000
  C   C669      1.0  0.11459  0.37171  0.65993  1.0000
  H   H1134     1.0  0.04947  0.32621  0.68490  1.0000
  H   H1135     1.0  0.11566  0.33028  0.67454  1.0000
  H   H1136     1.0  0.09003  0.36482  0.66238  1.0000
  H   H1137     1.0  0.08383  0.34913  0.67241  1.0000
  C   C670      1.0  0.01580  0.28124  0.71658  1.0000
  H   H1138     1.0  0.00795  0.48567  0.60723  1.0000
  S   S186      1.0  0.01647  0.26159  0.65700  1.0000
  C   C671      1.0  0.07464  0.48667  0.65889  1.0000
  S   S187      1.0  0.08922  0.24814  0.63447  1.0000
  H   H1139     1.0  0.02852  0.32612  0.50352  1.0000
  C   C672      1.0  0.01433  0.25321  0.62012  1.0000
  H   H1140     1.0  0.00362  0.26469  0.72207  1.0000
  H   H1141     1.0  0.05345  0.48113  0.68014  1.0000
  C   C673      1.0  0.00998  0.38416  0.65980  1.0000
  H   H1142     1.0  0.09849  0.32983  0.68650  1.0000
  H   H1143     1.0  0.01671  0.33777  0.69622  1.0000
  C   C674      1.0  0.01859  0.32602  0.51221  1.0000
  S   S188      1.0  0.04237  0.34810  0.72329  1.0000
  C   C675      1.0  0.01726  0.26903  0.69221  1.0000
  H   H1144     1.0  0.01209  0.49186  0.63278  1.0000
  H   H1145     1.0  0.08229  0.45665  0.68554  1.0000
  H   H1146     1.0  0.02177  0.37302  0.60065  1.0000
  C   C676      1.0  0.01197  0.40681  0.57990  1.0000
  H   H1147     1.0  0.02519  0.28185  0.60588  1.0000
  H   H1148     1.0  0.06237  0.47331  0.69439  1.0000
  C   C677      1.0  0.08009  0.24613  0.61137  1.0000
  H   H1149     1.0  0.01721  0.24592  0.69878  1.0000
  H   H1150     1.0  0.01675  0.26887  0.68135  1.0000
  C   C678      1.0  0.01128  0.39697  0.64984  1.0000
  C   C679      1.0  0.02447  0.46776  0.60086  1.0000
  H   H1151     1.0  0.00367  0.45151  0.61628  1.0000
  H   H1152     1.0  0.09138  0.47259  0.64561  1.0000
  C   C680      1.0  0.01966  0.25620  0.63042  1.0000
  H   H1153     1.0  0.07171  0.46002  0.65819  1.0000
  H   H1154     1.0  0.02547  0.27547  0.69041  1.0000
  H   H1155     1.0  0.01903  0.37412  0.70648  1.0000
  S   S189      1.0  0.00852  0.36594  0.54823  1.0000
  H   H1156     1.0  0.02290  0.44787  0.62668  1.0000
  H   H1157     1.0  0.12391  0.33661  0.69433  1.0000
  H   H1158     1.0  0.01133  0.34264  0.65424  1.0000
  H   H1159     1.0  0.06514  0.48435  0.65665  1.0000
  H   H1160     1.0  0.02733  0.33826  0.52150  1.0000
  Fe  Fe96      1.0  0.06435  0.33638  0.72741  1.0000
  H   H1161     1.0  0.02651  0.27386  0.71394  1.0000
  H   H1162     1.0  0.00896  0.29893  0.62703  1.0000
  N   N47       1.0  0.00554  0.32576  0.50718  1.0000
  H   H1163     1.0  0.03285  0.30801  0.49335  1.0000
  N   N48       1.0  0.00640  0.46764  0.62554  1.0000
  H   H1164     1.0  0.07270  0.24375  0.59391  1.0000
  H   H1165     1.0  0.09285  0.45966  0.66790  1.0000
  H   H1166     1.0  0.00869  0.37057  0.69637  1.0000
  H   H1167     1.0  0.01194  0.47680  0.64810  1.0000
  H   H1168     1.0  0.08306  0.47299  0.69983  1.0000
  C   C681      1.0  0.00521  0.48501  0.64106  1.0000
  C   C682      1.0  0.06271  0.48166  0.68424  1.0000
  H   H1169     1.0  0.02128  0.25238  0.60969  1.0000
  C   C683      1.0  0.01338  0.37446  0.61060  1.0000
  H   H1170     1.0  0.08415  0.48997  0.63607  1.0000
  C   C684      1.0  0.01251  0.39975  0.68586  1.0000
  H   H1171     1.0  0.09689  0.48833  0.64636  1.0000
  H   H1172     1.0  0.01777  0.36680  0.61963  1.0000
  C   C685      1.0  0.00792  0.37301  0.70682  1.0000
  H   H1173     1.0  0.10382  0.39666  0.92852  1.0000
  S   S190      1.0  0.41345  0.27908  0.90609  1.0000
  S   S191      1.0  0.42844  0.30665  0.91610  1.0000
  C   C686      1.0  0.21026  0.47446  0.80834  1.0000
  S   S192      1.0  0.37440  0.27296  0.92963  1.0000
  Fe  Fe97      1.0  0.30179  0.33989  0.95146  1.0000
  S   S193      1.0  0.32601  0.33720  0.94691  1.0000
  Fe  Fe98      1.0  0.29727  0.36843  0.93026  1.0000
  S   S194      1.0  0.32118  0.36864  0.92402  1.0000
  S   S195      1.0  0.27979  0.38711  0.92243  1.0000
  Fe  Fe99      1.0  0.32449  0.34535  0.92393  1.0000
  S   S196      1.0  0.34223  0.33654  0.90667  1.0000
  Fe  Fe100     1.0  0.32092  0.36046  0.94741  1.0000
  S   S197      1.0  0.33238  0.36598  0.96106  1.0000
  S   S198      1.0  0.30061  0.34574  0.92830  1.0000
  S   S199      1.0  0.29669  0.36256  0.95384  1.0000
  H   H1174     1.0  0.25777  0.40582  0.87230  1.0000
  C   C687      1.0  0.21620  0.48748  0.80798  1.0000
  S   S200      1.0  0.41212  0.41172  0.94145  1.0000
  C   C688      1.0  0.23817  0.45998  0.82008  1.0000
  Fe  Fe101     1.0  0.39603  0.39758  0.94838  1.0000
  S   S201      1.0  0.38913  0.39066  0.93213  1.0000
  H   H1175     1.0  0.32930  0.27829  0.97829  1.0000
  Fe  Fe102     1.0  0.17864  0.45690  0.97080  1.0000
  H   H1176     1.0  0.15217  0.42088  0.86314  1.0000
  H   H1177     1.0  0.14354  0.40033  0.86524  1.0000
  H   H1178     1.0  0.10537  0.46051  0.77857  1.0000
  H   H1179     1.0  0.17479  0.41572  0.78928  1.0000
  S   S202      1.0  0.06890  0.35772  0.76846  1.0000
  Fe  Fe103     1.0  0.12133  0.39876  0.78738  1.0000
  S   S203      1.0  0.11386  0.39612  0.81141  1.0000
  S   S204      1.0  0.11778  0.38764  0.77172  1.0000
  Fe  Fe104     1.0  0.13757  0.42212  0.78489  1.0000
  S   S205      1.0  0.13080  0.42176  0.80820  1.0000
  H   H1180     1.0  0.12743  0.41428  0.86718  1.0000
  Fe  Fe105     1.0  0.13645  0.39795  0.81119  1.0000
  S   S206      1.0  0.14948  0.38612  0.82822  1.0000
  Fe  Fe106     1.0  0.10909  0.42027  0.80651  1.0000
  S   S207      1.0  0.09009  0.43463  0.81792  1.0000
  S   S208      1.0  0.14451  0.39821  0.78771  1.0000
  S   S209      1.0  0.11516  0.42297  0.78266  1.0000
  H   H1181     1.0  0.17190  0.37190  0.78860  1.0000
  Fe  Fe107     1.0  0.22213  0.39757  0.87946  1.0000
  S   S210      1.0  0.19987  0.39662  0.87780  1.0000
  S   S211      1.0  0.23859  0.37829  0.88806  1.0000
  Fe  Fe108     1.0  0.21827  0.42931  0.86664  1.0000
  S   S212      1.0  0.19570  0.43152  0.86423  1.0000
  S   S213      1.0  0.22898  0.44816  0.85778  1.0000
  Fe  Fe109     1.0  0.19265  0.41692  0.88590  1.0000
  S   S214      1.0  0.17181  0.42233  0.90172  1.0000
  Fe  Fe110     1.0  0.20445  0.41124  0.85604  1.0000
  S   S215      1.0  0.19803  0.41327  0.83523  1.0000
  S   S216      1.0  0.21429  0.41687  0.88927  1.0000
  S   S217      1.0  0.22752  0.41015  0.85678  1.0000
  Fe  Fe111     1.0  0.17359  0.42843  0.97048  1.0000
  H   H1182     1.0  0.14043  0.39378  0.89466  1.0000
  S   S218      1.0  0.18489  0.40780  0.96318  1.0000
  H   H1183     1.0  0.42834  0.34341  0.94189  1.0000
  H   H1184     1.0  0.15362  0.40431  0.89064  1.0000
  C   C689      1.0  0.45510  0.35729  0.92274  1.0000
  H   H1185     1.0  0.12427  0.43786  0.89469  1.0000
  H   H1186     1.0  0.12050  0.46252  0.97481  1.0000
  H   H1187     1.0  0.43730  0.46756  0.91387  1.0000
  Fe  Fe112     1.0  0.08370  0.43926  0.89436  1.0000
  S   S219      1.0  0.06590  0.45764  0.88779  1.0000
  S   S220      1.0  0.09724  0.42300  0.88140  1.0000
  Fe  Fe113     1.0  0.07983  0.44682  0.92279  1.0000
  S   S221      1.0  0.06156  0.46594  0.91876  1.0000
  S   S222      1.0  0.08881  0.43876  0.94272  1.0000
  Fe  Fe114     1.0  0.05355  0.45158  0.91029  1.0000
  S   S223      1.0  0.02976  0.45250  0.91302  1.0000
  Fe  Fe115     1.0  0.07545  0.47035  0.89658  1.0000
  S   S224      1.0  0.07057  0.43195  0.91631  1.0000
  S   S225      1.0  0.09443  0.45245  0.90128  1.0000
  C   C690      1.0  0.27599  0.43455  0.90221  1.0000
  C   C691      1.0  0.02665  0.44096  0.90431  1.0000
  C   C692      1.0  0.03781  0.42976  0.89977  1.0000
  C   C693      1.0  0.03507  0.42075  0.89269  1.0000
  C   C694      1.0  0.02134  0.42328  0.88966  1.0000
  H   H1188     1.0  0.01744  0.36522  0.79382  1.0000
  H   H1189     1.0  0.24547  0.36339  0.96979  1.0000
  H   H1190     1.0  0.04851  0.42794  0.90186  1.0000
  H   H1191     1.0  0.04366  0.41199  0.88937  1.0000
  H   H1192     1.0  0.25791  0.42415  0.86392  1.0000
  S   S226      1.0  0.01159  0.42776  0.84220  1.0000
  C   C695      1.0  0.12481  0.45912  0.94382  1.0000
  H   H1193     1.0  0.13442  0.44717  0.89968  1.0000
  C   C696      1.0  0.10475  0.45981  0.93353  1.0000
  C   C697      1.0  0.10230  0.44700  0.94319  1.0000
  C   C698      1.0  0.11115  0.44026  0.95308  1.0000
  C   C699      1.0  0.12245  0.44621  0.95328  1.0000
  H   H1194     1.0  0.10939  0.43027  0.96048  1.0000
  H   H1195     1.0  0.12929  0.44077  0.96078  1.0000
  C   C700      1.0  0.17504  0.41724  0.91904  1.0000
  C   C701      1.0  0.16562  0.42428  0.92958  1.0000
  C   C702      1.0  0.16847  0.42093  0.94322  1.0000
  C   C703      1.0  0.18075  0.41056  0.94647  1.0000
  C   C704      1.0  0.19000  0.40320  0.93605  1.0000
  C   C705      1.0  0.18718  0.40658  0.92230  1.0000
  H   H1196     1.0  0.15648  0.43284  0.92715  1.0000
  H   H1197     1.0  0.16123  0.42665  0.95112  1.0000
  H   H1198     1.0  0.19953  0.39520  0.93841  1.0000
  H   H1199     1.0  0.19445  0.40101  0.91422  1.0000
  H   H1200     1.0  0.36333  0.27528  0.87673  1.0000
  H   H1201     1.0  0.38595  0.30905  0.93387  1.0000
  H   H1202     1.0  0.27700  0.40259  0.88381  1.0000
  C   C706      1.0  0.23366  0.45561  0.86939  1.0000
  C   C707      1.0  0.23799  0.46874  0.86397  1.0000
  C   C708      1.0  0.38288  0.25828  0.87557  1.0000
  H   H1203     1.0  0.41600  0.47635  0.94547  1.0000
  H   H1204     1.0  0.23011  0.43854  0.88800  1.0000
  H   H1205     1.0  0.23797  0.47429  0.85296  1.0000
  C   C709      1.0  0.41801  0.45574  0.97515  1.0000
  H   H1206     1.0  0.13518  0.41303  0.89027  1.0000
  H   H1207     1.0  0.44287  0.31867  0.96418  1.0000
  H   H1208     1.0  0.47492  0.25414  0.88386  1.0000
  C   C710      1.0  0.16255  0.39403  0.83051  1.0000
  C   C711      1.0  0.16611  0.40654  0.82104  1.0000
  C   C712      1.0  0.17712  0.41217  0.82254  1.0000
  C   C713      1.0  0.18432  0.40569  0.83386  1.0000
  C   C714      1.0  0.18050  0.39340  0.84360  1.0000
  C   C715      1.0  0.16979  0.38750  0.84180  1.0000
  H   H1209     1.0  0.16047  0.41180  0.81247  1.0000
  H   H1210     1.0  0.17986  0.42178  0.81506  1.0000
  H   H1211     1.0  0.18601  0.38829  0.85233  1.0000
  H   H1212     1.0  0.16712  0.37782  0.84920  1.0000
  N   N49       1.0  0.14022  0.43689  0.84816  1.0000
  C   C716      1.0  0.17359  0.46260  0.78589  1.0000
  C   C717      1.0  0.16145  0.45739  0.79487  1.0000
  C   C718      1.0  0.15514  0.44881  0.79031  1.0000
  H   H1213     1.0  0.15709  0.45981  0.80536  1.0000
  H   H1214     1.0  0.14588  0.44474  0.79728  1.0000
  C   C719      1.0  0.09223  0.43171  0.83544  1.0000
  C   C720      1.0  0.08562  0.44232  0.84337  1.0000
  C   C721      1.0  0.08719  0.43982  0.85748  1.0000
  C   C722      1.0  0.09508  0.42659  0.86377  1.0000
  C   C723      1.0  0.10174  0.41604  0.85576  1.0000
  C   C724      1.0  0.10050  0.41867  0.84157  1.0000
  H   H1215     1.0  0.07956  0.45255  0.83850  1.0000
  H   H1216     1.0  0.08250  0.44820  0.86336  1.0000
  H   H1217     1.0  0.10787  0.40579  0.86054  1.0000
  H   H1218     1.0  0.10576  0.41045  0.83549  1.0000
  C   C725      1.0  0.08213  0.36680  0.76886  1.0000
  C   C726      1.0  0.08178  0.37017  0.78178  1.0000
  C   C727      1.0  0.09231  0.37687  0.78280  1.0000
  C   C728      1.0  0.10353  0.38009  0.77094  1.0000
  H   H1219     1.0  0.38481  0.35160  0.90718  1.0000
  C   C729      1.0  0.38328  0.24465  0.91002  1.0000
  H   H1220     1.0  0.07337  0.36745  0.79111  1.0000
  H   H1221     1.0  0.09196  0.37922  0.79285  1.0000
  H   H1222     1.0  0.41147  0.25192  0.89214  1.0000
  H   H1223     1.0  0.42995  0.27298  0.97666  1.0000
  C   C730      1.0  0.32500  0.28681  0.98455  1.0000
  H   H1224     1.0  0.40133  0.26095  0.96807  1.0000
  H   H1225     1.0  0.04215  0.45598  0.87595  1.0000
  C   C731      1.0  0.01522  0.44526  0.80189  1.0000
  Fe  Fe116     1.0  0.39447  0.39421  0.97986  1.0000
  H   H1226     1.0  0.45188  0.34143  0.94324  1.0000
  H   H1227     1.0  0.00885  0.48587  0.87537  1.0000
  H   H1228     1.0  0.03658  0.45240  0.84822  1.0000
  H   H1229     1.0  0.14420  0.48302  0.77884  1.0000
  H   H1230     1.0  0.40215  0.33134  0.94980  1.0000
  H   H1231     1.0  0.41313  0.45107  0.92906  1.0000
  H   H1232     1.0  0.09796  0.46509  0.92584  1.0000
  H   H1233     1.0  0.14367  0.43094  0.89398  1.0000
  S   S227      1.0  0.01807  0.41244  0.88023  1.0000
  H   H1234     1.0  0.44986  0.29422  0.95994  1.0000
  C   C732      1.0  0.22591  0.45279  0.82069  1.0000
  C   C733      1.0  0.46581  0.36084  0.95453  1.0000
  H   H1235     1.0  0.48004  0.33983  0.95581  1.0000
  H   H1236     1.0  0.47317  0.36593  0.94549  1.0000
  C   C734      1.0  0.19838  0.47740  0.87515  1.0000
  C   C735      1.0  0.34778  0.37335  0.95271  1.0000
  C   C736      1.0  0.35636  0.37454  0.96122  1.0000
  C   C737      1.0  0.36892  0.38007  0.95492  1.0000
  C   C738      1.0  0.37309  0.38426  0.94003  1.0000
  C   C739      1.0  0.36455  0.38305  0.93146  1.0000
  C   C740      1.0  0.35181  0.37770  0.93781  1.0000
  H   H1237     1.0  0.18958  0.45959  0.82090  1.0000
  H   H1238     1.0  0.15027  0.49027  0.76032  1.0000
  H   H1239     1.0  0.36770  0.38637  0.91993  1.0000
  H   H1240     1.0  0.34521  0.37686  0.93117  1.0000
  C   C741      1.0  0.26832  0.38418  0.91322  1.0000
  C   C742      1.0  0.25555  0.39456  0.91126  1.0000
  C   C743      1.0  0.24635  0.39278  0.90368  1.0000
  C   C744      1.0  0.24984  0.38065  0.89789  1.0000
  C   C745      1.0  0.26246  0.37012  0.90010  1.0000
  C   C746      1.0  0.27171  0.37189  0.90770  1.0000
  H   H1241     1.0  0.25265  0.40395  0.91576  1.0000
  H   H1242     1.0  0.23650  0.40075  0.90247  1.0000
  H   H1243     1.0  0.26520  0.36063  0.89575  1.0000
  H   H1244     1.0  0.28154  0.36384  0.90906  1.0000
  C   C747      1.0  0.44643  0.30487  0.91714  1.0000
  C   C748      1.0  0.45273  0.29381  0.92729  1.0000
  C   C749      1.0  0.46723  0.29240  0.92785  1.0000
  C   C750      1.0  0.47554  0.30180  0.91799  1.0000
  C   C751      1.0  0.46922  0.31282  0.90785  1.0000
  C   C752      1.0  0.45459  0.31453  0.90761  1.0000
  H   H1245     1.0  0.44643  0.28635  0.93471  1.0000
  H   H1246     1.0  0.47214  0.28375  0.93558  1.0000
  H   H1247     1.0  0.47565  0.32005  0.90018  1.0000
  C   C753      1.0  0.36520  0.29030  0.92257  1.0000
  C   C754      1.0  0.37237  0.29925  0.91085  1.0000
  C   C755      1.0  0.36494  0.31319  0.90551  1.0000
  C   C756      1.0  0.35054  0.31843  0.91226  1.0000
  C   C757      1.0  0.34329  0.30941  0.92385  1.0000
  C   C758      1.0  0.35056  0.29528  0.92885  1.0000
  H   H1248     1.0  0.38357  0.29542  0.90579  1.0000
  H   H1249     1.0  0.37050  0.32009  0.89643  1.0000
  H   H1250     1.0  0.33210  0.31335  0.92898  1.0000
  H   H1251     1.0  0.34493  0.28833  0.93784  1.0000
  S   S228      1.0  0.50141  0.29278  0.97842  1.0000
  Fe  Fe117     1.0  0.42302  0.39582  0.95831  1.0000
  H   H1252     1.0  0.44019  0.46597  0.94234  1.0000
  H   H1253     1.0  0.44577  0.47796  0.92533  1.0000
  H   H1254     1.0  0.47071  0.28378  0.89096  1.0000
  C   C759      1.0  0.37323  0.33525  0.92240  1.0000
  H   H1255     1.0  0.05984  0.46985  0.85908  1.0000
  C   C760      1.0  0.25976  0.41577  0.87368  1.0000
  H   H1256     1.0  0.46955  0.24246  0.92623  1.0000
  C   C761      1.0  0.20530  0.44464  0.80943  1.0000
  S   S229      1.0  0.44730  0.38728  0.95242  1.0000
  S   S230      1.0  0.14928  0.43555  0.97687  1.0000
  C   C762      1.0  0.39856  0.47681  0.97171  1.0000
  S   S231      1.0  0.48009  0.29058  0.95929  1.0000
  H   H1257     1.0  0.11722  0.39204  0.91279  1.0000
  H   H1258     1.0  0.43554  0.34401  0.91971  1.0000
  C   C763      1.0  0.45236  0.36901  0.96031  1.0000
  H   H1259     1.0  0.09937  0.40252  0.91140  1.0000
  H   H1260     1.0  0.27260  0.41437  0.90169  1.0000
  H   H1261     1.0  0.29756  0.40739  0.89949  1.0000
  H   H1262     1.0  0.28284  0.41026  0.86539  1.0000
  N   N50       1.0  0.19318  0.38914  0.78488  1.0000
  C   C764      1.0  0.18132  0.38451  0.79736  1.0000
  C   C765      1.0  0.19698  0.40184  0.78735  1.0000
  C   C766      1.0  0.20664  0.37723  0.78368  1.0000
  C   C767      1.0  0.18771  0.39297  0.77132  1.0000
  C   C768      1.0  0.17690  0.37068  0.79767  1.0000
  C   C769      1.0  0.21292  0.37103  0.79726  1.0000
  C   C770      1.0  0.19835  0.39845  0.75738  1.0000
  H   H1263     1.0  0.18433  0.38294  0.80774  1.0000
  H   H1264     1.0  0.17122  0.39311  0.79770  1.0000
  H   H1265     1.0  0.20798  0.40334  0.78098  1.0000
  H   H1266     1.0  0.19776  0.40001  0.79869  1.0000
  H   H1267     1.0  0.20467  0.36819  0.78050  1.0000
  H   H1268     1.0  0.21558  0.38100  0.77491  1.0000
  H   H1269     1.0  0.18516  0.38346  0.76956  1.0000
  C   C771      1.0  0.40310  0.25879  0.88606  1.0000
  H   H1270     1.0  0.13068  0.45974  0.75181  1.0000
  N   N51       1.0  0.48619  0.25461  0.89958  1.0000
  H   H1271     1.0  0.21579  0.37940  0.80066  1.0000
  S   S232      1.0  0.42114  0.47969  0.98132  1.0000
  C   C772      1.0  0.31988  0.40608  0.96842  1.0000
  C   C773      1.0  0.03590  0.45993  0.86733  1.0000
  H   H1272     1.0  0.00714  0.44457  0.81224  1.0000
  H   H1273     1.0  0.00417  0.45183  0.90515  1.0000
  N   N52       1.0  0.23373  0.37337  0.95283  1.0000
  C   C774      1.0  0.23897  0.38705  0.94993  1.0000
  C   C775      1.0  0.24463  0.36127  0.95968  1.0000
  C   C776      1.0  0.21895  0.37508  0.96304  1.0000
  C   C777      1.0  0.23270  0.37138  0.93874  1.0000
  C   C778      1.0  0.22850  0.40117  0.94449  1.0000
  H   H1274     1.0  0.43275  0.36877  0.97686  1.0000
  C   C779      1.0  0.21396  0.36127  0.97220  1.0000
  C   C780      1.0  0.22885  0.35739  0.93875  1.0000
  H   H1275     1.0  0.08771  0.48570  0.98643  1.0000
  C   C781      1.0  0.41948  0.24861  0.97751  1.0000
  H   H1276     1.0  0.24115  0.35092  0.96305  1.0000
  H   H1277     1.0  0.32497  0.33928  0.98112  1.0000
  H   H1278     1.0  0.21848  0.38135  0.97090  1.0000
  H   H1279     1.0  0.21025  0.38147  0.95719  1.0000
  H   H1280     1.0  0.22428  0.38017  0.93418  1.0000
  H   H1281     1.0  0.24285  0.37250  0.93045  1.0000
  H   H1282     1.0  0.21794  0.40313  0.95228  1.0000
  H   H1283     1.0  0.23359  0.41033  0.94294  1.0000
  H   H1284     1.0  0.22652  0.40161  0.93396  1.0000
  C   C782      1.0  0.40726  0.29753  0.97851  1.0000
  C   C783      1.0  0.08750  0.48318  0.85978  1.0000
  H   H1285     1.0  0.49164  0.36030  0.96425  1.0000
  H   H1286     1.0  0.21446  0.35365  0.96579  1.0000
  H   H1287     1.0  0.33862  0.31570  0.97441  1.0000
  H   H1288     1.0  0.46046  0.26981  0.98175  1.0000
  H   H1289     1.0  0.21685  0.35854  0.94122  1.0000
  H   H1290     1.0  0.23380  0.34783  0.94605  1.0000
  H   H1291     1.0  0.23344  0.35499  0.92792  1.0000
  N   N53       1.0  0.43979  0.36415  0.92066  1.0000
  C   C784      1.0  0.44017  0.37856  0.91036  1.0000
  C   C785      1.0  0.43510  0.35520  0.91354  1.0000
  H   H1292     1.0  0.02447  0.45912  0.87281  1.0000
  S   S233      1.0  0.13845  0.46720  0.94440  1.0000
  C   C786      1.0  0.44565  0.38936  0.91492  1.0000
  C   C787      1.0  0.41966  0.36099  0.91050  1.0000
  C   C788      1.0  0.19222  0.45453  0.90166  1.0000
  H   H1293     1.0  0.40886  0.24812  0.86143  1.0000
  H   H1294     1.0  0.44706  0.37716  0.89963  1.0000
  H   H1295     1.0  0.42907  0.38426  0.90861  1.0000
  C   C789      1.0  0.17924  0.45936  0.77237  1.0000
  H   H1296     1.0  0.44289  0.35401  0.90314  1.0000
  H   H1297     1.0  0.46288  0.35710  0.91217  1.0000
  H   H1298     1.0  0.18927  0.48671  0.82859  1.0000
  C   C790      1.0  0.20769  0.48453  0.94285  1.0000
  H   H1299     1.0  0.41977  0.37536  0.93250  1.0000
  H   H1300     1.0  0.43906  0.39175  0.92533  1.0000
  H   H1301     1.0  0.45736  0.38579  0.91523  1.0000
  H   H1302     1.0  0.44448  0.39971  0.90690  1.0000
  H   H1303     1.0  0.41672  0.35270  0.90703  1.0000
  H   H1304     1.0  0.41126  0.36350  0.92010  1.0000
  H   H1305     1.0  0.41917  0.37065  0.90161  1.0000
  S   S234      1.0  0.18238  0.47266  0.79139  1.0000
  C   C791      1.0  0.42949  0.36668  0.93459  1.0000
  C   C792      1.0  0.24280  0.46754  0.88686  1.0000
  H   H1306     1.0  0.15562  0.44643  0.86199  1.0000
  H   H1307     1.0  0.04084  0.47959  0.87823  1.0000
  C   C793      1.0  0.14736  0.42157  0.85405  1.0000
  H   H1308     1.0  0.22036  0.35581  0.98057  1.0000
  C   C794      1.0  0.00551  0.36957  0.79478  1.0000
  C   C795      1.0  0.40117  0.48073  0.92720  1.0000
  C   C796      1.0  0.11647  0.46717  0.98450  1.0000
  H   H1309     1.0  0.37722  0.25113  0.87340  1.0000
  Fe  Fe118     1.0  0.03497  0.34532  0.74696  1.0000
  H   H1310     1.0  0.21294  0.47263  0.83696  1.0000
  S   S235      1.0  0.03960  0.36606  0.74723  1.0000
  H   H1311     1.0  0.19885  0.47887  0.80698  1.0000
  H   H1312     1.0  0.39930  0.47147  0.93626  1.0000
  C   C797      1.0  0.42362  0.35375  0.94505  1.0000
  C   C798      1.0  0.41090  0.26871  0.87305  1.0000
  C   C799      1.0  0.05224  0.47528  0.85176  1.0000
  S   S236      1.0  0.39066  0.44649  0.95685  1.0000
  N   N54       1.0  0.03668  0.47528  0.85981  1.0000
  H   H1313     1.0  0.10142  0.46231  0.80108  1.0000
  H   H1314     1.0  0.18886  0.42445  0.78823  1.0000
  H   H1315     1.0  0.22310  0.36282  0.79494  1.0000
  H   H1316     1.0  0.38049  0.34479  0.96104  1.0000
  H   H1317     1.0  0.11767  0.47590  0.92655  1.0000
  H   H1318     1.0  0.19918  0.43419  0.91589  1.0000
  C   C800      1.0  0.40597  0.25820  0.97733  1.0000
  H   H1319     1.0  0.15694  0.46724  0.89522  1.0000
  S   S237      1.0  0.41074  0.40773  0.97572  1.0000
  H   H1320     1.0  0.45534  0.29336  0.98200  1.0000
  H   H1321     1.0  0.46325  0.25970  0.89936  1.0000
  C   C801      1.0  0.18341  0.47689  0.88560  1.0000
  H   H1322     1.0  0.36409  0.26268  0.89324  1.0000
  H   H1323     1.0  0.20369  0.45419  0.89561  1.0000
  H   H1324     1.0  0.20535  0.36558  0.80630  1.0000
  H   H1325     1.0  0.14118  0.46831  0.76505  1.0000
  C   C802      1.0  0.08949  0.47451  0.98547  1.0000
  H   H1326     1.0  0.20265  0.46756  0.87077  1.0000
  H   H1327     1.0  0.45526  0.33398  0.92754  1.0000
  N   N55       1.0  0.05906  0.40433  0.84189  1.0000
  C   C803      1.0  0.05470  0.42056  0.83875  1.0000
  C   C804      1.0  0.05820  0.39935  0.85781  1.0000
  C   C805      1.0  0.04797  0.39901  0.83807  1.0000
  C   C806      1.0  0.07414  0.39989  0.83298  1.0000
  C   C807      1.0  0.05336  0.42823  0.82325  1.0000
  C   C808      1.0  0.06862  0.40426  0.86355  1.0000
  C   C809      1.0  0.05007  0.38263  0.84049  1.0000
  C   C810      1.0  0.08295  0.38451  0.83799  1.0000
  H   H1328     1.0  0.04403  0.42421  0.84588  1.0000
  H   H1329     1.0  0.06274  0.42514  0.84099  1.0000
  H   H1330     1.0  0.06018  0.38753  0.86142  1.0000
  H   H1331     1.0  0.04693  0.40314  0.86383  1.0000
  H   H1332     1.0  0.03682  0.40308  0.84418  1.0000
  H   H1333     1.0  0.04778  0.40316  0.82654  1.0000
  H   H1334     1.0  0.07366  0.40108  0.82168  1.0000
  H   H1335     1.0  0.08104  0.40730  0.83242  1.0000
  H   H1336     1.0  0.04351  0.42694  0.82080  1.0000
  H   H1337     1.0  0.05208  0.43996  0.82202  1.0000
  H   H1338     1.0  0.06324  0.42473  0.81523  1.0000
  H   H1339     1.0  0.08008  0.40140  0.85775  1.0000
  H   H1340     1.0  0.06543  0.41595  0.86325  1.0000
  H   H1341     1.0  0.06814  0.39874  0.87497  1.0000
  H   H1342     1.0  0.04075  0.38041  0.83785  1.0000
  H   H1343     1.0  0.05005  0.37696  0.85177  1.0000
  H   H1344     1.0  0.06002  0.37802  0.83316  1.0000
  H   H1345     1.0  0.08793  0.37943  0.82862  1.0000
  H   H1346     1.0  0.07669  0.37709  0.84614  1.0000
  H   H1347     1.0  0.09225  0.38495  0.84205  1.0000
  H   H1348     1.0  0.20617  0.40361  0.75908  1.0000
  N   N56       1.0  0.12692  0.41351  0.91889  1.0000
  C   C811      1.0  0.12385  0.40799  0.93496  1.0000
  C   C812      1.0  0.11321  0.41473  0.91417  1.0000
  C   C813      1.0  0.12993  0.42826  0.91581  1.0000
  C   C814      1.0  0.13996  0.40326  0.91223  1.0000
  C   C815      1.0  0.13581  0.40737  0.94256  1.0000
  C   C816      1.0  0.10833  0.40055  0.91697  1.0000
  C   C817      1.0  0.13320  0.43628  0.90005  1.0000
  C   C818      1.0  0.14212  0.40382  0.89611  1.0000
  H   H1349     1.0  0.11358  0.41460  0.94020  1.0000
  H   H1350     1.0  0.12203  0.39688  0.93788  1.0000
  H   H1351     1.0  0.11397  0.41966  0.90267  1.0000
  H   H1352     1.0  0.10392  0.42221  0.91962  1.0000
  H   H1353     1.0  0.12061  0.43537  0.92157  1.0000
  H   H1354     1.0  0.13954  0.42777  0.91976  1.0000
  H   H1355     1.0  0.15018  0.40488  0.91374  1.0000
  H   H1356     1.0  0.13952  0.39196  0.91795  1.0000
  H   H1357     1.0  0.13310  0.40142  0.95385  1.0000
  H   H1358     1.0  0.14674  0.40170  0.93760  1.0000
  H   H1359     1.0  0.13625  0.41825  0.94303  1.0000
  Fe  Fe119     1.0  0.42313  0.28501  0.92089  1.0000
  H   H1360     1.0  0.44976  0.32303  0.89970  1.0000
  H   H1361     1.0  0.17704  0.40089  0.77208  1.0000
  H   H1362     1.0  0.45874  0.36370  0.92803  1.0000
  H   H1363     1.0  0.20667  0.47864  0.88001  1.0000
  S   S238      1.0  0.40705  0.27782  0.94069  1.0000
  H   H1364     1.0  0.13252  0.45898  0.82371  1.0000
  C   C819      1.0  0.11657  0.46214  0.77313  1.0000
  C   C820      1.0  0.18623  0.41639  0.78414  1.0000
  C   C821      1.0  0.00590  0.33295  0.74780  1.0000
  H   H1365     1.0  0.29235  0.45017  0.86661  1.0000
  C   C822      1.0  0.13754  0.41058  0.85954  1.0000
  C   C823      1.0  0.11593  0.46589  0.93392  1.0000
  Fe  Fe120     1.0  0.39863  0.27003  0.92623  1.0000
  H   H1366     1.0  0.18713  0.42060  0.77246  1.0000
  H   H1367     1.0  0.12662  0.46690  0.79330  1.0000
  C   C824      1.0  0.42371  0.45359  0.92831  1.0000
  H   H1368     1.0  0.16851  0.45279  0.84634  1.0000
  C   C825      1.0  0.16069  0.44584  0.77661  1.0000
  C   C826      1.0  0.00849  0.47905  0.81466  1.0000
  H   H1369     1.0  0.15956  0.44091  0.83197  1.0000
  C   C827      1.0  0.10326  0.47307  0.80015  1.0000
  H   H1370     1.0  0.24577  0.48490  0.86842  1.0000
  S   S239      1.0  0.29016  0.32356  0.96740  1.0000
  C   C828      1.0  0.12544  0.45919  0.85886  1.0000
  H   H1371     1.0  0.16842  0.36833  0.80757  1.0000
  C   C829      1.0  0.37085  0.26862  0.88380  1.0000
  H   H1372     1.0  0.17815  0.47100  0.88125  1.0000
  H   H1373     1.0  0.27633  0.46079  0.86084  1.0000
  H   H1374     1.0  0.12460  0.43029  0.84111  1.0000
  H   H1375     1.0  0.24820  0.45148  0.82123  1.0000
  H   H1376     1.0  0.12115  0.44962  0.82047  1.0000
  H   H1377     1.0  0.37866  0.32742  0.91539  1.0000
  C   C830      1.0  0.24238  0.47477  0.87273  1.0000
  C   C831      1.0  0.23822  0.45453  0.89240  1.0000
  C   C832      1.0  0.12526  0.45135  0.82901  1.0000
  H   H1378     1.0  0.16985  0.43394  0.85274  1.0000
  H   H1379     1.0  0.40336  0.27597  0.86631  1.0000
  H   H1380     1.0  0.46162  0.27972  0.87995  1.0000
  C   C833      1.0  0.46968  0.34606  0.96032  1.0000
  C   C834      1.0  0.40587  0.32695  0.94006  1.0000
  H   H1381     1.0  0.18158  0.47132  0.83867  1.0000
  H   H1382     1.0  0.10444  0.44789  0.98091  1.0000
  C   C835      1.0  0.27157  0.42531  0.89469  1.0000
  H   H1383     1.0  0.25967  0.42920  0.89533  1.0000
  H   H1384     1.0  0.25154  0.41880  0.88313  1.0000
  H   H1385     1.0  0.26717  0.44424  0.90370  1.0000
  C   C836      1.0  0.01759  0.48627  0.80310  1.0000
  S   S240      1.0  0.43976  0.26437  0.92344  1.0000
  H   H1386     1.0  0.08269  0.48361  0.96518  1.0000
  H   H1387     1.0  0.02926  0.48345  0.80225  1.0000
  H   H1388     1.0  0.01746  0.47317  0.88912  1.0000
  H   H1389     1.0  0.43240  0.44465  0.92459  1.0000
  H   H1390     1.0  0.36153  0.33469  0.92578  1.0000
  H   H1391     1.0  0.23829  0.44906  0.90343  1.0000
  C   C837      1.0  0.17264  0.45128  0.76765  1.0000
  C   C838      1.0  0.27553  0.41280  0.87559  1.0000
  H   H1392     1.0  0.31396  0.40514  0.88607  1.0000
  H   H1393     1.0  0.27747  0.42829  0.91305  1.0000
  C   C839      1.0  0.15221  0.44507  0.84141  1.0000
  C   C840      1.0  0.16198  0.44447  0.85135  1.0000
  H   H1394     1.0  0.14796  0.45654  0.83696  1.0000
  H   H1395     1.0  0.22970  0.44815  0.81102  1.0000
  H   H1396     1.0  0.27546  0.45538  0.87939  1.0000
  H   H1397     1.0  0.48380  0.37648  0.96988  1.0000
  Fe  Fe121     1.0  0.49867  0.27619  0.96869  1.0000
  C   C841      1.0  0.47188  0.27652  0.88387  1.0000
  S   S241      1.0  0.05654  0.33195  0.75155  1.0000
  H   H1398     1.0  0.40079  0.32892  0.92003  1.0000
  N   N57       1.0  0.11836  0.47645  0.77403  1.0000
  C   C842      1.0  0.39545  0.33352  0.92972  1.0000
  C   C843      1.0  0.23354  0.44861  0.88370  1.0000
  H   H1399     1.0  0.15659  0.41746  0.84584  1.0000
  H   H1400     1.0  0.14130  0.43148  0.82833  1.0000
  H   H1401     1.0  0.27915  0.43682  0.85792  1.0000
  Fe  Fe122     1.0  0.42883  0.25756  0.91027  1.0000
  H   H1402     1.0  0.24135  0.38822  0.95979  1.0000
  S   S242      1.0  0.01617  0.46540  0.82752  1.0000
  C   C844      1.0  0.15924  0.46247  0.90603  1.0000
  N   N58       1.0  0.27961  0.42458  0.87953  1.0000
  C   C845      1.0  0.30193  0.40676  0.88809  1.0000
  Fe  Fe123     1.0  0.15242  0.45583  0.96059  1.0000
  C   C846      1.0  0.11809  0.48302  0.97952  1.0000
  S   S243      1.0  0.49395  0.29962  0.91787  1.0000
  H   H1403     1.0  0.07961  0.47658  0.86462  1.0000
  H   H1404     1.0  0.02092  0.43433  0.80019  1.0000
  Fe  Fe124     1.0  0.49711  0.29663  0.93997  1.0000
  H   H1405     1.0  0.26315  0.44183  0.87090  1.0000
  H   H1406     1.0  0.37858  0.25628  0.90854  1.0000
  S   S244      1.0  0.17653  0.44820  0.95333  1.0000
  C   C847      1.0  0.05587  0.49000  0.84398  1.0000
  H   H1407     1.0  0.05544  0.46904  0.84328  1.0000
  H   H1408     1.0  0.21620  0.47054  0.79840  1.0000
  Fe  Fe125     1.0  0.16747  0.49024  0.80198  1.0000
  H   H1409     1.0  0.41658  0.32968  0.93445  1.0000
  H   H1410     1.0  0.12405  0.45315  0.77885  1.0000
  H   H1411     1.0  0.09031  0.46483  0.96772  1.0000
  H   H1412     1.0  0.14852  0.46318  0.91376  1.0000
  C   C848      1.0  0.29595  0.42068  0.87786  1.0000
  C   C849      1.0  0.27521  0.43844  0.86911  1.0000
  H   H1413     1.0  0.29977  0.39707  0.88638  1.0000
  H   H1414     1.0  0.28622  0.43815  0.89672  1.0000
  C   C850      1.0  0.50107  0.36336  0.98077  1.0000
  H   H1415     1.0  0.11553  0.45615  0.83641  1.0000
  Fe  Fe126     1.0  0.42281  0.25643  0.94208  1.0000
  H   H1416     1.0  0.39549  0.34517  0.92626  1.0000
  H   H1417     1.0  0.50036  0.24656  0.92175  1.0000
  S   S245      1.0  0.44327  0.24754  0.89192  1.0000
  C   C851      1.0  0.13310  0.43673  0.83667  1.0000
  C   C852      1.0  0.28033  0.45169  0.86926  1.0000
  H   H1418     1.0  0.30016  0.42922  0.87939  1.0000
  H   H1419     1.0  0.03816  0.43867  0.86404  1.0000
  H   H1420     1.0  0.30145  0.41956  0.86669  1.0000
  H   H1421     1.0  0.22583  0.44346  0.83007  1.0000
  H   H1422     1.0  0.41156  0.35595  0.94662  1.0000
  C   C853      1.0  0.10383  0.37677  0.75801  1.0000
  H   H1423     1.0  0.10385  0.47340  0.81100  1.0000
  H   H1424     1.0  0.17694  0.44913  0.75703  1.0000
  Fe  Fe127     1.0  0.06187  0.35318  0.75028  1.0000
  C   C854      1.0  0.09316  0.37030  0.75692  1.0000
  H   H1425     1.0  0.21416  0.43502  0.81146  1.0000
  H   H1426     1.0  0.11246  0.37914  0.74877  1.0000
  H   H1427     1.0  0.19936  0.44479  0.83177  1.0000
  H   H1428     1.0  0.20240  0.36424  0.97790  1.0000
  H   H1429     1.0  0.13491  0.40798  0.85058  1.0000
  H   H1430     1.0  0.20857  0.45139  0.79868  1.0000
  S   S246      1.0  0.01216  0.34188  0.75708  1.0000
  C   C855      1.0  0.12909  0.44275  0.86026  1.0000
  H   H1431     1.0  0.19586  0.44062  0.80924  1.0000
  S   S247      1.0  0.24945  0.47459  0.89738  1.0000
  H   H1432     1.0  0.18861  0.46333  0.76540  1.0000
  C   C856      1.0  0.43811  0.47715  0.93588  1.0000
  S   S248      1.0  0.49957  0.31511  0.94706  1.0000
  H   H1433     1.0  0.12625  0.46568  0.84781  1.0000
  C   C857      1.0  0.20072  0.45297  0.82150  1.0000
  N   N59       1.0  0.21078  0.46217  0.82129  1.0000
  H   H1434     1.0  0.20519  0.45766  0.84442  1.0000
  H   H1435     1.0  0.41090  0.28957  0.97168  1.0000
  H   H1436     1.0  0.37546  0.38096  0.96159  1.0000
  C   C858      1.0  0.41132  0.44819  0.96983  1.0000
  C   C859      1.0  0.20548  0.46709  0.83523  1.0000
  H   H1437     1.0  0.09376  0.48157  0.79740  1.0000
  S   S249      1.0  0.15285  0.43586  0.76989  1.0000
  H   H1438     1.0  0.35341  0.37104  0.97273  1.0000
  H   H1439     1.0  0.46952  0.33821  0.93208  1.0000
  H   H1440     1.0  0.43472  0.37091  0.94061  1.0000
  H   H1441     1.0  0.11869  0.43937  0.86212  1.0000
  H   H1442     1.0  0.02724  0.32155  0.73881  1.0000
  H   H1443     1.0  0.26047  0.35570  0.94019  1.0000
  C   C860      1.0  0.42547  0.46790  0.91750  1.0000
  C   C861      1.0  0.41184  0.47016  0.97579  1.0000
  C   C862      1.0  0.42175  0.48267  0.93553  1.0000
  H   H1444     1.0  0.36769  0.35184  0.90410  1.0000
  C   C863      1.0  0.37356  0.35033  0.91265  1.0000
  C   C864      1.0  0.45774  0.34186  0.93193  1.0000
  C   C865      1.0  0.02650  0.48067  0.84962  1.0000
  H   H1445     1.0  0.09366  0.36772  0.74694  1.0000
  H   H1446     1.0  0.13298  0.43808  0.87038  1.0000
  H   H1447     1.0  0.18952  0.47361  0.91897  1.0000
  S   S250      1.0  0.19650  0.46791  0.96812  1.0000
  H   H1448     1.0  0.01701  0.45426  0.77930  1.0000
  S   S251      1.0  0.40784  0.38092  0.96399  1.0000
  S   S252      1.0  0.15489  0.46692  0.97619  1.0000
  H   H1449     1.0  0.19900  0.44941  0.92215  1.0000
  H   H1450     1.0  0.13209  0.46226  0.86438  1.0000
  Fe  Fe128     1.0  0.39834  0.42240  0.95940  1.0000
  H   H1451     1.0  0.42588  0.35233  0.95573  1.0000
  C   C866      1.0  0.44294  0.36244  0.97207  1.0000
  H   H1452     1.0  0.02363  0.45029  0.80278  1.0000
  H   H1453     1.0  0.41644  0.43725  0.96889  1.0000
  S   S253      1.0  0.43027  0.24297  0.96197  1.0000
  H   H1454     1.0  0.16436  0.45093  0.90699  1.0000
  Fe  Fe129     1.0  0.48407  0.30765  0.96734  1.0000
  H   H1455     1.0  0.37509  0.27625  0.88694  1.0000
  H   H1456     1.0  0.03187  0.47695  0.83948  1.0000
  H   H1457     1.0  0.36780  0.35898  0.91850  1.0000
  H   H1458     1.0  0.20338  0.47467  0.90329  1.0000
  C   C867      1.0  0.09549  0.48311  0.84573  1.0000
  S   S254      1.0  0.38112  0.40965  0.96479  1.0000
  C   C868      1.0  0.39831  0.45498  0.96529  1.0000
  N   N60       1.0  0.38002  0.33141  0.93520  1.0000
  C   C869      1.0  0.19307  0.44528  0.91676  1.0000
  H   H1459     1.0  0.18608  0.36116  0.79809  1.0000
  S   S255      1.0  0.46462  0.32102  0.97949  1.0000
  H   H1460     1.0  0.11762  0.44886  0.75870  1.0000
  C   C870      1.0  0.39181  0.46922  0.96650  1.0000
  H   H1461     1.0  0.42821  0.45051  0.97841  1.0000
  C   C871      1.0  0.11930  0.45968  0.75786  1.0000
  H   H1462     1.0  0.29796  0.34126  0.98166  1.0000
  H   H1463     1.0  0.37290  0.35236  0.94023  1.0000
  H   H1464     1.0  0.38519  0.36668  0.98397  1.0000
  H   H1465     1.0  0.31934  0.29642  0.97774  1.0000
  C   C872      1.0  0.50021  0.25554  0.88849  1.0000
  H   H1466     1.0  0.19728  0.48685  0.86612  1.0000
  C   C873      1.0  0.19131  0.47739  0.90710  1.0000
  C   C874      1.0  0.01027  0.43456  0.89408  1.0000
  H   H1467     1.0  0.38168  0.47446  0.96312  1.0000
  H   H1468     1.0  0.38618  0.31146  0.95056  1.0000
  H   H1469     1.0  0.39356  0.48779  0.97243  1.0000
  C   C875      1.0  0.48406  0.26345  0.91038  1.0000
  C   C876      1.0  0.37112  0.34131  0.94507  1.0000
  H   H1470     1.0  0.34623  0.29147  0.97851  1.0000
  H   H1471     1.0  0.48076  0.27835  0.87426  1.0000
  H   H1472     1.0  0.35920  0.34259  0.94616  1.0000
  H   H1473     1.0  0.30745  0.38339  0.97467  1.0000
  H   H1474     1.0  0.00461  0.35885  0.77914  1.0000
  H   H1475     1.0  0.37921  0.32641  0.96414  1.0000
  S   S256      1.0  0.41314  0.24790  0.92921  1.0000
  C   C877      1.0  0.38010  0.31576  0.94192  1.0000
  C   C878      1.0  0.49204  0.25654  0.92287  1.0000
  H   H1476     1.0  0.26569  0.36726  0.94818  1.0000
  H   H1477     1.0  0.11399  0.46245  0.86469  1.0000
  C   C879      1.0  0.36499  0.31219  0.94852  1.0000
  C   C880      1.0  0.46018  0.33947  0.97200  1.0000
  H   H1478     1.0  0.43827  0.31796  0.94839  1.0000
  H   H1479     1.0  0.41540  0.27561  0.87693  1.0000
  H   H1480     1.0  0.45306  0.25596  0.98031  1.0000
  C   C881      1.0  0.04139  0.44887  0.85777  1.0000
  H   H1481     1.0  0.21738  0.47595  0.94257  1.0000
  H   H1482     1.0  0.38706  0.26475  0.86485  1.0000
  H   H1483     1.0  0.42451  0.45357  0.93916  1.0000
  H   H1484     1.0  0.16216  0.48199  0.90858  1.0000
  C   C882      1.0  0.11767  0.47564  0.78955  1.0000
  H   H1485     1.0  0.24087  0.46735  0.80956  1.0000
  H   H1486     1.0  0.00561  0.46581  0.79072  1.0000
  H   H1487     1.0  0.40814  0.31504  0.94281  1.0000
  H   H1488     1.0  0.36635  0.30057  0.95370  1.0000
  H   H1489     1.0  0.50024  0.26681  0.88257  1.0000
  H   H1490     1.0  0.29836  0.41259  0.98130  1.0000
  H   H1491     1.0  0.18781  0.44887  0.89622  1.0000
  H   H1492     1.0  0.35865  0.31840  0.95671  1.0000
  H   H1493     1.0  0.19206  0.40679  0.74999  1.0000
  H   H1494     1.0  0.45593  0.27028  0.96518  1.0000
  N   N61       1.0  0.18385  0.46986  0.90102  1.0000
  H   H1495     1.0  0.44223  0.48836  0.90087  1.0000
  C   C883      1.0  0.37390  0.33767  0.96032  1.0000
  C   C884      1.0  0.16841  0.47066  0.90974  1.0000
  N   N62       1.0  0.41711  0.48134  0.92283  1.0000
  C   C885      1.0  0.14039  0.48844  0.76879  1.0000
  H   H1496     1.0  0.48737  0.27385  0.90492  1.0000
  H   H1497     1.0  0.36327  0.33974  0.96807  1.0000
  H   H1498     1.0  0.13248  0.48306  0.75336  1.0000
  H   H1499     1.0  0.16817  0.46681  0.92141  1.0000
  H   H1500     1.0  0.43229  0.29472  0.95838  1.0000
  H   H1501     1.0  0.35867  0.31416  0.94032  1.0000
  H   H1502     1.0  0.22536  0.48895  0.79853  1.0000
  C   C886      1.0  0.26022  0.35827  0.95038  1.0000
  H   H1503     1.0  0.05347  0.44632  0.85450  1.0000
  H   H1504     1.0  0.42209  0.46772  0.90779  1.0000
  C   C887      1.0  0.00827  0.45458  0.78926  1.0000
  C   C888      1.0  0.01284  0.44323  0.90159  1.0000
  H   H1505     1.0  0.09538  0.48530  0.77356  1.0000
  H   H1506     1.0  0.42037  0.26249  0.86652  1.0000
  H   H1507     1.0  0.20466  0.38950  0.75199  1.0000
  H   H1508     1.0  0.18214  0.44444  0.92353  1.0000
  H   H1509     1.0  0.39576  0.26581  0.89323  1.0000
  S   S257      1.0  0.49546  0.25404  0.98039  1.0000
  H   H1510     1.0  0.24941  0.38680  0.94180  1.0000
  H   H1511     1.0  0.23588  0.46560  0.82884  1.0000
  H   H1512     1.0  0.26692  0.34874  0.95633  1.0000
  H   H1513     1.0  0.32003  0.31709  0.98212  1.0000
  C   C889      1.0  0.43555  0.31468  0.96026  1.0000
  H   H1514     1.0  0.49765  0.26434  0.92396  1.0000
  H   H1515     1.0  0.00894  0.43354  0.77759  1.0000
  C   C890      1.0  0.19021  0.47702  0.83738  1.0000
  H   H1516     1.0  0.11962  0.48547  0.79117  1.0000
  H   H1517     1.0  0.09380  0.47632  0.83983  1.0000
  H   H1518     1.0  0.50132  0.24938  0.88031  1.0000
  C   C891      1.0  0.43813  0.29818  0.96446  1.0000
  H   H1519     1.0  0.32065  0.41731  0.96289  1.0000
  H   H1520     1.0  0.47225  0.26648  0.91541  1.0000
  C   C892      1.0  0.47385  0.26056  0.89180  1.0000
  C   C893      1.0  0.33064  0.31596  0.98476  1.0000
  H   H1521     1.0  0.39760  0.47890  0.91832  1.0000
  H   H1522     1.0  0.48403  0.25440  0.93319  1.0000
  H   H1523     1.0  0.33109  0.40005  0.96937  1.0000
  H   H1524     1.0  0.49007  0.33688  0.97940  1.0000
  H   H1525     1.0  0.31611  0.40183  0.96129  1.0000
  H   H1526     1.0  0.10733  0.48853  0.75695  1.0000
  H   H1527     1.0  0.00420  0.38036  0.78750  1.0000
  N   N63       1.0  0.39527  0.24951  0.88266  1.0000
  H   H1528     1.0  0.42407  0.32001  0.96403  1.0000
  C   C894      1.0  0.45251  0.26771  0.97703  1.0000
  C   C895      1.0  0.44685  0.34769  0.97792  1.0000
  H   H1529     1.0  0.18803  0.48071  0.84745  1.0000
  H   H1530     1.0  0.11158  0.46750  0.75163  1.0000
  H   H1531     1.0  0.22014  0.48689  0.81749  1.0000
  N   N64       1.0  0.43429  0.29171  0.98026  1.0000
  C   C896      1.0  0.13307  0.47872  0.76482  1.0000
  C   C897      1.0  0.19556  0.48320  0.95416  1.0000
  C   C898      1.0  0.49883  0.32945  0.98447  1.0000
  C   C899      1.0  0.43673  0.27568  0.98232  1.0000
  C   C900      1.0  0.48835  0.36489  0.97384  1.0000
  H   H1532     1.0  0.17628  0.48788  0.88443  1.0000
  H   H1533     1.0  0.29011  0.39197  0.98331  1.0000
  C   C901      1.0  0.28776  0.32355  0.98552  1.0000
  H   H1534     1.0  0.40374  0.30844  0.97207  1.0000
  H   H1535     1.0  0.36005  0.31265  0.98209  1.0000
  C   C902      1.0  0.09142  0.47499  0.96944  1.0000
  C   C903      1.0  0.03274  0.48373  0.87129  1.0000
  H   H1536     1.0  0.01668  0.47592  0.85419  1.0000
  C   C904      1.0  0.10626  0.48794  0.76848  1.0000
  C   C905      1.0  0.01753  0.48360  0.88130  1.0000
  C   C906      1.0  0.30923  0.40612  0.98318  1.0000
  H   H1537     1.0  0.32849  0.37811  0.98441  1.0000
  H   H1538     1.0  0.12263  0.48554  0.96778  1.0000
  C   C907      1.0  0.01566  0.32363  0.73940  1.0000
  H   H1539     1.0  0.06766  0.48831  0.83880  1.0000
  H   H1540     1.0  0.44097  0.48356  0.94174  1.0000
  S   S258      1.0  0.15591  0.48568  0.82498  1.0000
  H   H1541     1.0  0.10198  0.47748  0.96290  1.0000
  H   H1542     1.0  0.12599  0.48461  0.98471  1.0000
  H   H1543     1.0  0.37957  0.49121  0.93742  1.0000
  H   H1544     1.0  0.47946  0.36012  0.98170  1.0000
  C   C908      1.0  0.30067  0.38480  0.98535  1.0000
  H   H1545     1.0  0.36561  0.29322  0.98616  1.0000
  H   H1546     1.0  0.10805  0.49122  0.98182  1.0000
  H   H1547     1.0  0.39727  0.29497  0.98639  1.0000
  C   C909      1.0  0.41853  0.29746  0.98673  1.0000
  C   C910      1.0  0.10586  0.49156  0.83943  1.0000
  S   S259      1.0  0.11613  0.49084  0.82209  1.0000
  C   C911      1.0  0.08959  0.49197  0.86743  1.0000
  H   H1548     1.0  0.01480  0.49192  0.88766  1.0000
  H   H1549     1.0  0.43955  0.34269  0.98709  1.0000
  H   H1550     1.0  0.42335  0.55663  0.03964  1.0000
  S   S260      1.0  0.47119  0.71684  0.11863  1.0000
  C   C912      1.0  0.45542  0.62276  0.01674  1.0000
  S   S261      1.0  0.45369  0.72378  0.15016  1.0000
  H   H1551     1.0  0.41131  0.59776  0.01046  1.0000
  H   H1552     1.0  0.49688  0.50388  0.99567  1.0000
  C   C913      1.0  0.44854  0.64580  0.99045  1.0000
  Fe  Fe130     1.0  0.44805  0.71945  0.13142  1.0000
  S   S262      1.0  0.43652  0.70164  0.13356  1.0000
  N   N65       1.0  0.39376  0.58067  0.05593  1.0000
  C   C914      1.0  0.38698  0.49791  0.01021  1.0000
  C   C915      1.0  0.32331  0.56394  0.01705  1.0000
  Fe  Fe131     1.0  0.46489  0.74042  0.10982  1.0000
  H   H1553     1.0  0.16958  0.50238  0.14584  1.0000
  H   H1554     1.0  0.32667  0.61388  0.00485  1.0000
  H   H1555     1.0  0.18258  0.51249  0.19699  1.0000
  H   H1556     1.0  0.34155  0.69846  0.03566  1.0000
  H   H1557     1.0  0.09199  0.53848  0.15783  1.0000
  H   H1558     1.0  0.39862  0.56326  0.07391  1.0000
  Fe  Fe132     1.0  0.46843  0.55601  0.01904  1.0000
  C   C916      1.0  0.48768  0.59395  0.08053  1.0000
  S   S263      1.0  0.46095  0.53689  0.01879  1.0000
  Fe  Fe133     1.0  0.46050  0.57840  0.03654  1.0000
  S   S264      1.0  0.48088  0.58668  0.02575  1.0000
  S   S265      1.0  0.44204  0.58561  0.05397  1.0000
  Fe  Fe134     1.0  0.47610  0.58487  0.00570  1.0000
  Fe  Fe135     1.0  0.49230  0.56352  0.02738  1.0000
  C   C917      1.0  0.07411  0.50013  0.14190  1.0000
  S   S266      1.0  0.45480  0.57842  0.01635  1.0000
  S   S267      1.0  0.47232  0.55544  0.04015  1.0000
  Fe  Fe136     1.0  0.40395  0.67648  0.08289  1.0000
  S   S268      1.0  0.40742  0.65360  0.09553  1.0000
  S   S269      1.0  0.40247  0.69706  0.08961  1.0000
  Fe  Fe137     1.0  0.40626  0.66732  0.05514  1.0000
  S   S270      1.0  0.41058  0.64393  0.06545  1.0000
  S   S271      1.0  0.40650  0.67490  0.03151  1.0000
  Fe  Fe138     1.0  0.39252  0.65030  0.08356  1.0000
  S   S272      1.0  0.37566  0.63648  0.09355  1.0000
  Fe  Fe139     1.0  0.42495  0.64931  0.07623  1.0000
  S   S273      1.0  0.44774  0.63633  0.07615  1.0000
  S   S274      1.0  0.38732  0.67369  0.07268  1.0000
  S   S275      1.0  0.42237  0.67214  0.06420  1.0000
  Fe  Fe140     1.0  0.35034  0.56656  0.05364  1.0000
  S   S276      1.0  0.32890  0.56192  0.05488  1.0000
  S   S277      1.0  0.37189  0.55201  0.04676  1.0000
  Fe  Fe141     1.0  0.33702  0.59659  0.05965  1.0000
  S   S278      1.0  0.31419  0.59468  0.06106  1.0000
  S   S279      1.0  0.34446  0.61725  0.05629  1.0000
  Fe  Fe142     1.0  0.32075  0.57220  0.07387  1.0000
  S   S280      1.0  0.30695  0.56101  0.09406  1.0000
  Fe  Fe143     1.0  0.32396  0.58444  0.04207  1.0000
  S   S281      1.0  0.31444  0.59115  0.02248  1.0000
  S   S282      1.0  0.34304  0.57484  0.07383  1.0000
  S   S283      1.0  0.34599  0.58831  0.03951  1.0000
  Fe  Fe144     1.0  0.22801  0.50955  0.13774  1.0000
  S   S284      1.0  0.20487  0.51169  0.13718  1.0000
  Fe  Fe145     1.0  0.23226  0.53574  0.11318  1.0000
  S   S285      1.0  0.20907  0.54003  0.11101  1.0000
  S   S286      1.0  0.24453  0.55169  0.09654  1.0000
  Fe  Fe146     1.0  0.20300  0.53513  0.13503  1.0000
  S   S287      1.0  0.18568  0.54893  0.14879  1.0000
  Fe  Fe147     1.0  0.21328  0.51625  0.11343  1.0000
  C   C918      1.0  0.17058  0.50431  0.09143  1.0000
  S   S288      1.0  0.22579  0.53276  0.13713  1.0000
  S   S289      1.0  0.23682  0.51208  0.11405  1.0000
  H   H1559     1.0  0.37598  0.70405  0.04620  1.0000
  H   H1560     1.0  0.44196  0.64932  0.04606  1.0000
  H   H1561     1.0  0.43304  0.60734  0.02836  1.0000
  S   S290      1.0  0.12905  0.52585  0.18494  1.0000
  S   S291      1.0  0.05594  0.50503  0.18720  1.0000
  S   S292      1.0  0.09666  0.53765  0.21757  1.0000
  H   H1562     1.0  0.34434  0.64777  0.02260  1.0000
  Fe  Fe148     1.0  0.03289  0.51470  0.19691  1.0000
  S   S293      1.0  0.02580  0.52415  0.21629  1.0000
  H   H1563     1.0  0.47876  0.56626  0.07849  1.0000
  S   S294      1.0  0.02734  0.52767  0.17612  1.0000
  H   H1564     1.0  0.28429  0.57323  0.00497  1.0000
  H   H1565     1.0  0.46652  0.59847  0.09480  1.0000
  H   H1566     1.0  0.06414  0.51295  0.09518  1.0000
  S   S295      1.0  0.14184  0.51830  0.09764  1.0000
  C   C919      1.0  0.10538  0.55115  0.14157  1.0000
  C   C920      1.0  0.39484  0.60360  0.06308  1.0000
  H   H1567     1.0  0.43698  0.56645  0.99459  1.0000
  C   C921      1.0  0.07311  0.51483  0.13625  1.0000
  H   H1568     1.0  0.05531  0.52989  0.08601  1.0000
  H   H1569     1.0  0.38652  0.59367  0.02689  1.0000
  C   C922      1.0  0.07848  0.51975  0.12160  1.0000
  H   H1570     1.0  0.08856  0.51375  0.10129  1.0000
  H   H1571     1.0  0.07788  0.53111  0.11719  1.0000
  H   H1572     1.0  0.35729  0.56293  0.00107  1.0000
  N   N66       1.0  0.34335  0.62554  0.00138  1.0000
  H   H1573     1.0  0.49536  0.50579  0.04573  1.0000
  C   C923      1.0  0.32382  0.55387  0.00938  1.0000
  C   C924      1.0  0.34596  0.63699  0.02048  1.0000
  C   C925      1.0  0.06615  0.51793  0.22278  1.0000
  C   C926      1.0  0.05432  0.52168  0.21619  1.0000
  C   C927      1.0  0.04048  0.52008  0.22444  1.0000
  C   C928      1.0  0.15957  0.49933  0.20276  1.0000
  H   H1574     1.0  0.11178  0.51338  0.11682  1.0000
  H   H1575     1.0  0.07689  0.51899  0.21639  1.0000
  H   H1576     1.0  0.05589  0.52585  0.20475  1.0000
  H   H1577     1.0  0.05251  0.50847  0.12429  1.0000
  H   H1578     1.0  0.27960  0.59127  0.00683  1.0000
  C   C929      1.0  0.17030  0.54204  0.15913  1.0000
  C   C930      1.0  0.16674  0.53079  0.15593  1.0000
  C   C931      1.0  0.15426  0.52569  0.16417  1.0000
  C   C932      1.0  0.14523  0.53179  0.17560  1.0000
  C   C933      1.0  0.14899  0.54277  0.17902  1.0000
  C   C934      1.0  0.16144  0.54795  0.17074  1.0000
  H   H1579     1.0  0.17345  0.52626  0.14695  1.0000
  H   H1580     1.0  0.15156  0.51701  0.16169  1.0000
  H   H1581     1.0  0.14209  0.54758  0.18779  1.0000
  H   H1582     1.0  0.16414  0.55664  0.17328  1.0000
  H   H1583     1.0  0.41361  0.55143  0.05752  1.0000
  C   C935      1.0  0.01721  0.49892  0.10640  1.0000
  S   S296      1.0  0.49778  0.71257  0.14290  1.0000
  C   C936      1.0  0.16041  0.51500  0.09777  1.0000
  C   C937      1.0  0.16508  0.52289  0.10459  1.0000
  C   C938      1.0  0.17981  0.51989  0.10525  1.0000
  Fe  Fe149     1.0  0.02011  0.50827  0.17602  1.0000
  C   C939      1.0  0.47103  0.66901  0.08153  1.0000
  H   H1584     1.0  0.15735  0.53138  0.10928  1.0000
  H   H1585     1.0  0.18334  0.52592  0.11062  1.0000
  C   C940      1.0  0.28964  0.55841  0.09459  1.0000
  C   C941      1.0  0.28115  0.56742  0.08501  1.0000
  C   C942      1.0  0.26725  0.56533  0.08598  1.0000
  C   C943      1.0  0.26184  0.55405  0.09627  1.0000
  C   C944      1.0  0.27023  0.54511  0.10596  1.0000
  C   C945      1.0  0.28403  0.54739  0.10518  1.0000
  H   H1586     1.0  0.28522  0.57613  0.07702  1.0000
  H   H1587     1.0  0.26059  0.57255  0.07877  1.0000
  H   H1588     1.0  0.26614  0.53646  0.11402  1.0000
  H   H1589     1.0  0.29048  0.54047  0.11273  1.0000
  C   C946      1.0  0.31825  0.57859  0.01176  1.0000
  H   H1590     1.0  0.33899  0.66276  0.08436  1.0000
  S   S297      1.0  0.04168  0.49800  0.16417  1.0000
  H   H1591     1.0  0.38319  0.56312  0.06791  1.0000
  H   H1592     1.0  0.37587  0.56827  0.09142  1.0000
  H   H1593     1.0  0.20946  0.50887  0.18180  1.0000
  C   C947      1.0  0.42444  0.61734  0.02757  1.0000
  C   C948      1.0  0.36798  0.63018  0.08303  1.0000
  C   C949      1.0  0.35915  0.62010  0.08964  1.0000
  C   C950      1.0  0.35230  0.61552  0.08156  1.0000
  C   C951      1.0  0.35397  0.62127  0.06683  1.0000
  C   C952      1.0  0.36294  0.63117  0.06022  1.0000
  C   C953      1.0  0.37010  0.63542  0.06823  1.0000
  H   H1594     1.0  0.35746  0.61596  0.10110  1.0000
  H   H1595     1.0  0.34533  0.60796  0.08681  1.0000
  H   H1596     1.0  0.36425  0.63560  0.04885  1.0000
  H   H1597     1.0  0.37701  0.64298  0.06308  1.0000
  C   C954      1.0  0.39141  0.64726  0.01127  1.0000
  C   C955      1.0  0.39079  0.64367  0.02601  1.0000
  C   C956      1.0  0.39535  0.65215  0.03228  1.0000
  C   C957      1.0  0.40043  0.66434  0.02387  1.0000
  C   C958      1.0  0.40093  0.66802  0.00913  1.0000
  H   H1598     1.0  0.43278  0.62594  0.00553  1.0000
  H   H1599     1.0  0.38711  0.63411  0.03253  1.0000
  H   H1600     1.0  0.39505  0.64919  0.04358  1.0000
  C   C959      1.0  0.40299  0.58960  0.05786  1.0000
  C   C960      1.0  0.47001  0.62606  0.01636  1.0000
  C   C961      1.0  0.38903  0.57037  0.06976  1.0000
  H   H1601     1.0  0.34168  0.65584  0.06904  1.0000
  H   H1602     1.0  0.37303  0.59633  0.05776  1.0000
  C   C962      1.0  0.44467  0.59858  0.06115  1.0000
  C   C963      1.0  0.43390  0.60355  0.07229  1.0000
  C   C964      1.0  0.43526  0.61472  0.07743  1.0000
  C   C965      1.0  0.44746  0.62081  0.07151  1.0000
  C   C966      1.0  0.45852  0.61551  0.06072  1.0000
  C   C967      1.0  0.45707  0.60441  0.05552  1.0000
  H   H1603     1.0  0.42436  0.59898  0.07680  1.0000
  H   H1604     1.0  0.42667  0.61884  0.08578  1.0000
  H   H1605     1.0  0.46780  0.62044  0.05594  1.0000
  H   H1606     1.0  0.46531  0.60071  0.04688  1.0000
  H   H1607     1.0  0.03807  0.52718  0.13483  1.0000
  H   H1608     1.0  0.50142  0.53367  0.02412  1.0000
  H   H1609     1.0  0.34972  0.53006  0.02330  1.0000
  S   S298      1.0  0.31877  0.54556  0.98754  1.0000
  H   H1610     1.0  0.36132  0.49902  0.98753  1.0000
  H   H1611     1.0  0.34670  0.59518  0.00608  1.0000
  H   H1612     1.0  0.45117  0.51746  0.00933  1.0000
  C   C968      1.0  0.40908  0.58523  0.99681  1.0000
  C   C969      1.0  0.37398  0.55012  0.02925  1.0000
  C   C970      1.0  0.38648  0.54108  0.02298  1.0000
  C   C971      1.0  0.38847  0.53994  0.00880  1.0000
  C   C972      1.0  0.37810  0.54802  0.00079  1.0000
  C   C973      1.0  0.36547  0.55681  0.00715  1.0000
  C   C974      1.0  0.36336  0.55777  0.02138  1.0000
  H   H1613     1.0  0.39464  0.53500  0.02908  1.0000
  H   H1614     1.0  0.39814  0.53297  0.00405  1.0000
  H   H1615     1.0  0.27363  0.53708  0.02231  1.0000
  H   H1616     1.0  0.35351  0.56449  0.02617  1.0000
  C   C975      1.0  0.42618  0.70109  0.12176  1.0000
  C   C976      1.0  0.42303  0.71260  0.11038  1.0000
  C   C977      1.0  0.41546  0.71133  0.10083  1.0000
  C   C978      1.0  0.41127  0.69845  0.10234  1.0000
  C   C979      1.0  0.41413  0.68709  0.11390  1.0000
  C   C980      1.0  0.42141  0.68846  0.12361  1.0000
  H   H1617     1.0  0.42648  0.72244  0.10892  1.0000
  H   H1618     1.0  0.41310  0.72027  0.09207  1.0000
  H   H1619     1.0  0.41065  0.67725  0.11541  1.0000
  H   H1620     1.0  0.42356  0.67960  0.13251  1.0000
  S   S299      1.0  0.20828  0.50493  0.09956  1.0000
  C   C981      1.0  0.02200  0.50418  0.11713  1.0000
  C   C982      1.0  0.46550  0.54630  0.98966  1.0000
  H   H1621     1.0  0.27138  0.55558  0.01247  1.0000
  N   N67       1.0  0.27603  0.56186  0.03608  1.0000
  C   C983      1.0  0.27982  0.55953  0.05036  1.0000
  C   C984      1.0  0.25978  0.56326  0.03896  1.0000
  C   C985      1.0  0.27975  0.57587  0.02708  1.0000
  C   C986      1.0  0.28482  0.54945  0.02919  1.0000
  C   C987      1.0  0.29587  0.55875  0.04998  1.0000
  C   C988      1.0  0.25398  0.55024  0.04921  1.0000
  C   C989      1.0  0.45481  0.52545  0.00007  1.0000
  C   C990      1.0  0.27888  0.54643  0.01775  1.0000
  H   H1622     1.0  0.27305  0.56823  0.05594  1.0000
  H   H1623     1.0  0.27735  0.54931  0.05759  1.0000
  H   H1624     1.0  0.25591  0.56540  0.02901  1.0000
  H   H1625     1.0  0.25385  0.57282  0.04365  1.0000
  H   H1626     1.0  0.01859  0.50614  0.09562  1.0000
  H   H1627     1.0  0.29148  0.57544  0.02552  1.0000
  H   H1628     1.0  0.29612  0.55094  0.02412  1.0000
  H   H1629     1.0  0.28597  0.53929  0.03753  1.0000
  H   H1630     1.0  0.29855  0.56952  0.04599  1.0000
  H   H1631     1.0  0.29766  0.55487  0.06107  1.0000
  H   H1632     1.0  0.30365  0.55114  0.04365  1.0000
  H   H1633     1.0  0.26054  0.53989  0.04656  1.0000
  H   H1634     1.0  0.25351  0.54999  0.06054  1.0000
  H   H1635     1.0  0.24262  0.55123  0.04849  1.0000
  Fe  Fe150     1.0  0.12784  0.51572  0.23684  1.0000
  H   H1636     1.0  0.47501  0.57988  0.09808  1.0000
  H   H1637     1.0  0.35987  0.49741  0.02635  1.0000
  H   H1638     1.0  0.47365  0.57333  0.06178  1.0000
  H   H1639     1.0  0.47114  0.63710  0.01076  1.0000
  H   H1640     1.0  0.41054  0.59298  0.04750  1.0000
  H   H1641     1.0  0.34558  0.49896  0.00181  1.0000
  H   H1642     1.0  0.04001  0.51317  0.09044  1.0000
  H   H1643     1.0  0.06921  0.55791  0.23424  1.0000
  H   H1644     1.0  0.42570  0.64382  0.03438  1.0000
  H   H1645     1.0  0.18883  0.49531  0.16558  1.0000
  C   C991      1.0  0.49713  0.51902  0.00790  1.0000
  C   C992      1.0  0.41853  0.59038  0.00354  1.0000
  C   C993      1.0  0.27692  0.58056  0.01185  1.0000
  H   H1646     1.0  0.19311  0.49340  0.08663  1.0000
  Fe  Fe151     1.0  0.13625  0.50250  0.08873  1.0000
  H   H1647     1.0  0.37321  0.60781  0.03393  1.0000
  H   H1648     1.0  0.31061  0.59448  0.99418  1.0000
  C   C994      1.0  0.44525  0.64892  0.03455  1.0000
  H   H1649     1.0  0.31390  0.63388  0.02475  1.0000
  H   H1650     1.0  0.47182  0.62382  0.02734  1.0000
  H   H1651     1.0  0.38381  0.60345  0.06983  1.0000
  C   C995      1.0  0.35356  0.52364  0.99672  1.0000
  S   S300      1.0  0.11724  0.50725  0.07842  1.0000
  H   H1652     1.0  0.33125  0.68558  0.04641  1.0000
  C   C996      1.0  0.49302  0.58012  0.06169  1.0000
  H   H1653     1.0  0.36372  0.69807  0.06227  1.0000
  H   H1654     1.0  0.39609  0.56572  0.04277  1.0000
  H   H1655     1.0  0.36853  0.52108  0.02301  1.0000
  H   H1656     1.0  0.42483  0.58137  0.01034  1.0000
  H   H1657     1.0  0.16631  0.49636  0.18124  1.0000
  C   C997      1.0  0.31452  0.58316  0.99837  1.0000
  C   C998      1.0  0.35624  0.66905  0.04192  1.0000
  N   N68       1.0  0.45729  0.67459  0.09168  1.0000
  H   H1658     1.0  0.41619  0.56012  0.01587  1.0000
  H   H1659     1.0  0.47208  0.67933  0.11792  1.0000
  H   H1660     1.0  0.48148  0.67918  0.09978  1.0000
  H   H1661     1.0  0.37372  0.58247  0.04981  1.0000
  C   C999      1.0  0.47056  0.68190  0.10678  1.0000
  C   C1000     1.0  0.24446  0.50012  0.07825  1.0000
  H   H1662     1.0  0.35963  0.59957  0.98938  1.0000
  H   H1663     1.0  0.45383  0.61362  0.02605  1.0000
  H   H1664     1.0  0.10183  0.56043  0.14682  1.0000
  H   H1665     1.0  0.32705  0.54254  0.01388  1.0000
  H   H1666     1.0  0.47906  0.61909  0.01015  1.0000
  H   H1667     1.0  0.05586  0.57498  0.21859  1.0000
  H   H1668     1.0  0.47130  0.64596  0.08633  1.0000
  H   H1669     1.0  0.40682  0.57884  0.03473  1.0000
  C   C1001     1.0  0.44610  0.69425  0.07189  1.0000
  H   H1670     1.0  0.16716  0.49812  0.08626  1.0000
  C   C1002     1.0  0.18992  0.50927  0.09871  1.0000
  C   C1003     1.0  0.05165  0.55822  0.21179  1.0000
  C   C1004     1.0  0.33120  0.70154  0.05713  1.0000
  C   C1005     1.0  0.31581  0.63268  0.01359  1.0000
  S   S301      1.0  0.06458  0.52699  0.14741  1.0000
  H   H1671     1.0  0.44954  0.67676  0.11365  1.0000
  H   H1672     1.0  0.40222  0.59510  0.99155  1.0000
  C   C1006     1.0  0.40282  0.57180  0.04511  1.0000
  C   C1007     1.0  0.44400  0.64807  0.00592  1.0000
  H   H1673     1.0  0.03100  0.52655  0.10026  1.0000
  H   H1674     1.0  0.05942  0.49213  0.10873  1.0000
  H   H1675     1.0  0.36894  0.58433  0.07981  1.0000
  H   H1676     1.0  0.02144  0.52104  0.13825  1.0000
  C   C1008     1.0  0.33960  0.66597  0.07263  1.0000
  H   H1677     1.0  0.20145  0.51556  0.16631  1.0000
  N   N69       1.0  0.22105  0.57784  0.13093  1.0000
  C   C1009     1.0  0.21943  0.57107  0.14673  1.0000
  C   C1010     1.0  0.23595  0.57097  0.12335  1.0000
  C   C1011     1.0  0.20959  0.57421  0.12596  1.0000
  C   C1012     1.0  0.21889  0.59391  0.12879  1.0000
  C   C1013     1.0  0.20441  0.57579  0.15644  1.0000
  C   C1014     1.0  0.24889  0.57153  0.12898  1.0000
  C   C1015     1.0  0.20930  0.57968  0.10998  1.0000
  C   C1016     1.0  0.22672  0.60199  0.11429  1.0000
  H   H1678     1.0  0.22179  0.55912  0.14857  1.0000
  H   H1679     1.0  0.22748  0.57352  0.15113  1.0000
  H   H1680     1.0  0.23818  0.57576  0.11170  1.0000
  H   H1681     1.0  0.23661  0.55944  0.12410  1.0000
  H   H1682     1.0  0.21069  0.56237  0.12849  1.0000
  H   H1683     1.0  0.19842  0.57859  0.13174  1.0000
  H   H1684     1.0  0.20706  0.59913  0.13025  1.0000
  H   H1685     1.0  0.22259  0.59659  0.13712  1.0000
  H   H1686     1.0  0.20058  0.58763  0.15453  1.0000
  H   H1687     1.0  0.19606  0.57091  0.15524  1.0000
  H   H1688     1.0  0.20527  0.57183  0.16782  1.0000
  H   H1689     1.0  0.25025  0.56287  0.13867  1.0000
  H   H1690     1.0  0.25915  0.56961  0.12073  1.0000
  H   H1691     1.0  0.24771  0.58203  0.13148  1.0000
  H   H1692     1.0  0.20508  0.59147  0.10736  1.0000
  H   H1693     1.0  0.20153  0.57482  0.10766  1.0000
  H   H1694     1.0  0.21996  0.57650  0.10279  1.0000
  H   H1695     1.0  0.23869  0.59951  0.11328  1.0000
  H   H1696     1.0  0.22287  0.61374  0.11364  1.0000
  H   H1697     1.0  0.22455  0.59979  0.10492  1.0000
  H   H1698     1.0  0.46680  0.58842  0.08262  1.0000
  H   H1699     1.0  0.02034  0.56250  0.22719  1.0000
  C   C1017     1.0  0.36600  0.68807  0.04419  1.0000
  H   H1700     1.0  0.34329  0.50828  0.02258  1.0000
  C   C1018     1.0  0.35693  0.59905  0.00104  1.0000
  C   C1019     1.0  0.35521  0.50791  0.01999  1.0000
  C   C1020     1.0  0.48320  0.56904  0.06685  1.0000
  H   H1701     1.0  0.43916  0.65692  0.11591  1.0000
  H   H1702     1.0  0.33673  0.64820  0.00224  1.0000
  C   C1021     1.0  0.10248  0.51003  0.17495  1.0000
  C   C1022     1.0  0.08447  0.49536  0.11822  1.0000
  H   H1703     1.0  0.06296  0.54243  0.23619  1.0000
  H   H1704     1.0  0.33138  0.61396  0.02077  1.0000
  H   H1705     1.0  0.45725  0.64550  0.03195  1.0000
  H   H1706     1.0  0.35620  0.53258  0.99945  1.0000
  H   H1707     1.0  0.46884  0.67024  0.07086  1.0000
  C   C1023     1.0  0.35633  0.61354  0.00432  1.0000
  H   H1708     1.0  0.04316  0.55216  0.21351  1.0000
  H   H1709     1.0  0.35971  0.66386  0.02129  1.0000
  C   C1024     1.0  0.32956  0.62079  0.01020  1.0000
  H   H1710     1.0  0.39186  0.60561  0.03426  1.0000
  C   C1025     1.0  0.31536  0.57311  0.99054  1.0000
  H   H1711     1.0  0.49484  0.73417  0.18511  1.0000
  H   H1712     1.0  0.33747  0.70215  0.06447  1.0000
  H   H1713     1.0  0.44312  0.70614  0.06842  1.0000
  C   C1026     1.0  0.37918  0.57704  0.08234  1.0000
  H   H1714     1.0  0.05485  0.52738  0.10453  1.0000
  H   H1715     1.0  0.40113  0.60565  0.06969  1.0000
  H   H1716     1.0  0.39444  0.61303  0.05393  1.0000
  H   H1717     1.0  0.36915  0.67695  0.02036  1.0000
  C   C1027     1.0  0.49979  0.51440  0.99371  1.0000
  H   H1718     1.0  0.43449  0.67424  0.09472  1.0000
  H   H1719     1.0  0.44656  0.66371  0.08291  1.0000
  H   H1720     1.0  0.46417  0.66191  0.11131  1.0000
  C   C1028     1.0  0.35720  0.51958  0.02630  1.0000
  Fe  Fe152     1.0  0.47627  0.72316  0.13627  1.0000
  H   H1721     1.0  0.46114  0.69620  0.08278  1.0000
  H   H1722     1.0  0.39692  0.66237  0.99144  1.0000
  H   H1723     1.0  0.34153  0.52488  0.00046  1.0000
  S   S302      1.0  0.12966  0.53662  0.22089  1.0000
  H   H1724     1.0  0.09779  0.52010  0.17889  1.0000
  H   H1725     1.0  0.30613  0.62914  0.01326  1.0000
  H   H1726     1.0  0.41527  0.61491  0.02487  1.0000
  H   H1727     1.0  0.32800  0.71267  0.05093  1.0000
  H   H1728     1.0  0.44349  0.69545  0.09365  1.0000
  S   S303      1.0  0.11951  0.50669  0.22336  1.0000
  C   C1029     1.0  0.31963  0.55841  0.99620  1.0000
  C   C1030     1.0  0.44394  0.65366  0.10549  1.0000
  H   H1729     1.0  0.48424  0.60406  0.07284  1.0000
  H   H1730     1.0  0.45417  0.69022  0.06283  1.0000
  C   C1031     1.0  0.41653  0.56086  0.04917  1.0000
  H   H1731     1.0  0.06226  0.55064  0.21267  1.0000
  Fe  Fe153     1.0  0.11994  0.52800  0.20800  1.0000
  Fe  Fe154     1.0  0.04955  0.51624  0.16628  1.0000
  H   H1732     1.0  0.45867  0.63738  0.98873  1.0000
  H   H1733     1.0  0.42015  0.62026  0.03816  1.0000
  H   H1734     1.0  0.35093  0.68178  0.07190  1.0000
  C   C1032     1.0  0.45217  0.69040  0.08553  1.0000
  H   H1735     1.0  0.32629  0.56030  0.02730  1.0000
  H   H1736     1.0  0.41012  0.58306  0.06539  1.0000
  H   H1737     1.0  0.03863  0.50022  0.13562  1.0000
  C   C1033     1.0  0.38340  0.59970  0.03550  1.0000
  C   C1034     1.0  0.36533  0.70078  0.05047  1.0000
  C   C1035     1.0  0.45999  0.67323  0.10623  1.0000
  H   H1738     1.0  0.41309  0.54881  0.00621  1.0000
  C   C1036     1.0  0.49248  0.51722  0.04021  1.0000
  C   C1037     1.0  0.42978  0.62970  0.01565  1.0000
  H   H1739     1.0  0.42344  0.56573  0.05267  1.0000
  H   H1740     1.0  0.43877  0.62872  0.04078  1.0000
  N   N70       1.0  0.03768  0.50532  0.11336  1.0000
  H   H1741     1.0  0.03717  0.57645  0.21988  1.0000
  N   N71       1.0  0.11027  0.52316  0.14848  1.0000
  C   C1038     1.0  0.10234  0.51213  0.15902  1.0000
  C   C1039     1.0  0.10755  0.52445  0.13398  1.0000
  C   C1040     1.0  0.10394  0.53727  0.15317  1.0000
  C   C1041     1.0  0.12621  0.51807  0.14877  1.0000
  H   H1742     1.0  0.43970  0.64324  0.98736  1.0000
  C   C1042     1.0  0.35764  0.49780  0.99934  1.0000
  C   C1043     1.0  0.05447  0.52193  0.09640  1.0000
  C   C1044     1.0  0.13675  0.52686  0.13764  1.0000
  H   H1743     1.0  0.09069  0.51482  0.15833  1.0000
  H   H1744     1.0  0.48691  0.59025  0.05593  1.0000
  H   H1745     1.0  0.11238  0.53287  0.12563  1.0000
  H   H1746     1.0  0.09567  0.52814  0.13430  1.0000
  H   H1747     1.0  0.23590  0.49960  0.07324  1.0000
  H   H1748     1.0  0.50223  0.57609  0.05330  1.0000
  H   H1749     1.0  0.12781  0.51807  0.15934  1.0000
  H   H1750     1.0  0.13035  0.50660  0.14809  1.0000
  Fe  Fe155     1.0  0.10630  0.54453  0.23187  1.0000
  H   H1751     1.0  0.49255  0.59697  0.08781  1.0000
  H   H1752     1.0  0.44731  0.61004  0.99204  1.0000
  H   H1753     1.0  0.24018  0.50991  0.08276  1.0000
  C   C1045     1.0  0.03157  0.52290  0.13015  1.0000
  H   H1754     1.0  0.40120  0.57986  0.00566  1.0000
  S   S304      1.0  0.13556  0.49748  0.04038  1.0000
  H   H1755     1.0  0.09808  0.55316  0.13416  1.0000
  H   H1756     1.0  0.11667  0.55112  0.13536  1.0000
  H   H1757     1.0  0.13746  0.53597  0.14158  1.0000
  H   H1758     1.0  0.13407  0.53085  0.12699  1.0000
  H   H1759     1.0  0.14778  0.51980  0.13564  1.0000
  S   S305      1.0  0.48936  0.56231  0.00631  1.0000
  H   H1760     1.0  0.35676  0.61103  0.01579  1.0000
  S   S306      1.0  0.38628  0.63601  0.00372  1.0000
  H   H1761     1.0  0.35694  0.71029  0.04697  1.0000
  H   H1762     1.0  0.40484  0.67747  0.00256  1.0000
  H   H1763     1.0  0.17703  0.51634  0.18065  1.0000
  H   H1764     1.0  0.48848  0.65050  0.07781  1.0000
  Fe  Fe156     1.0  0.09742  0.51710  0.23419  1.0000
  H   H1765     1.0  0.43369  0.65651  0.00679  1.0000
  H   H1766     1.0  0.35679  0.63084  0.02257  1.0000
  C   C1046     1.0  0.08445  0.50995  0.11262  1.0000
  H   H1767     1.0  0.01455  0.51475  0.11833  1.0000
  H   H1768     1.0  0.49457  0.56466  0.09017  1.0000
  H   H1769     1.0  0.15706  0.51120  0.19921  1.0000
  H   H1770     1.0  0.48162  0.65056  0.09634  1.0000
  H   H1771     1.0  0.32884  0.67266  0.07097  1.0000
  H   H1772     1.0  0.34955  0.68179  0.02174  1.0000
  H   H1773     1.0  0.34715  0.66332  0.04552  1.0000
  C   C1047     1.0  0.35206  0.67404  0.06538  1.0000
  H   H1774     1.0  0.38210  0.50558  0.98927  1.0000
  H   H1775     1.0  0.12495  0.50617  0.12759  1.0000
  N   N72       1.0  0.18623  0.49382  0.18815  1.0000
  H   H1776     1.0  0.48754  0.51478  0.01493  1.0000
  C   C1048     1.0  0.38044  0.58959  0.05039  1.0000
  N   N73       1.0  0.44206  0.63483  0.01760  1.0000
  H   H1777     1.0  0.44174  0.66006  0.02852  1.0000
  C   C1049     1.0  0.39646  0.65948  0.00282  1.0000
  H   H1778     1.0  0.31569  0.64326  0.00613  1.0000
  H   H1779     1.0  0.27386  0.58482  0.03266  1.0000
  H   H1780     1.0  0.10882  0.53759  0.16189  1.0000
  H   H1781     1.0  0.36605  0.66082  0.04446  1.0000
  H   H1782     1.0  0.37971  0.51915  0.99858  1.0000
  S   S307      1.0  0.23610  0.49284  0.15572  1.0000
  C   C1050     1.0  0.49604  0.73780  0.14993  1.0000
  C   C1051     1.0  0.35873  0.67344  0.02542  1.0000
  C   C1052     1.0  0.33930  0.69150  0.04660  1.0000
  H   H1783     1.0  0.36772  0.69250  0.03246  1.0000
  C   C1053     1.0  0.43751  0.63858  0.03212  1.0000
  H   H1784     1.0  0.45217  0.65319  0.00704  1.0000
  H   H1785     1.0  0.36241  0.66619  0.06701  1.0000
  N   N74       1.0  0.35312  0.68101  0.04968  1.0000
  C   C1054     1.0  0.42778  0.56302  0.99299  1.0000
  H   H1786     1.0  0.07080  0.49618  0.15327  1.0000
  C   C1055     1.0  0.11317  0.51067  0.12802  1.0000
  H   H1787     1.0  0.11359  0.50540  0.17700  1.0000
  C   C1056     1.0  0.37754  0.50843  0.99988  1.0000
  H   H1788     1.0  0.45711  0.61793  0.00745  1.0000
  H   H1789     1.0  0.28823  0.54320  0.00905  1.0000
  C   C1057     1.0  0.19957  0.51515  0.17789  1.0000
  H   H1790     1.0  0.05292  0.56459  0.20058  1.0000
  H   H1791     1.0  0.39954  0.56487  0.99197  1.0000
  H   H1792     1.0  0.35565  0.64167  0.99793  1.0000
  C   C1058     1.0  0.42118  0.55391  0.00741  1.0000
  H   H1793     1.0  0.42993  0.54510  0.01134  1.0000
  C   C1059     1.0  0.47334  0.58962  0.08946  1.0000
  H   H1794     1.0  0.43593  0.69049  0.07386  1.0000
  H   H1795     1.0  0.04692  0.59330  0.23459  1.0000
  H   H1796     1.0  0.47931  0.67542  0.07959  1.0000
  H   H1797     1.0  0.42020  0.63873  0.01459  1.0000
  H   H1798     1.0  0.01950  0.49700  0.12778  1.0000
  C   C1060     1.0  0.04732  0.56854  0.22203  1.0000
  H   H1799     1.0  0.46598  0.69365  0.10423  1.0000
  C   C1061     1.0  0.18570  0.50956  0.18636  1.0000
  C   C1062     1.0  0.04009  0.51688  0.09995  1.0000
  C   C1063     1.0  0.18531  0.50160  0.09170  1.0000
  H   H1800     1.0  0.43628  0.64810  0.10399  1.0000
  H   H1801     1.0  0.26538  0.58177  0.01171  1.0000
  H   H1802     1.0  0.45431  0.64570  0.10614  1.0000
  C   C1064     1.0  0.47835  0.65308  0.08600  1.0000
  H   H1803     1.0  0.21065  0.49231  0.20332  1.0000
  H   H1804     1.0  0.37617  0.67996  0.04592  1.0000
  H   H1805     1.0  0.38513  0.58257  0.08629  1.0000
  C   C1065     1.0  0.44543  0.66695  0.09305  1.0000
  C   C1066     1.0  0.04077  0.50874  0.12584  1.0000
  H   H1806     1.0  0.32085  0.69843  0.06359  1.0000
  S   S308      1.0  0.02399  0.49600  0.19761  1.0000
  H   H1807     1.0  0.02854  0.53151  0.12103  1.0000
  H   H1808     1.0  0.00542  0.49883  0.11026  1.0000
  H   H1809     1.0  0.25454  0.50163  0.07003  1.0000
  N   N75       1.0  0.36133  0.50920  0.00412  1.0000
  H   H1810     1.0  0.48223  0.51932  0.03659  1.0000
  H   H1811     1.0  0.38986  0.50378  0.01661  1.0000
  H   H1812     1.0  0.50253  0.73570  0.11775  1.0000
  H   H1813     1.0  0.09563  0.50228  0.18157  1.0000
  C   C1067     1.0  0.46063  0.53609  0.00164  1.0000
  H   H1814     1.0  0.10700  0.50138  0.15644  1.0000
  H   H1815     1.0  0.48449  0.73977  0.15068  1.0000
  H   H1816     1.0  0.19797  0.52639  0.17882  1.0000
  H   H1817     1.0  0.49944  0.72956  0.20217  1.0000
  H   H1818     1.0  0.35450  0.51639  0.03818  1.0000
  H   H1819     1.0  0.36578  0.59073  0.00542  1.0000
  C   C1068     1.0  0.34536  0.63861  0.00480  1.0000
  H   H1820     1.0  0.16314  0.49633  0.21295  1.0000
  H   H1821     1.0  0.49289  0.53087  0.00593  1.0000
  Fe  Fe157     1.0  0.13205  0.49239  0.06434  1.0000
  H   H1822     1.0  0.49018  0.52367  0.04836  1.0000
  H   H1823     1.0  0.15855  0.49268  0.14259  1.0000
  N   N76       1.0  0.49882  0.58311  0.07280  1.0000
  H   H1824     1.0  0.48911  0.55900  0.06309  1.0000
  H   H1825     1.0  0.42606  0.59656  0.99534  1.0000
  H   H1826     1.0  0.36673  0.61689  0.99821  1.0000
  H   H1827     1.0  0.14916  0.49587  0.20502  1.0000
  H   H1828     1.0  0.05628  0.49215  0.21986  1.0000
  H   H1829     1.0  0.10680  0.50237  0.13405  1.0000
  H   H1830     1.0  0.50205  0.49464  0.02609  1.0000
  H   H1831     1.0  0.33740  0.63179  0.02826  1.0000
  C   C1069     1.0  0.50243  0.73538  0.19091  1.0000
  H   H1832     1.0  0.39758  0.49311  0.00378  1.0000
  H   H1833     1.0  0.47005  0.55452  0.99084  1.0000
  H   H1834     1.0  0.00689  0.51196  0.46849  1.0000
  H   H1835     1.0  0.11159  0.65806  0.38324  1.0000
  H   H1836     1.0  0.01159  0.56384  0.38348  1.0000
  H   H1837     1.0  0.06558  0.57750  0.38651  1.0000
  S   S309      1.0  0.11817  0.71402  0.44116  1.0000
  S   S310      1.0  0.00679  0.66171  0.35795  1.0000
  H   H1838     1.0  0.04315  0.57741  0.29623  1.0000
  H   H1839     1.0  0.13098  0.65404  0.37904  1.0000
  H   H1840     1.0  0.05293  0.54164  0.26293  1.0000
  C   C1070     1.0  0.02289  0.62900  0.38472  1.0000
  H   H1841     1.0  0.10064  0.72762  0.39622  1.0000
  H   H1842     1.0  0.01356  0.62621  0.32681  1.0000
  H   H1843     1.0  0.02962  0.55184  0.31842  1.0000
  C   C1071     1.0  0.03226  0.60868  0.40389  1.0000
  H   H1844     1.0  0.05084  0.63414  0.30768  1.0000
  Fe  Fe158     1.0  0.04519  0.68114  0.40239  1.0000
  S   S311      1.0  0.05364  0.65744  0.40844  1.0000
  S   S312      1.0  0.02126  0.68776  0.40207  1.0000
  Fe  Fe159     1.0  0.07404  0.68783  0.40182  1.0000
  S   S313      1.0  0.08455  0.66440  0.40782  1.0000
  S   S314      1.0  0.08598  0.70586  0.39737  1.0000
  Fe  Fe160     1.0  0.07384  0.66124  0.39198  1.0000
  S   S315      1.0  0.08646  0.64478  0.37850  1.0000
  Fe  Fe161     1.0  0.06336  0.66276  0.42355  1.0000
  S   S316      1.0  0.06084  0.64994  0.44622  1.0000
  S   S317      1.0  0.06479  0.68487  0.38468  1.0000
  S   S318      1.0  0.05347  0.68632  0.41877  1.0000
  Fe  Fe162     1.0  0.07916  0.58129  0.31340  1.0000
  S   S319      1.0  0.08095  0.58494  0.33417  1.0000
  Fe  Fe163     1.0  0.04659  0.59169  0.31890  1.0000
  S   S320      1.0  0.04548  0.59612  0.33991  1.0000
  S   S321      1.0  0.02440  0.59710  0.31408  1.0000
  Fe  Fe164     1.0  0.06492  0.60582  0.32919  1.0000
  S   S322      1.0  0.06260  0.62776  0.33362  1.0000
  Fe  Fe165     1.0  0.06137  0.57515  0.34354  1.0000
  S   S323      1.0  0.05681  0.56155  0.36581  1.0000
  S   S324      1.0  0.06479  0.60313  0.30747  1.0000
  S   S325      1.0  0.06080  0.56971  0.32340  1.0000
  N   N77       1.0  0.03608  0.61931  0.39003  1.0000
  H   H1845     1.0  0.07169  0.53187  0.43235  1.0000
  C   C1072     1.0  0.10161  0.52890  0.31560  1.0000
  S   S326      1.0  0.02963  0.51114  0.36544  1.0000
  H   H1846     1.0  0.03943  0.54224  0.23774  1.0000
  H   H1847     1.0  0.07220  0.53986  0.25668  1.0000
  H   H1848     1.0  0.03767  0.59182  0.38411  1.0000
  C   C1073     1.0  0.10582  0.68490  0.37042  1.0000
  Fe  Fe166     1.0  0.04001  0.58333  0.45426  1.0000
  S   S327      1.0  0.02332  0.59687  0.46845  1.0000
  S   S328      1.0  0.05996  0.58967  0.43892  1.0000
  Fe  Fe167     1.0  0.02269  0.56040  0.46247  1.0000
  H   H1849     1.0  0.13923  0.69666  0.33892  1.0000
  H   H1850     1.0  0.08343  0.57579  0.38875  1.0000
  H   H1851     1.0  0.00510  0.59301  0.36157  1.0000
  H   H1852     1.0  0.09404  0.53893  0.27358  1.0000
  H   H1853     1.0  0.12125  0.70250  0.34883  1.0000
  S   S329      1.0  0.02380  0.57984  0.44444  1.0000
  S   S330      1.0  0.04041  0.56291  0.47099  1.0000
  H   H1854     1.0  0.01934  0.64365  0.28736  1.0000
  H   H1855     1.0  0.11843  0.55789  0.25206  1.0000
  H   H1856     1.0  0.03260  0.64678  0.43637  1.0000
  C   C1074     1.0  0.01865  0.63616  0.29808  1.0000
  H   H1857     1.0  0.10447  0.50087  0.31994  1.0000
  H   H1858     1.0  0.01529  0.63198  0.47367  1.0000
  C   C1075     1.0  0.04582  0.61172  0.37848  1.0000
  H   H1859     1.0  0.03316  0.54270  0.30396  1.0000
  C   C1076     1.0  0.11065  0.49513  0.31133  1.0000
  C   C1077     1.0  0.04984  0.54708  0.36595  1.0000
  C   C1078     1.0  0.03881  0.54269  0.37744  1.0000
  C   C1079     1.0  0.03254  0.53169  0.37730  1.0000
  C   C1080     1.0  0.03763  0.52471  0.36587  1.0000
  C   C1081     1.0  0.04899  0.52881  0.35459  1.0000
  C   C1082     1.0  0.05496  0.54011  0.35454  1.0000
  H   H1860     1.0  0.03485  0.54803  0.38629  1.0000
  C   C1083     1.0  0.02857  0.57094  0.28775  1.0000
  H   H1861     1.0  0.00511  0.67333  0.42866  1.0000
  H   H1862     1.0  0.06371  0.54324  0.34580  1.0000
  H   H1863     1.0  0.02370  0.55763  0.35288  1.0000
  H   H1864     1.0  0.00875  0.54261  0.30692  1.0000
  H   H1865     1.0  0.14252  0.67307  0.35600  1.0000
  C   C1084     1.0  0.08328  0.61429  0.47894  1.0000
  H   H1866     1.0  0.06416  0.51885  0.41186  1.0000
  C   C1085     1.0  0.06282  0.63220  0.44518  1.0000
  C   C1086     1.0  0.05650  0.62256  0.45684  1.0000
  C   C1087     1.0  0.05635  0.60904  0.45524  1.0000
  C   C1088     1.0  0.06255  0.60518  0.44201  1.0000
  C   C1089     1.0  0.06989  0.61438  0.43074  1.0000
  C   C1090     1.0  0.06988  0.62795  0.43227  1.0000
  H   H1867     1.0  0.05128  0.62571  0.46693  1.0000
  H   H1868     1.0  0.05134  0.60165  0.46419  1.0000
  H   H1869     1.0  0.07516  0.61123  0.42066  1.0000
  H   H1870     1.0  0.07520  0.63517  0.42335  1.0000
  C   C1091     1.0  0.07931  0.63997  0.36643  1.0000
  C   C1092     1.0  0.08550  0.62661  0.36259  1.0000
  C   C1093     1.0  0.08027  0.62250  0.35287  1.0000
  C   C1094     1.0  0.06910  0.63194  0.34653  1.0000
  C   C1095     1.0  0.06295  0.64530  0.35035  1.0000
  C   C1096     1.0  0.06790  0.64925  0.36036  1.0000
  H   H1871     1.0  0.09439  0.61939  0.36716  1.0000
  H   H1872     1.0  0.08517  0.61223  0.34996  1.0000
  H   H1873     1.0  0.05436  0.65269  0.34545  1.0000
  H   H1874     1.0  0.06310  0.65960  0.36312  1.0000
  C   C1097     1.0  0.01709  0.68039  0.39001  1.0000
  H   H1875     1.0  0.02123  0.49951  0.32623  1.0000
  C   C1098     1.0  0.05864  0.62117  0.39754  1.0000
  C   C1099     1.0  0.02071  0.58719  0.30396  1.0000
  C   C1100     1.0  0.02485  0.66887  0.36986  1.0000
  C   C1101     1.0  0.02823  0.67435  0.37973  1.0000
  H   H1876     1.0  0.03351  0.66446  0.36175  1.0000
  H   H1877     1.0  0.03947  0.67419  0.37914  1.0000
  H   H1878     1.0  0.03123  0.62700  0.34121  1.0000
  C   C1102     1.0  0.09813  0.51923  0.29045  1.0000
  H   H1879     1.0  0.09267  0.67498  0.36303  1.0000
  H   H1880     1.0  0.00768  0.51742  0.34938  1.0000
  C   C1103     1.0  0.08409  0.57487  0.27775  1.0000
  C   C1104     1.0  0.08309  0.57348  0.26443  1.0000
  H   H1881     1.0  0.12254  0.51587  0.27071  1.0000
  H   H1882     1.0  0.07449  0.57957  0.28488  1.0000
  Fe  Fe168     1.0  0.12172  0.73381  0.44611  1.0000
  C   C1105     1.0  0.10891  0.71228  0.42896  1.0000
  C   C1106     1.0  0.10281  0.70020  0.43220  1.0000
  C   C1107     1.0  0.09568  0.69813  0.42272  1.0000
  C   C1108     1.0  0.09482  0.70801  0.40970  1.0000
  C   C1109     1.0  0.10113  0.71998  0.40632  1.0000
  C   C1110     1.0  0.10802  0.72219  0.41594  1.0000
  H   H1883     1.0  0.10359  0.69239  0.44216  1.0000
  H   H1884     1.0  0.09095  0.68884  0.42545  1.0000
  S   S331      1.0  0.00853  0.50669  0.40584  1.0000
  C   C1111     1.0  0.01035  0.66900  0.37044  1.0000
  H   H1885     1.0  0.02676  0.52121  0.43932  1.0000
  H   H1886     1.0  0.00937  0.72234  0.39651  1.0000
  C   C1112     1.0  0.12126  0.66018  0.37451  1.0000
  H   H1887     1.0  0.03150  0.52791  0.33593  1.0000
  C   C1113     1.0  0.02277  0.63171  0.32207  1.0000
  C   C1114     1.0  0.09542  0.56714  0.25521  1.0000
  C   C1115     1.0  0.06510  0.54146  0.40592  1.0000
  H   H1888     1.0  0.04719  0.63702  0.38228  1.0000
  H   H1889     1.0  0.04851  0.59568  0.36676  1.0000
  H   H1890     1.0  0.08608  0.65812  0.48673  1.0000
  S   S332      1.0  0.14084  0.73418  0.45458  1.0000
  H   H1891     1.0  0.00608  0.62369  0.29353  1.0000
  H   H1892     1.0  0.02380  0.52862  0.38606  1.0000
  H   H1893     1.0  0.08066  0.55724  0.41042  1.0000
  H   H1894     1.0  0.03150  0.54834  0.41301  1.0000
  H   H1895     1.0  0.12036  0.56083  0.27531  1.0000
  H   H1896     1.0  0.05378  0.73146  0.43496  1.0000
  C   C1116     1.0  0.09815  0.68418  0.35919  1.0000
  H   H1897     1.0  0.13250  0.65157  0.35517  1.0000
  C   C1117     1.0  0.02894  0.52882  0.32549  1.0000
  C   C1118     1.0  0.04726  0.64179  0.29821  1.0000
  C   C1119     1.0  0.01402  0.57219  0.28743  1.0000
  C   C1120     1.0  0.02044  0.67166  0.44072  1.0000
  H   H1898     1.0  0.04660  0.53975  0.31401  1.0000
  H   H1899     1.0  0.00916  0.63166  0.40622  1.0000
  H   H1900     1.0  0.04868  0.61969  0.36835  1.0000
  C   C1121     1.0  0.04580  0.56392  0.40591  1.0000
  H   H1901     1.0  0.13906  0.53128  0.28180  1.0000
  H   H1902     1.0  0.05694  0.61260  0.40733  1.0000
  H   H1903     1.0  0.08973  0.69425  0.35729  1.0000
  H   H1904     1.0  0.07098  0.66529  0.46703  1.0000
  C   C1122     1.0  0.11991  0.67485  0.39675  1.0000
  H   H1905     1.0  0.10508  0.69642  0.36991  1.0000
  H   H1906     1.0  0.07643  0.53653  0.40740  1.0000
  H   H1907     1.0  0.06644  0.54421  0.39407  1.0000
  N   N78       1.0  0.05886  0.55486  0.41184  1.0000
  H   H1908     1.0  0.02675  0.56161  0.42377  1.0000
  S   S333      1.0  0.09916  0.57120  0.29861  1.0000
  H   H1909     1.0  0.01728  0.52644  0.29272  1.0000
  H   H1910     1.0  0.02943  0.50071  0.33991  1.0000
  H   H1911     1.0  0.14380  0.52577  0.26526  1.0000
  H   H1912     1.0  0.11002  0.54083  0.29459  1.0000
  H   H1913     1.0  0.09906  0.62763  0.46946  1.0000
  S   S334      1.0  0.09393  0.56533  0.23863  1.0000
  H   H1914     1.0  0.09109  0.51471  0.30059  1.0000
  H   H1915     1.0  0.12504  0.49732  0.29076  1.0000
  H   H1916     1.0  0.02955  0.67066  0.43123  1.0000
  H   H1917     1.0  0.03211  0.62284  0.31919  1.0000
  H   H1918     1.0  0.00928  0.60816  0.41289  1.0000
  H   H1919     1.0  0.04789  0.63594  0.29004  1.0000
  H   H1920     1.0  0.05313  0.52331  0.34584  1.0000
  S   S335      1.0  0.07899  0.50608  0.24573  1.0000
  H   H1921     1.0  0.01617  0.64713  0.39547  1.0000
  H   H1922     1.0  0.07935  0.56120  0.38467  1.0000
  H   H1923     1.0  0.03200  0.64440  0.33107  1.0000
  H   H1924     1.0  0.08669  0.60900  0.46972  1.0000
  C   C1123     1.0  0.11233  0.52960  0.30086  1.0000
  H   H1925     1.0  0.01972  0.49766  0.46076  1.0000
  H   H1926     1.0  0.12829  0.67627  0.34726  1.0000
  C   C1124     1.0  0.04000  0.57311  0.24611  1.0000
  C   C1125     1.0  0.00851  0.53160  0.31368  1.0000
  C   C1126     1.0  0.04988  0.58378  0.24311  1.0000
  H   H1927     1.0  0.06683  0.57297  0.41241  1.0000
  H   H1928     1.0  0.00945  0.54307  0.34253  1.0000
  C   C1127     1.0  0.02742  0.62795  0.43521  1.0000
  C   C1128     1.0  0.00465  0.63049  0.30117  1.0000
  H   H1929     1.0  0.01581  0.60233  0.39622  1.0000
  H   H1930     1.0  0.12959  0.50427  0.30308  1.0000
  H   H1931     1.0  0.02634  0.63669  0.37453  1.0000
  C   C1129     1.0  0.06478  0.73075  0.42784  1.0000
  C   C1130     1.0  0.06150  0.54742  0.25611  1.0000
  H   H1932     1.0  0.04557  0.54639  0.43243  1.0000
  C   C1131     1.0  0.05033  0.51064  0.24575  1.0000
  H   H1933     1.0  0.03309  0.65737  0.30968  1.0000
  C   C1132     1.0  0.12221  0.52316  0.27753  1.0000
  C   C1133     1.0  0.00870  0.51647  0.33825  1.0000
  H   H1934     1.0  0.11299  0.65796  0.35682  1.0000
  C   C1134     1.0  0.05641  0.52946  0.41149  1.0000
  C   C1135     1.0  0.06417  0.51217  0.23752  1.0000
  H   H1935     1.0  0.07415  0.73662  0.46458  1.0000
  H   H1936     1.0  0.03734  0.56854  0.25779  1.0000
  H   H1937     1.0  0.12321  0.52841  0.30297  1.0000
  H   H1938     1.0  0.04779  0.56432  0.39430  1.0000
  H   H1939     1.0  0.03815  0.62447  0.42818  1.0000
  H   H1940     1.0  0.08709  0.65664  0.45581  1.0000
  C   C1136     1.0  0.01882  0.60243  0.40605  1.0000
  H   H1941     1.0  0.01720  0.68325  0.44097  1.0000
  H   H1942     1.0  0.03766  0.63512  0.40043  1.0000
  C   C1137     1.0  0.03106  0.55958  0.41283  1.0000
  H   H1943     1.0  0.04393  0.57519  0.40686  1.0000
  C   C1138     1.0  0.03488  0.55187  0.24242  1.0000
  H   H1944     1.0  0.01987  0.57504  0.34216  1.0000
  H   H1945     1.0  0.09067  0.73981  0.43456  1.0000
  H   H1946     1.0  0.13894  0.67508  0.37957  1.0000
  C   C1139     1.0  0.13123  0.67948  0.35566  1.0000
  C   C1140     1.0  0.00568  0.66654  0.31862  1.0000
  H   H1947     1.0  0.13700  0.69920  0.35643  1.0000
  C   C1141     1.0  0.00619  0.58840  0.30369  1.0000
  H   H1948     1.0  0.03728  0.56406  0.28177  1.0000
  N   N79       1.0  0.01291  0.52961  0.32757  1.0000
  H   H1949     1.0  0.07306  0.72269  0.43324  1.0000
  H   H1950     1.0  0.04975  0.52896  0.42249  1.0000
  H   H1951     1.0  0.02993  0.61384  0.41305  1.0000
  H   H1952     1.0  0.02960  0.65945  0.29275  1.0000
  H   H1953     1.0  0.09857  0.68159  0.38094  1.0000
  C   C1142     1.0  0.01529  0.64213  0.46539  1.0000
  H   H1954     1.0  0.02795  0.62678  0.29669  1.0000
  H   H1955     1.0  0.12012  0.64154  0.36790  1.0000
  H   H1956     1.0  0.06248  0.53989  0.44732  1.0000
  C   C1143     1.0  0.12701  0.67977  0.38080  1.0000
  C   C1144     1.0  0.09752  0.57024  0.28176  1.0000
  H   H1957     1.0  0.01665  0.62301  0.38173  1.0000
  C   C1145     1.0  0.05488  0.55172  0.42799  1.0000
  C   C1146     1.0  0.03470  0.54162  0.31482  1.0000
  C   C1147     1.0  0.10990  0.56424  0.27237  1.0000
  C   C1148     1.0  0.07039  0.56366  0.40710  1.0000
  H   H1958     1.0  0.07140  0.61496  0.48297  1.0000
  H   H1959     1.0  0.10037  0.64880  0.47515  1.0000
  C   C1149     1.0  0.00733  0.66694  0.43926  1.0000
  C   C1150     1.0  0.12172  0.65264  0.36277  1.0000
  C   C1151     1.0  0.13821  0.52304  0.27673  1.0000
  C   C1152     1.0  0.06713  0.54230  0.43559  1.0000
  N   N80       1.0  0.11296  0.51902  0.29233  1.0000
  H   H1960     1.0  0.08212  0.63472  0.46442  1.0000
  H   H1961     1.0  0.06117  0.64571  0.47879  1.0000
  H   H1962     1.0  0.02853  0.62273  0.44634  1.0000
  H   H1963     1.0  0.03586  0.51905  0.32187  1.0000
  H   H1964     1.0  0.01460  0.64052  0.34133  1.0000
  H   H1965     1.0  0.11753  0.53412  0.27198  1.0000
  C   C1153     1.0  0.01415  0.54038  0.44661  1.0000
  H   H1966     1.0  0.04931  0.53042  0.40419  1.0000
  H   H1967     1.0  0.01142  0.51183  0.30652  1.0000
  C   C1154     1.0  0.06019  0.55238  0.24034  1.0000
  H   H1968     1.0  0.07272  0.57722  0.26133  1.0000
  H   H1969     1.0  0.01364  0.56749  0.24445  1.0000
  N   N81       1.0  0.00880  0.65110  0.44042  1.0000
  C   C1155     1.0  0.03192  0.57837  0.29606  1.0000
  H   H1970     1.0  0.12570  0.69160  0.37895  1.0000
  H   H1971     1.0  0.02565  0.64916  0.42121  1.0000
  H   H1972     1.0  0.01924  0.62383  0.43276  1.0000
  H   H1973     1.0  0.09923  0.51215  0.28312  1.0000
  H   H1974     1.0  0.10537  0.68367  0.34854  1.0000
  C   C1156     1.0  0.00929  0.53188  0.42829  1.0000
  C   C1157     1.0  0.07477  0.56978  0.39082  1.0000
  H   H1975     1.0  0.04177  0.59959  0.40544  1.0000
  H   H1976     1.0  0.06284  0.62911  0.40025  1.0000
  N   N82       1.0  0.12114  0.67607  0.37010  1.0000
  H   H1977     1.0  0.05631  0.60555  0.38139  1.0000
  H   H1978     1.0  0.05104  0.56194  0.43181  1.0000
  C   C1158     1.0  0.08829  0.65168  0.47854  1.0000
  H   H1979     1.0  0.02070  0.59117  0.41228  1.0000
  N   N83       1.0  0.04560  0.56150  0.23771  1.0000
  H   H1980     1.0  0.10704  0.52172  0.32423  1.0000
  H   H1981     1.0  0.06743  0.61676  0.38913  1.0000
  C   C1159     1.0  0.03986  0.60076  0.37485  1.0000
  C   C1160     1.0  0.12024  0.50400  0.29898  1.0000
  Fe  Fe169     1.0  0.00700  0.59174  0.46000  1.0000
  C   C1161     1.0  0.07589  0.73310  0.45448  1.0000
  C   C1162     1.0  0.02386  0.64445  0.43295  1.0000
  H   H1982     1.0  0.08747  0.67154  0.46217  1.0000
  H   H1983     1.0  0.07593  0.54798  0.43392  1.0000
  C   C1163     1.0  0.13207  0.69542  0.34984  1.0000
  H   H1984     1.0  0.08709  0.54178  0.29163  1.0000
  C   C1164     1.0  0.01756  0.53020  0.43827  1.0000
  H   H1985     1.0  0.06163  0.57904  0.23989  1.0000
  S   S336      1.0  0.02501  0.53874  0.45836  1.0000
  C   C1165     1.0  0.01902  0.50177  0.33693  1.0000
  C   C1166     1.0  0.10883  0.56253  0.25922  1.0000
  C   C1167     1.0  0.04442  0.62887  0.39229  1.0000
  H   H1986     1.0  0.03014  0.60585  0.37015  1.0000
  C   C1168     1.0  0.00468  0.54260  0.33381  1.0000
  C   C1169     1.0  0.00542  0.65377  0.31285  1.0000
  H   H1987     1.0  0.07819  0.53297  0.28444  1.0000
  S   S337      1.0  0.14576  0.50197  0.24796  1.0000
  H   H1988     1.0  0.09154  0.52563  0.31623  1.0000
  H   H1989     1.0  0.12157  0.66300  0.40030  1.0000
  H   H1990     1.0  0.06450  0.72652  0.41875  1.0000
  H   H1991     1.0  0.12501  0.67846  0.40338  1.0000
  H   H1992     1.0  0.10816  0.67982  0.39923  1.0000
  H   H1993     1.0  0.05528  0.64877  0.29349  1.0000
  Fe  Fe170     1.0  0.00904  0.51071  0.38246  1.0000
  H   H1994     1.0  0.01179  0.65132  0.47074  1.0000
  S   S338      1.0  0.00992  0.56284  0.27699  1.0000
  H   H1995     1.0  0.01380  0.49322  0.34471  1.0000
  C   C1170     1.0  0.08300  0.66172  0.46518  1.0000
  H   H1996     1.0  0.02293  0.56637  0.40649  1.0000
  C   C1171     1.0  0.03843  0.51478  0.23924  1.0000
  C   C1172     1.0  0.00487  0.64337  0.45583  1.0000
  C   C1173     1.0  0.01700  0.56863  0.35323  1.0000
  C   C1174     1.0  0.08905  0.53415  0.28470  1.0000
  H   H1997     1.0  0.01218  0.52427  0.42158  1.0000
  H   H1998     1.0  0.04856  0.58740  0.25306  1.0000
  N   N84       1.0  0.01976  0.64333  0.30913  1.0000
  H   H1999     1.0  0.00636  0.58298  0.38371  1.0000
  H   H2000     1.0  0.02070  0.57252  0.36064  1.0000
  S   S339      1.0  0.10564  0.52446  0.24895  1.0000
  H   H2001     1.0  0.09779  0.53987  0.31782  1.0000
  H   H2002     1.0  0.01315  0.55033  0.24270  1.0000
  H   H2003     1.0  0.06623  0.72943  0.45462  1.0000
  H   H2004     1.0  0.01077  0.67463  0.30996  1.0000
  Fe  Fe171     1.0  0.02209  0.57604  0.48438  1.0000
  H   H2005     1.0  0.01135  0.66332  0.32750  1.0000
  H   H2006     1.0  0.03287  0.54763  0.25421  1.0000
  H   H2007     1.0  0.11292  0.73137  0.41316  1.0000
  C   C1175     1.0  0.01698  0.52082  0.30411  1.0000
  C   C1176     1.0  0.01198  0.63798  0.39518  1.0000
  C   C1177     1.0  0.08708  0.62922  0.47384  1.0000
  C   C1178     1.0  0.02515  0.63638  0.33453  1.0000
  H   H2008     1.0  0.06128  0.55656  0.26053  1.0000
  C   C1179     1.0  0.03199  0.65122  0.30249  1.0000
  H   H2009     1.0  0.08502  0.72346  0.45489  1.0000
  H   H2010     1.0  0.02439  0.66579  0.45056  1.0000
  H   H2011     1.0  0.02852  0.51651  0.30471  1.0000
  H   H2012     1.0  0.02772  0.51353  0.24560  1.0000
  H   H2013     1.0  0.02681  0.64135  0.45962  1.0000
  H   H2014     1.0  0.14432  0.51229  0.28131  1.0000
  H   H2015     1.0  0.04882  0.50618  0.25715  1.0000
  C   C1180     1.0  0.01054  0.50013  0.46982  1.0000
  C   C1181     1.0  0.01974  0.55868  0.23885  1.0000
  N   N85       1.0  0.08216  0.63836  0.48481  1.0000
  H   H2016     1.0  0.00561  0.55276  0.32559  1.0000
  H   H2017     1.0  0.00846  0.50344  0.44194  1.0000
  H   H2018     1.0  0.02934  0.57980  0.24395  1.0000
  H   H2019     1.0  0.01498  0.49605  0.47966  1.0000
  S   S340      1.0  0.10535  0.74008  0.46538  1.0000
  S   S341      1.0  0.00417  0.57192  0.47725  1.0000
  H   H2020     1.0  0.00350  0.63237  0.45670  1.0000
  C   C1182     1.0  0.04628  0.67100  0.66240  1.0000
  C   C1183     1.0  0.03978  0.62567  0.67169  1.0000
  H   H2021     1.0  0.06077  0.66436  0.49162  1.0000
  C   C1184     1.0  0.01381  0.69516  0.60759  1.0000
  Fe  Fe172     1.0  0.03558  0.50316  0.65080  1.0000
  C   C1185     1.0  0.01009  0.58640  0.66541  1.0000
  H   H2022     1.0  0.02968  0.61475  0.70541  1.0000
  H   H2023     1.0  0.06244  0.52726  0.56682  1.0000
  C   C1186     1.0  0.01633  0.56117  0.66514  1.0000
  H   H2024     1.0  0.14778  0.70457  0.57037  1.0000
  H   H2025     1.0  0.10089  0.70391  0.56954  1.0000
  S   S342      1.0  0.09841  0.55391  0.70432  1.0000
  S   S343      1.0  0.07647  0.58594  0.69831  1.0000
  Fe  Fe173     1.0  0.07463  0.56365  0.71050  1.0000
  S   S344      1.0  0.05629  0.55462  0.70973  1.0000
  Fe  Fe174     1.0  0.10042  0.57660  0.69336  1.0000
  S   S345      1.0  0.11065  0.58242  0.66985  1.0000
  Fe  Fe175     1.0  0.07435  0.66602  0.61080  1.0000
  S   S346      1.0  0.09424  0.64813  0.61103  1.0000
  S   S347      1.0  0.05327  0.65911  0.61508  1.0000
  Fe  Fe176     1.0  0.09164  0.68929  0.60447  1.0000
  S   S348      1.0  0.11283  0.67313  0.60472  1.0000
  S   S349      1.0  0.08936  0.71343  0.59728  1.0000
  Fe  Fe177     1.0  0.10472  0.66291  0.59191  1.0000
  S   S350      1.0  0.11788  0.65774  0.57088  1.0000
  Fe  Fe178     1.0  0.10021  0.65989  0.62391  1.0000
  S   S351      1.0  0.10670  0.64926  0.64511  1.0000
  S   S352      1.0  0.08430  0.67978  0.59053  1.0000
  S   S353      1.0  0.07951  0.67706  0.62485  1.0000
  H   H2026     1.0  0.07901  0.63452  0.66671  1.0000
  H   H2027     1.0  0.15431  0.72724  0.56058  1.0000
  Fe  Fe179     1.0  0.05115  0.52556  0.65014  1.0000
  S   S354      1.0  0.03590  0.54346  0.63889  1.0000
  S   S355      1.0  0.07090  0.52797  0.65562  1.0000
  Fe  Fe180     1.0  0.01827  0.53282  0.65398  1.0000
  H   H2028     1.0  0.05436  0.65220  0.57654  1.0000
  Fe  Fe181     1.0  0.03741  0.52828  0.62554  1.0000
  S   S356      1.0  0.03920  0.53822  0.60231  1.0000
  H   H2029     1.0  0.02343  0.70474  0.56617  1.0000
  H   H2030     1.0  0.03495  0.58474  0.72481  1.0000
  Fe  Fe182     1.0  0.07080  0.62847  0.54324  1.0000
  S   S357      1.0  0.05757  0.62265  0.56553  1.0000
  S   S358      1.0  0.08035  0.64798  0.53358  1.0000
  Fe  Fe183     1.0  0.06788  0.60316  0.53416  1.0000
  S   S359      1.0  0.05443  0.59487  0.55545  1.0000
  S   S360      1.0  0.07378  0.59345  0.51501  1.0000
  Fe  Fe184     1.0  0.04293  0.61772  0.55481  1.0000
  Fe  Fe185     1.0  0.07006  0.60018  0.56470  1.0000
  S   S361      1.0  0.07695  0.58471  0.58408  1.0000
  S   S362      1.0  0.05481  0.62573  0.53250  1.0000
  S   S363      1.0  0.08487  0.60635  0.54329  1.0000
  H   H2031     1.0  0.02792  0.58002  0.61814  1.0000
  H   H2032     1.0  0.02014  0.60902  0.63179  1.0000
  C   C1187     1.0  0.04891  0.63244  0.72253  1.0000
  S   S364      1.0  0.07613  0.56735  0.73106  1.0000
  C   C1188     1.0  0.04849  0.58361  0.52488  1.0000
  H   H2033     1.0  0.11358  0.68910  0.56326  1.0000
  H   H2034     1.0  0.00491  0.59769  0.73365  1.0000
  C   C1189     1.0  0.04334  0.66495  0.55331  1.0000
  H   H2035     1.0  0.02866  0.57579  0.53246  1.0000
  H   H2036     1.0  0.04878  0.58436  0.53532  1.0000
  C   C1190     1.0  0.06571  0.64211  0.48859  1.0000
  H   H2037     1.0  0.05966  0.55934  0.56810  1.0000
  C   C1191     1.0  0.04893  0.55154  0.59895  1.0000
  C   C1192     1.0  0.06288  0.54785  0.60177  1.0000
  C   C1193     1.0  0.07133  0.55821  0.59765  1.0000
  C   C1194     1.0  0.06568  0.57232  0.59107  1.0000
  C   C1195     1.0  0.05130  0.57623  0.58934  1.0000
  C   C1196     1.0  0.04299  0.56580  0.59306  1.0000
  H   H2038     1.0  0.06737  0.53686  0.60660  1.0000
  H   H2039     1.0  0.08237  0.55521  0.59921  1.0000
  H   H2040     1.0  0.04661  0.58725  0.58497  1.0000
  H   H2041     1.0  0.03207  0.56873  0.59120  1.0000
  C   C1197     1.0  0.10701  0.65522  0.56086  1.0000
  C   C1198     1.0  0.09557  0.64806  0.56748  1.0000
  C   C1199     1.0  0.08751  0.64550  0.55915  1.0000
  C   C1200     1.0  0.09047  0.65066  0.54427  1.0000
  C   C1201     1.0  0.10158  0.65822  0.53775  1.0000
  C   C1202     1.0  0.11000  0.66025  0.54598  1.0000
  H   H2042     1.0  0.09326  0.64409  0.57898  1.0000
  H   H2043     1.0  0.07901  0.63960  0.56427  1.0000
  H   H2044     1.0  0.10391  0.66224  0.52627  1.0000
  H   H2045     1.0  0.11881  0.66579  0.54082  1.0000
  C   C1203     1.0  0.03812  0.67315  0.61282  1.0000
  C   C1204     1.0  0.03892  0.68750  0.61031  1.0000
  C   C1205     1.0  0.02511  0.66981  0.61306  1.0000
  H   H2046     1.0  0.02444  0.65871  0.61512  1.0000
  H   H2047     1.0  0.02427  0.55119  0.66520  1.0000
  H   H2048     1.0  0.13211  0.67855  0.57712  1.0000
  H   H2049     1.0  0.04728  0.49832  0.69450  1.0000
  H   H2050     1.0  0.01881  0.62119  0.59596  1.0000
  H   H2051     1.0  0.12956  0.70599  0.53528  1.0000
  N   N86       1.0  0.13801  0.70310  0.55401  1.0000
  C   C1206     1.0  0.06039  0.54635  0.69526  1.0000
  C   C1207     1.0  0.04907  0.54466  0.69032  1.0000
  C   C1208     1.0  0.05226  0.53866  0.67834  1.0000
  C   C1209     1.0  0.06673  0.53438  0.67127  1.0000
  C   C1210     1.0  0.07803  0.53565  0.67647  1.0000
  C   C1211     1.0  0.07486  0.54164  0.68842  1.0000
  H   H2052     1.0  0.03785  0.54829  0.69555  1.0000
  H   H2053     1.0  0.04354  0.53753  0.67445  1.0000
  H   H2054     1.0  0.08927  0.53222  0.67113  1.0000
  H   H2055     1.0  0.08365  0.54263  0.69227  1.0000
  C   C1212     1.0  0.10850  0.63054  0.65158  1.0000
  C   C1213     1.0  0.11023  0.62140  0.64253  1.0000
  C   C1214     1.0  0.11101  0.60661  0.64818  1.0000
  C   C1215     1.0  0.10980  0.60094  0.66293  1.0000
  C   C1216     1.0  0.10800  0.61008  0.67197  1.0000
  C   C1217     1.0  0.10767  0.62477  0.66626  1.0000
  H   H2056     1.0  0.11114  0.62570  0.63116  1.0000
  H   H2057     1.0  0.11257  0.59957  0.64111  1.0000
  H   H2058     1.0  0.10717  0.60578  0.68334  1.0000
  H   H2059     1.0  0.10648  0.63175  0.67329  1.0000
  H   H2060     1.0  0.01093  0.61243  0.49404  1.0000
  H   H2061     1.0  0.03703  0.61693  0.61022  1.0000
  C   C1218     1.0  0.02068  0.61043  0.60336  1.0000
  C   C1219     1.0  0.10461  0.72091  0.59426  1.0000
  C   C1220     1.0  0.11684  0.71310  0.59981  1.0000
  C   C1221     1.0  0.12878  0.71938  0.59732  1.0000
  H   H2062     1.0  0.01392  0.69975  0.55634  1.0000
  H   H2063     1.0  0.01637  0.63470  0.61425  1.0000
  H   H2064     1.0  0.11701  0.70232  0.60625  1.0000
  C   C1222     1.0  0.02669  0.69852  0.60781  1.0000
  C   C1223     1.0  0.02045  0.57351  0.66515  1.0000
  S   S365      1.0  0.01897  0.62181  0.56390  1.0000
  H   H2065     1.0  0.03162  0.57297  0.66512  1.0000
  C   C1224     1.0  0.11102  0.70095  0.56151  1.0000
  H   H2066     1.0  0.05953  0.50530  0.67870  1.0000
  H   H2067     1.0  0.00411  0.58993  0.61373  1.0000
  C   C1225     1.0  0.06194  0.55619  0.55773  1.0000
  H   H2068     1.0  0.01881  0.56192  0.72676  1.0000
  H   H2069     1.0  0.00502  0.52263  0.71671  1.0000
  Fe  Fe186     1.0  0.08042  0.58868  0.71830  1.0000
  H   H2070     1.0  0.04421  0.60784  0.59590  1.0000
  H   H2071     1.0  0.06402  0.56596  0.54958  1.0000
  C   C1226     1.0  0.08366  0.51804  0.57121  1.0000
  H   H2072     1.0  0.06618  0.63804  0.69159  1.0000
  H   H2073     1.0  0.07174  0.49842  0.65828  1.0000
  H   H2074     1.0  0.07500  0.56141  0.52931  1.0000
  C   C1227     1.0  0.12866  0.73344  0.58917  1.0000
  S   S366      1.0  0.05454  0.51130  0.63517  1.0000
  C   C1228     1.0  0.05438  0.61808  0.72151  1.0000
  H   H2075     1.0  0.01893  0.63573  0.49825  1.0000
  C   C1229     1.0  0.08201  0.55065  0.52892  1.0000
  H   H2076     1.0  0.03860  0.61491  0.67849  1.0000
  H   H2077     1.0  0.19874  0.73382  0.52104  1.0000
  H   H2078     1.0  0.06137  0.63242  0.49485  1.0000
  H   H2079     1.0  0.15033  0.68058  0.57559  1.0000
  S   S367      1.0  0.01558  0.60188  0.66465  1.0000
  S   S368      1.0  0.03340  0.51619  0.66656  1.0000
  C   C1230     1.0  0.14692  0.72479  0.55538  1.0000
  H   H2080     1.0  0.03925  0.56379  0.55630  1.0000
  C   C1231     1.0  0.07066  0.64455  0.66793  1.0000
  H   H2081     1.0  0.08471  0.63759  0.50595  1.0000
  C   C1232     1.0  0.07110  0.53129  0.56870  1.0000
  H   H2082     1.0  0.09823  0.54032  0.55541  1.0000
  C   C1233     1.0  0.14318  0.68712  0.55508  1.0000
  H   H2083     1.0  0.07955  0.54771  0.52004  1.0000
  H   H2084     1.0  0.08692  0.54623  0.57100  1.0000
  H   H2085     1.0  0.15010  0.72945  0.54379  1.0000
  H   H2086     1.0  0.10646  0.61878  0.50714  1.0000
  H   H2087     1.0  0.04301  0.67456  0.65194  1.0000
  H   H2088     1.0  0.02947  0.63326  0.67510  1.0000
  C   C1234     1.0  0.02902  0.57635  0.73184  1.0000
  H   H2089     1.0  0.21100  0.73837  0.52835  1.0000
  H   H2090     1.0  0.06213  0.69349  0.56984  1.0000
  H   H2091     1.0  0.01455  0.67994  0.65766  1.0000
  H   H2092     1.0  0.02643  0.64415  0.53914  1.0000
  H   H2093     1.0  0.08145  0.57090  0.55850  1.0000
  H   H2094     1.0  0.02732  0.70964  0.60575  1.0000
  N   N87       1.0  0.07500  0.54382  0.55680  1.0000
  C   C1235     1.0  0.15141  0.70885  0.52741  1.0000
  Fe  Fe187     1.0  0.10025  0.55919  0.72413  1.0000
  C   C1236     1.0  0.08783  0.54767  0.55930  1.0000
  H   H2095     1.0  0.05368  0.65664  0.55219  1.0000
  C   C1237     1.0  0.04308  0.67500  0.53846  1.0000
  S   S369      1.0  0.02077  0.57442  0.50753  1.0000
  S   S370      1.0  0.01860  0.51887  0.63971  1.0000
  H   H2096     1.0  0.00327  0.51029  0.69975  1.0000
  H   H2097     1.0  0.04124  0.65449  0.68165  1.0000
  C   C1238     1.0  0.03629  0.57823  0.50966  1.0000
  H   H2098     1.0  0.04790  0.64539  0.64698  1.0000
  C   C1239     1.0  0.14325  0.67783  0.57032  1.0000
  H   H2099     1.0  0.01517  0.57277  0.63307  1.0000
  H   H2100     1.0  0.03924  0.59778  0.61361  1.0000
  H   H2101     1.0  0.00757  0.57045  0.69924  1.0000
  C   C1240     1.0  0.08749  0.63044  0.49832  1.0000
  C   C1241     1.0  0.03655  0.64050  0.71717  1.0000
  S   S371      1.0  0.10478  0.58103  0.71254  1.0000
  C   C1242     1.0  0.01090  0.64000  0.55915  1.0000
  H   H2102     1.0  0.09005  0.56667  0.54116  1.0000
  C   C1243     1.0  0.03475  0.61967  0.71042  1.0000
  H   H2103     1.0  0.03235  0.68253  0.53826  1.0000
  H   H2104     1.0  0.10842  0.70588  0.55085  1.0000
  H   H2105     1.0  0.08817  0.51302  0.56182  1.0000
  H   H2106     1.0  0.05093  0.62919  0.68557  1.0000
  H   H2107     1.0  0.06781  0.62194  0.64863  1.0000
  H   H2108     1.0  0.04896  0.55051  0.54611  1.0000
  H   H2109     1.0  0.08106  0.63301  0.64383  1.0000
  H   H2110     1.0  0.06292  0.65734  0.68460  1.0000
  C   C1244     1.0  0.05419  0.68641  0.57417  1.0000
  H   H2111     1.0  0.09251  0.52056  0.57430  1.0000
  C   C1245     1.0  0.04418  0.65559  0.66981  1.0000
  C   C1246     1.0  0.04728  0.61173  0.71544  1.0000
  H   H2112     1.0  0.12378  0.70260  0.57514  1.0000
  H   H2113     1.0  0.04326  0.54559  0.56557  1.0000
  C   C1247     1.0  0.05306  0.62945  0.67403  1.0000
  H   H2114     1.0  0.07042  0.53413  0.54193  1.0000
  H   H2115     1.0  0.05761  0.67215  0.66052  1.0000
  H   H2116     1.0  0.03288  0.69904  0.54968  1.0000
  H   H2117     1.0  0.03399  0.65498  0.66740  1.0000
  C   C1248     1.0  0.14866  0.70833  0.55860  1.0000
  H   H2118     1.0  0.04316  0.66381  0.58777  1.0000
  H   H2119     1.0  0.05143  0.60068  0.71461  1.0000
  H   H2120     1.0  0.08883  0.53044  0.54227  1.0000
  H   H2121     1.0  0.13659  0.68307  0.55027  1.0000
  H   H2122     1.0  0.09362  0.55138  0.52600  1.0000
  H   H2123     1.0  0.07929  0.50979  0.58028  1.0000
  H   H2124     1.0  0.03960  0.67845  0.66945  1.0000
  H   H2125     1.0  0.07550  0.65313  0.65971  1.0000
  H   H2126     1.0  0.13574  0.73041  0.55969  1.0000
  C   C1249     1.0  0.01045  0.66337  0.54291  1.0000
  N   N88       1.0  0.04172  0.67175  0.56554  1.0000
  H   H2127     1.0  0.16012  0.70371  0.55366  1.0000
  C   C1250     1.0  0.13694  0.71034  0.53878  1.0000
  H   H2128     1.0  0.01374  0.63331  0.63312  1.0000
  C   C1251     1.0  0.01686  0.64868  0.54634  1.0000
  C   C1252     1.0  0.01305  0.68079  0.61035  1.0000
  C   C1253     1.0  0.03601  0.60804  0.60617  1.0000
  H   H2129     1.0  0.06647  0.53469  0.57907  1.0000
  H   H2130     1.0  0.07005  0.63444  0.63186  1.0000
  C   C1254     1.0  0.02942  0.63412  0.71112  1.0000
  H   H2131     1.0  0.15957  0.71341  0.52937  1.0000
  C   C1255     1.0  0.12319  0.70663  0.56369  1.0000
  H   H2132     1.0  0.13213  0.55724  0.73577  1.0000
  H   H2133     1.0  0.06162  0.65502  0.64326  1.0000
  N   N89       1.0  0.05656  0.64362  0.66533  1.0000
  C   C1256     1.0  0.05406  0.67926  0.56237  1.0000
  C   C1257     1.0  0.04346  0.65964  0.57850  1.0000
  C   C1258     1.0  0.02681  0.68143  0.56871  1.0000
  C   C1259     1.0  0.03177  0.65050  0.58396  1.0000
  C   C1260     1.0  0.02450  0.69699  0.55959  1.0000
  H   H2134     1.0  0.03449  0.65923  0.55547  1.0000
  H   H2135     1.0  0.01835  0.67648  0.56772  1.0000
  H   H2136     1.0  0.02394  0.68245  0.58006  1.0000
  H   H2137     1.0  0.03173  0.64453  0.57614  1.0000
  H   H2138     1.0  0.03433  0.64231  0.59359  1.0000
  H   H2139     1.0  0.02068  0.65703  0.58726  1.0000
  C   C1261     1.0  0.02086  0.57291  0.72249  1.0000
  H   H2140     1.0  0.05791  0.67828  0.58333  1.0000
  C   C1262     1.0  0.08994  0.56319  0.55272  1.0000
  H   H2141     1.0  0.05208  0.68079  0.53453  1.0000
  H   H2142     1.0  0.03639  0.62418  0.49584  1.0000
  C   C1263     1.0  0.10449  0.73496  0.58606  1.0000
  C   C1264     1.0  0.05840  0.64479  0.64959  1.0000
  H   H2143     1.0  0.10055  0.56397  0.55406  1.0000
  N   N90       1.0  0.07430  0.57625  0.64544  1.0000
  C   C1265     1.0  0.08738  0.56404  0.64312  1.0000
  C   C1266     1.0  0.06145  0.57203  0.64350  1.0000
  C   C1267     1.0  0.07157  0.57766  0.66070  1.0000
  C   C1268     1.0  0.07768  0.58984  0.63497  1.0000
  C   C1269     1.0  0.10135  0.56508  0.64667  1.0000
  C   C1270     1.0  0.06349  0.56813  0.62905  1.0000
  C   C1271     1.0  0.05816  0.58897  0.66581  1.0000
  C   C1272     1.0  0.06454  0.60163  0.63063  1.0000
  H   H2144     1.0  0.08476  0.55358  0.64951  1.0000
  H   H2145     1.0  0.09051  0.56302  0.63176  1.0000
  H   H2146     1.0  0.05137  0.58052  0.64472  1.0000
  H   H2147     1.0  0.05877  0.56256  0.65207  1.0000
  H   H2148     1.0  0.07043  0.56718  0.66821  1.0000
  H   H2149     1.0  0.08097  0.58052  0.66259  1.0000
  H   H2150     1.0  0.08410  0.59480  0.63909  1.0000
  H   H2151     1.0  0.08473  0.58723  0.62470  1.0000
  H   H2152     1.0  0.10047  0.56242  0.65843  1.0000
  H   H2153     1.0  0.11072  0.55703  0.64227  1.0000
  H   H2154     1.0  0.10402  0.57579  0.64197  1.0000
  H   H2155     1.0  0.06852  0.57578  0.61984  1.0000
  H   H2156     1.0  0.07022  0.55708  0.62901  1.0000
  H   H2157     1.0  0.05272  0.56820  0.62741  1.0000
  H   H2158     1.0  0.04785  0.58740  0.66466  1.0000
  H   H2159     1.0  0.05967  0.59996  0.66037  1.0000
  H   H2160     1.0  0.05695  0.58803  0.67743  1.0000
  H   H2161     1.0  0.06761  0.61220  0.62743  1.0000
  H   H2162     1.0  0.05447  0.60252  0.63913  1.0000
  H   H2163     1.0  0.06229  0.60032  0.62083  1.0000
  H   H2164     1.0  0.00414  0.66308  0.64105  1.0000
  H   H2165     1.0  0.06260  0.62036  0.67230  1.0000
  H   H2166     1.0  0.05431  0.68771  0.55242  1.0000
  H   H2167     1.0  0.04899  0.69011  0.61012  1.0000
  C   C1273     1.0  0.00825  0.59985  0.54610  1.0000
  H   H2168     1.0  0.02004  0.69377  0.64288  1.0000
  H   H2169     1.0  0.08105  0.64678  0.68349  1.0000
  C   C1274     1.0  0.10405  0.62415  0.49642  1.0000
  H   H2170     1.0  0.01530  0.67933  0.63947  1.0000
  H   H2171     1.0  0.04470  0.66833  0.53065  1.0000
  H   H2172     1.0  0.04104  0.62502  0.66049  1.0000
  H   H2173     1.0  0.13811  0.71335  0.60185  1.0000
  H   H2174     1.0  0.06477  0.67156  0.56033  1.0000
  S   S372      1.0  0.00599  0.60836  0.70218  1.0000
  H   H2175     1.0  0.14918  0.71490  0.51675  1.0000
  H   H2176     1.0  0.14754  0.66637  0.56969  1.0000
  C   C1275     1.0  0.05947  0.58736  0.51303  1.0000
  C   C1276     1.0  0.04731  0.58189  0.49778  1.0000
  H   H2177     1.0  0.04345  0.69313  0.57808  1.0000
  H   H2178     1.0  0.02141  0.60269  0.59686  1.0000
  C   C1277     1.0  0.03709  0.57876  0.52325  1.0000
  C   C1278     1.0  0.07001  0.63272  0.64334  1.0000
  C   C1279     1.0  0.06991  0.64681  0.68282  1.0000
  H   H2179     1.0  0.13196  0.72197  0.53794  1.0000
  H   H2180     1.0  0.15456  0.68449  0.54883  1.0000
  H   H2181     1.0  0.11910  0.71844  0.56239  1.0000
  H   H2182     1.0  0.02829  0.61224  0.52328  1.0000
  H   H2183     1.0  0.15625  0.69753  0.52661  1.0000
  C   C1280     1.0  0.07885  0.53920  0.54280  1.0000
  C   C1281     1.0  0.05902  0.58624  0.49951  1.0000
  C   C1282     1.0  0.04767  0.55362  0.55630  1.0000
  H   H2184     1.0  0.03253  0.65170  0.71770  1.0000
  C   C1283     1.0  0.01899  0.58282  0.62728  1.0000
  H   H2185     1.0  0.02482  0.60626  0.51003  1.0000
  H   H2186     1.0  0.00685  0.52746  0.69016  1.0000
  C   C1284     1.0  0.00987  0.61482  0.62826  1.0000
  H   H2187     1.0  0.02315  0.58595  0.63491  1.0000
  H   H2188     1.0  0.01073  0.54489  0.71003  1.0000
  H   H2189     1.0  0.11048  0.63257  0.49171  1.0000
  H   H2190     1.0  0.08661  0.49529  0.67490  1.0000
  C   C1285     1.0  0.00615  0.59412  0.62203  1.0000
  S   S373      1.0  0.01444  0.64457  0.70378  1.0000
  H   H2191     1.0  0.01514  0.67018  0.53314  1.0000
  H   H2192     1.0  0.02013  0.59908  0.54390  1.0000
  S   S374      1.0  0.07014  0.60817  0.72774  1.0000
  C   C1286     1.0  0.05873  0.49639  0.68826  1.0000
  S   S375      1.0  0.12247  0.73691  0.49659  1.0000
  H   H2193     1.0  0.00657  0.59547  0.52683  1.0000
  C   C1287     1.0  0.01245  0.68633  0.64711  1.0000
  C   C1288     1.0  0.00959  0.63103  0.62490  1.0000
  H   H2194     1.0  0.06233  0.65071  0.50781  1.0000
  N   N91       1.0  0.00813  0.60938  0.61629  1.0000
  H   H2195     1.0  0.00526  0.54895  0.69372  1.0000
  H   H2196     1.0  0.08191  0.62144  0.50411  1.0000
  H   H2197     1.0  0.10791  0.61587  0.48993  1.0000
  N   N92       1.0  0.00553  0.61833  0.52223  1.0000
  H   H2198     1.0  0.06570  0.49684  0.69509  1.0000
  H   H2199     1.0  0.06757  0.58896  0.49031  1.0000
  C   C1289     1.0  0.02153  0.61558  0.51515  1.0000
  C   C1290     1.0  0.02712  0.62835  0.50413  1.0000
  H   H2200     1.0  0.05439  0.63744  0.72718  1.0000
  H   H2201     1.0  0.04666  0.65478  0.50045  1.0000
  H   H2202     1.0  0.01039  0.58064  0.72161  1.0000
  C   C1291     1.0  0.05868  0.65365  0.49762  1.0000
  H   H2203     1.0  0.03091  0.63460  0.50946  1.0000
  H   H2204     1.0  0.11936  0.59672  0.72685  1.0000
  H   H2205     1.0  0.04678  0.58144  0.48725  1.0000
  H   H2206     1.0  0.03786  0.56677  0.73424  1.0000
  H   H2207     1.0  0.02766  0.57330  0.71146  1.0000
  H   H2208     1.0  0.01987  0.60335  0.73468  1.0000
  H   H2209     1.0  0.09504  0.74108  0.58180  1.0000
  S   S376      1.0  0.14386  0.74089  0.58648  1.0000
  C   C1292     1.0  0.11651  0.74119  0.58344  1.0000
  H   H2210     1.0  0.00633  0.58899  0.55183  1.0000
  H   H2211     1.0  0.08915  0.60715  0.48722  1.0000
  H   H2212     1.0  0.00969  0.62745  0.53752  1.0000
  H   H2213     1.0  0.00472  0.64028  0.52248  1.0000
  Fe  Fe188     1.0  0.41454  0.52553  0.94389  1.0000
  S   S377      1.0  0.41156  0.52909  0.92163  1.0000
  C   C1293     1.0  0.09983  0.50058  0.86105  1.0000
  C   C1294     1.0  0.13829  0.54321  0.76958  1.0000
  H   H2214     1.0  0.43756  0.64884  0.94012  1.0000
  H   H2215     1.0  0.12811  0.58327  0.76239  1.0000
  H   H2216     1.0  0.02253  0.58121  0.76602  1.0000
  Fe  Fe189     1.0  0.39154  0.66011  0.95012  1.0000
  S   S378      1.0  0.39742  0.64147  0.93927  1.0000
  S   S379      1.0  0.38956  0.68282  0.93639  1.0000
  Fe  Fe190     1.0  0.38068  0.63203  0.95733  1.0000
  S   S380      1.0  0.36955  0.61397  0.95955  1.0000
  Fe  Fe191     1.0  0.41297  0.63183  0.95382  1.0000
  S   S381      1.0  0.43531  0.61974  0.94516  1.0000
  S   S382      1.0  0.37324  0.65152  0.96710  1.0000
  S   S383      1.0  0.40838  0.65084  0.96351  1.0000
  Fe  Fe192     1.0  0.29657  0.56088  0.94330  1.0000
  S   S384      1.0  0.31283  0.57118  0.92537  1.0000
  S   S385      1.0  0.27588  0.55497  0.94224  1.0000
  Fe  Fe193     1.0  0.31598  0.55477  0.96477  1.0000
  S   S386      1.0  0.33403  0.56357  0.94825  1.0000
  H   H2217     1.0  0.41692  0.56807  0.90395  1.0000
  Fe  Fe194     1.0  0.31602  0.58159  0.94139  1.0000
  S   S387      1.0  0.32007  0.60420  0.93579  1.0000
  Fe  Fe195     1.0  0.32955  0.55251  0.93380  1.0000
  S   S388      1.0  0.34599  0.54107  0.91751  1.0000
  S   S389      1.0  0.29790  0.57328  0.95867  1.0000
  S   S390      1.0  0.31336  0.54167  0.95099  1.0000
  C   C1295     1.0  0.36908  0.56769  0.94988  1.0000
  Fe  Fe196     1.0  0.43364  0.52837  0.96153  1.0000
  H   H2218     1.0  0.12597  0.57168  0.77958  1.0000
  H   H2219     1.0  0.21137  0.56111  0.90589  1.0000
  H   H2220     1.0  0.04730  0.58633  0.75798  1.0000
  C   C1296     1.0  0.14067  0.55020  0.84198  1.0000
  H   H2221     1.0  0.29430  0.52004  0.92502  1.0000
  C   C1297     1.0  0.30170  0.51441  0.89858  1.0000
  H   H2222     1.0  0.45347  0.69732  0.91494  1.0000
  C   C1298     1.0  0.45490  0.68585  0.92069  1.0000
  Fe  Fe197     1.0  0.43755  0.74110  0.91162  1.0000
  H   H2223     1.0  0.13359  0.56099  0.84245  1.0000
  C   C1299     1.0  0.18357  0.55757  0.84590  1.0000
  Fe  Fe198     1.0  0.15253  0.52194  0.79699  1.0000
  S   S391      1.0  0.13944  0.51994  0.81963  1.0000
  H   H2224     1.0  0.07650  0.59081  0.75636  1.0000
  C   C1300     1.0  0.30991  0.53420  0.91600  1.0000
  H   H2225     1.0  0.00819  0.60337  0.76132  1.0000
  C   C1301     1.0  0.44215  0.65860  0.93695  1.0000
  Fe  Fe199     1.0  0.16046  0.50642  0.82568  1.0000
  S   S392      1.0  0.16589  0.50822  0.84573  1.0000
  H   H2226     1.0  0.08911  0.56476  0.75565  1.0000
  Fe  Fe200     1.0  0.24520  0.52905  0.88880  1.0000
  S   S393      1.0  0.22274  0.53880  0.88415  1.0000
  S   S394      1.0  0.25964  0.54345  0.88925  1.0000
  S   S395      1.0  0.41960  0.51950  0.98249  1.0000
  S   S396      1.0  0.21923  0.50583  0.88831  1.0000
  S   S397      1.0  0.39700  0.62118  0.97103  1.0000
  Fe  Fe201     1.0  0.22788  0.52268  0.87043  1.0000
  S   S398      1.0  0.22208  0.52629  0.84896  1.0000
  Fe  Fe202     1.0  0.21591  0.52100  0.90226  1.0000
  S   S399      1.0  0.19495  0.52393  0.91878  1.0000
  S   S400      1.0  0.25108  0.51443  0.87326  1.0000
  S   S401      1.0  0.23785  0.51236  0.90787  1.0000
  H   H2227     1.0  0.47781  0.73621  0.95453  1.0000
  C   C1302     1.0  0.01453  0.55579  0.75754  1.0000
  H   H2228     1.0  0.16418  0.59498  0.82779  1.0000
  S   S402      1.0  0.15004  0.54275  0.78031  1.0000
  H   H2229     1.0  0.19530  0.55307  0.84606  1.0000
  C   C1303     1.0  0.12016  0.58105  0.77261  1.0000
  C   C1304     1.0  0.32927  0.51939  0.90118  1.0000
  C   C1305     1.0  0.42593  0.58434  0.97345  1.0000
  H   H2230     1.0  0.17453  0.49754  0.90847  1.0000
  C   C1306     1.0  0.46641  0.60606  0.97541  1.0000
  H   H2231     1.0  0.32648  0.50928  0.90815  1.0000
  H   H2232     1.0  0.12866  0.58298  0.73930  1.0000
  Fe  Fe203     1.0  0.40093  0.53327  0.97275  1.0000
  H   H2233     1.0  0.36867  0.52475  0.97545  1.0000
  S   S403      1.0  0.39900  0.51629  0.96304  1.0000
  C   C1307     1.0  0.10664  0.57717  0.77096  1.0000
  H   H2234     1.0  0.17307  0.51538  0.94375  1.0000
  C   C1308     1.0  0.18204  0.51239  0.84647  1.0000
  C   C1309     1.0  0.18295  0.51493  0.85931  1.0000
  C   C1310     1.0  0.19538  0.51869  0.86032  1.0000
  C   C1311     1.0  0.20697  0.52017  0.84841  1.0000
  C   C1312     1.0  0.20606  0.51764  0.83554  1.0000
  C   C1313     1.0  0.19368  0.51371  0.83458  1.0000
  C   C1314     1.0  0.08296  0.56845  0.76558  1.0000
  H   H2235     1.0  0.19584  0.52082  0.87022  1.0000
  H   H2236     1.0  0.21493  0.51889  0.82625  1.0000
  H   H2237     1.0  0.19302  0.51198  0.82459  1.0000
  H   H2238     1.0  0.46364  0.63604  0.90941  1.0000
  H   H2239     1.0  0.44729  0.65423  0.95775  1.0000
  H   H2240     1.0  0.31230  0.51190  0.92902  1.0000
  H   H2241     1.0  0.07646  0.58694  0.77488  1.0000
  H   H2242     1.0  0.41427  0.72284  0.91205  1.0000
  H   H2243     1.0  0.03332  0.49512  0.86684  1.0000
  H   H2244     1.0  0.01612  0.55305  0.76866  1.0000
  C   C1315     1.0  0.32153  0.54502  0.89188  1.0000
  C   C1316     1.0  0.12731  0.53544  0.77516  1.0000
  C   C1317     1.0  0.11812  0.53553  0.76661  1.0000
  H   H2245     1.0  0.12583  0.52939  0.78613  1.0000
  H   H2246     1.0  0.10962  0.52957  0.77108  1.0000
  H   H2247     1.0  0.17770  0.58227  0.81922  1.0000
  H   H2248     1.0  0.38319  0.58887  0.94581  1.0000
  H   H2249     1.0  0.38769  0.61009  0.93031  1.0000
  H   H2250     1.0  0.43744  0.50073  0.91282  1.0000
  C   C1318     1.0  0.44576  0.67870  0.91569  1.0000
  H   H2251     1.0  0.39029  0.55904  0.93855  1.0000
  S   S404      1.0  0.17388  0.50988  0.80314  1.0000
  H   H2252     1.0  0.47057  0.65782  0.92136  1.0000
  C   C1319     1.0  0.27202  0.55153  0.92727  1.0000
  C   C1320     1.0  0.27351  0.56108  0.91389  1.0000
  C   C1321     1.0  0.26942  0.55855  0.90251  1.0000
  C   C1322     1.0  0.26388  0.54640  0.90426  1.0000
  C   C1323     1.0  0.26255  0.53674  0.91760  1.0000
  C   C1324     1.0  0.26642  0.53941  0.92906  1.0000
  H   H2253     1.0  0.27755  0.57059  0.91240  1.0000
  H   H2254     1.0  0.27055  0.56607  0.89225  1.0000
  H   H2255     1.0  0.25866  0.52716  0.91904  1.0000
  H   H2256     1.0  0.26521  0.53196  0.93936  1.0000
  C   C1325     1.0  0.39126  0.58651  0.93594  1.0000
  H   H2257     1.0  0.21909  0.56896  0.91551  1.0000
  H   H2258     1.0  0.47009  0.73670  0.94023  1.0000
  C   C1326     1.0  0.40194  0.69359  0.93469  1.0000
  C   C1327     1.0  0.41041  0.69069  0.94477  1.0000
  C   C1328     1.0  0.42026  0.69932  0.94304  1.0000
  H   H2259     1.0  0.13573  0.54247  0.85125  1.0000
  H   H2260     1.0  0.10150  0.50734  0.86698  1.0000
  C   C1329     1.0  0.40334  0.70530  0.92295  1.0000
  H   H2261     1.0  0.40922  0.68194  0.95402  1.0000
  H   H2262     1.0  0.42670  0.69702  0.95094  1.0000
  H   H2263     1.0  0.35244  0.53849  0.97619  1.0000
  C   C1330     1.0  0.41059  0.57017  0.91459  1.0000
  C   C1331     1.0  0.35447  0.61275  0.95383  1.0000
  C   C1332     1.0  0.34917  0.62274  0.94243  1.0000
  C   C1333     1.0  0.33831  0.62024  0.93724  1.0000
  C   C1334     1.0  0.33267  0.60777  0.94340  1.0000
  C   C1335     1.0  0.33752  0.59818  0.95522  1.0000
  C   C1336     1.0  0.34840  0.60061  0.96034  1.0000
  H   H2264     1.0  0.35375  0.63212  0.93731  1.0000
  H   H2265     1.0  0.33452  0.62780  0.92817  1.0000
  H   H2266     1.0  0.33308  0.58870  0.96027  1.0000
  H   H2267     1.0  0.35236  0.59282  0.96921  1.0000
  C   C1337     1.0  0.46197  0.60950  0.95184  1.0000
  S   S405      1.0  0.41493  0.54362  0.95280  1.0000
  H   H2268     1.0  0.39083  0.57219  0.90831  1.0000
  H   H2269     1.0  0.43013  0.61821  0.97561  1.0000
  H   H2270     1.0  0.43904  0.64615  0.91756  1.0000
  H   H2271     1.0  0.46126  0.64514  0.94555  1.0000
  C   C1338     1.0  0.18052  0.55456  0.83281  1.0000
  H   H2272     1.0  0.23044  0.55891  0.90280  1.0000
  H   H2273     1.0  0.43426  0.68432  0.91917  1.0000
  H   H2274     1.0  0.45086  0.68595  0.93223  1.0000
  C   C1339     1.0  0.13058  0.55140  0.74682  1.0000
  C   C1340     1.0  0.39325  0.53220  0.92083  1.0000
  C   C1341     1.0  0.38990  0.53289  0.90791  1.0000
  C   C1342     1.0  0.37534  0.53538  0.90705  1.0000
  C   C1343     1.0  0.36408  0.53750  0.91903  1.0000
  C   C1344     1.0  0.36739  0.53676  0.93199  1.0000
  C   C1345     1.0  0.38199  0.53401  0.93290  1.0000
  H   H2275     1.0  0.39856  0.53151  0.89854  1.0000
  H   H2276     1.0  0.37279  0.53595  0.89701  1.0000
  H   H2277     1.0  0.35872  0.53831  0.94130  1.0000
  H   H2278     1.0  0.38440  0.53387  0.94280  1.0000
  H   H2279     1.0  0.35133  0.52091  0.97628  1.0000
  H   H2280     1.0  0.07511  0.61384  0.75519  1.0000
  H   H2281     1.0  0.44825  0.68167  0.90376  1.0000
  Fe  Fe204     1.0  0.39066  0.64098  0.97962  1.0000
  H   H2282     1.0  0.41204  0.56203  0.97589  1.0000
  H   H2283     1.0  0.18922  0.49890  0.89260  1.0000
  H   H2284     1.0  0.44290  0.65981  0.90195  1.0000
  H   H2285     1.0  0.23947  0.56271  0.94380  1.0000
  C   C1346     1.0  0.45325  0.65544  0.94637  1.0000
  H   H2286     1.0  0.33052  0.54655  0.89569  1.0000
  H   H2287     1.0  0.46674  0.68115  0.91820  1.0000
  C   C1347     1.0  0.46650  0.63904  0.91801  1.0000
  C   C1348     1.0  0.31003  0.55933  0.89089  1.0000
  H   H2288     1.0  0.40116  0.60165  0.91696  1.0000
  C   C1349     1.0  0.08652  0.61492  0.75317  1.0000
  Fe  Fe205     1.0  0.13627  0.49945  0.81687  1.0000
  C   C1350     1.0  0.39568  0.58196  0.97406  1.0000
  C   C1351     1.0  0.43856  0.65791  0.91377  1.0000
  Fe  Fe206     1.0  0.41883  0.50326  0.97106  1.0000
  H   H2289     1.0  0.39677  0.70770  0.91514  1.0000
  H   H2290     1.0  0.11279  0.50866  0.75990  1.0000
  H   H2291     1.0  0.46039  0.63397  0.92848  1.0000
  H   H2292     1.0  0.31817  0.53669  0.92006  1.0000
  H   H2293     1.0  0.46612  0.60893  0.94071  1.0000
  H   H2294     1.0  0.30641  0.50931  0.88922  1.0000
  H   H2295     1.0  0.37291  0.57078  0.95778  1.0000
  S   S406      1.0  0.07952  0.49216  0.88497  1.0000
  N   N93       1.0  0.44760  0.66262  0.92089  1.0000
  H   H2296     1.0  0.05401  0.49715  0.85137  1.0000
  C   C1352     1.0  0.11983  0.54330  0.75237  1.0000
  H   H2297     1.0  0.00673  0.54976  0.75711  1.0000
  H   H2298     1.0  0.32624  0.54388  0.88062  1.0000
  H   H2299     1.0  0.43360  0.50675  0.89550  1.0000
  H   H2300     1.0  0.42007  0.67648  0.91059  1.0000
  H   H2301     1.0  0.30540  0.50702  0.90805  1.0000
  H   H2302     1.0  0.14823  0.55746  0.75109  1.0000
  H   H2303     1.0  0.33025  0.51564  0.88002  1.0000
  H   H2304     1.0  0.46730  0.65996  0.90430  1.0000
  C   C1353     1.0  0.43311  0.57713  0.96060  1.0000
  H   H2305     1.0  0.20759  0.49748  0.80664  1.0000
  H   H2306     1.0  0.15299  0.56245  0.81494  1.0000
  H   H2307     1.0  0.09175  0.61546  0.74166  1.0000
  C   C1354     1.0  0.46401  0.54616  0.97614  1.0000
  H   H2308     1.0  0.10572  0.60604  0.76154  1.0000
  C   C1355     1.0  0.41866  0.49424  0.91065  1.0000
  C   C1356     1.0  0.44703  0.61422  0.95705  1.0000
  H   H2309     1.0  0.47832  0.63446  0.91750  1.0000
  H   H2310     1.0  0.45913  0.66412  0.94399  1.0000
  C   C1357     1.0  0.44169  0.61459  0.97155  1.0000
  C   C1358     1.0  0.30389  0.52195  0.92739  1.0000
  H   H2311     1.0  0.41481  0.49333  0.90151  1.0000
  C   C1359     1.0  0.04030  0.58911  0.75014  1.0000
  H   H2312     1.0  0.23809  0.56250  0.92655  1.0000
  H   H2313     1.0  0.14670  0.57744  0.83192  1.0000
  H   H2314     1.0  0.14044  0.54702  0.83226  1.0000
  H   H2315     1.0  0.22277  0.57172  0.93844  1.0000
  H   H2316     1.0  0.10721  0.57549  0.74443  1.0000
  H   H2317     1.0  0.18457  0.54284  0.83354  1.0000
  C   C1360     1.0  0.34378  0.62846  0.98563  1.0000
  H   H2318     1.0  0.33726  0.52141  0.90603  1.0000
  C   C1361     1.0  0.09535  0.60285  0.76300  1.0000
  H   H2319     1.0  0.36799  0.58504  0.90611  1.0000
  C   C1362     1.0  0.46333  0.65551  0.91592  1.0000
  H   H2320     1.0  0.30759  0.53278  0.88290  1.0000
  H   H2321     1.0  0.31503  0.56783  0.88275  1.0000
  H   H2322     1.0  0.30648  0.56302  0.90108  1.0000
  H   H2323     1.0  0.30074  0.54369  0.91617  1.0000
  H   H2324     1.0  0.16818  0.54375  0.80267  1.0000
  H   H2325     1.0  0.19186  0.55325  0.92454  1.0000
  H   H2326     1.0  0.43287  0.66712  0.94067  1.0000
  H   H2327     1.0  0.35860  0.57493  0.94815  1.0000
  N   N94       1.0  0.31616  0.53176  0.90101  1.0000
  C   C1363     1.0  0.45137  0.61009  0.98082  1.0000
  C   C1364     1.0  0.18270  0.50675  0.94345  1.0000
  H   H2328     1.0  0.28973  0.51533  0.90075  1.0000
  H   H2329     1.0  0.10754  0.50415  0.77929  1.0000
  H   H2330     1.0  0.17090  0.56529  0.80831  1.0000
  C   C1365     1.0  0.39495  0.57847  0.91336  1.0000
  C   C1366     1.0  0.47167  0.60582  0.96091  1.0000
  S   S407      1.0  0.10884  0.54174  0.74186  1.0000
  C   C1367     1.0  0.35686  0.52688  0.98021  1.0000
  C   C1368     1.0  0.30469  0.52968  0.89482  1.0000
  C   C1369     1.0  0.15815  0.57425  0.83325  1.0000
  N   N95       1.0  0.09779  0.58788  0.76079  1.0000
  H   H2331     1.0  0.29413  0.53709  0.89802  1.0000
  H   H2332     1.0  0.01872  0.50254  0.78352  1.0000
  C   C1370     1.0  0.08297  0.58428  0.76446  1.0000
  H   H2333     1.0  0.34304  0.61875  0.98268  1.0000
  H   H2334     1.0  0.40121  0.58823  0.96395  1.0000
  H   H2335     1.0  0.41166  0.50419  0.91388  1.0000
  H   H2336     1.0  0.15547  0.55105  0.85381  1.0000
  C   C1371     1.0  0.16576  0.58597  0.82258  1.0000
  H   H2337     1.0  0.39576  0.58869  0.90526  1.0000
  C   C1372     1.0  0.11905  0.59206  0.73842  1.0000
  H   H2338     1.0  0.18789  0.55942  0.82305  1.0000
  S   S408      1.0  0.45311  0.53750  0.95842  1.0000
  H   H2339     1.0  0.46741  0.55429  0.96689  1.0000
  H   H2340     1.0  0.13330  0.49910  0.76977  1.0000
  S   S409      1.0  0.38067  0.54756  0.98277  1.0000
  H   H2341     1.0  0.11618  0.50670  0.84232  1.0000
  H   H2342     1.0  0.03493  0.60065  0.74926  1.0000
  H   H2343     1.0  0.21650  0.49746  0.92288  1.0000
  C   C1373     1.0  0.10534  0.50341  0.76930  1.0000
  Fe  Fe207     1.0  0.24178  0.49859  0.89219  1.0000
  S   S410      1.0  0.14761  0.50258  0.79379  1.0000
  H   H2344     1.0  0.18153  0.56924  0.84535  1.0000
  C   C1374     1.0  0.13973  0.55143  0.75547  1.0000
  H   H2345     1.0  0.41914  0.59496  0.96948  1.0000
  H   H2346     1.0  0.41078  0.55957  0.92210  1.0000
  H   H2347     1.0  0.29989  0.52526  0.93782  1.0000
  C   C1375     1.0  0.16426  0.55823  0.81678  1.0000
  H   H2348     1.0  0.08967  0.60332  0.77429  1.0000
  S   S411      1.0  0.43481  0.72107  0.92924  1.0000
  H   H2349     1.0  0.17395  0.51408  0.86853  1.0000
  H   H2350     1.0  0.30043  0.55877  0.88745  1.0000
  C   C1376     1.0  0.16991  0.54316  0.81338  1.0000
  H   H2351     1.0  0.43500  0.58684  0.97629  1.0000
  H   H2352     1.0  0.19213  0.49807  0.90963  1.0000
  H   H2353     1.0  0.03564  0.56813  0.75759  1.0000
  C   C1377     1.0  0.41325  0.71391  0.92119  1.0000
  H   H2354     1.0  0.15703  0.57526  0.84437  1.0000
  S   S412      1.0  0.43449  0.51101  0.95089  1.0000
  C   C1378     1.0  0.49449  0.73649  0.89893  1.0000
  H   H2355     1.0  0.09693  0.59245  0.73841  1.0000
  H   H2356     1.0  0.11712  0.59013  0.77804  1.0000
  H   H2357     1.0  0.18178  0.53926  0.81286  1.0000
  H   H2358     1.0  0.38845  0.50307  0.92287  1.0000
  H   H2359     1.0  0.34433  0.52406  0.88028  1.0000
  H   H2360     1.0  0.09971  0.57512  0.78199  1.0000
  C   C1379     1.0  0.15634  0.54919  0.84309  1.0000
  H   H2361     1.0  0.09401  0.50975  0.76933  1.0000
  H   H2362     1.0  0.40570  0.60073  0.93317  1.0000
  H   H2363     1.0  0.16215  0.53783  0.84363  1.0000
  H   H2364     1.0  0.35270  0.59733  0.91400  1.0000
  H   H2365     1.0  0.04763  0.58747  0.73976  1.0000
  H   H2366     1.0  0.44113  0.56704  0.96339  1.0000
  H   H2367     1.0  0.32087  0.63757  0.98424  1.0000
  N   N96       1.0  0.16483  0.55907  0.83145  1.0000
  H   H2368     1.0  0.36688  0.55679  0.95485  1.0000
  H   H2369     1.0  0.02499  0.55175  0.75052  1.0000
  H   H2370     1.0  0.41639  0.65948  0.91229  1.0000
  N   N97       1.0  0.21552  0.54535  0.93809  1.0000
  C   C1380     1.0  0.21205  0.53097  0.94632  1.0000
  C   C1381     1.0  0.20158  0.55656  0.94061  1.0000
  C   C1382     1.0  0.22667  0.54791  0.94433  1.0000
  C   C1383     1.0  0.22144  0.54487  0.92247  1.0000
  C   C1384     1.0  0.22511  0.51796  0.94695  1.0000
  C   C1385     1.0  0.18874  0.55473  0.93569  1.0000
  C   C1386     1.0  0.23179  0.56212  0.93774  1.0000
  C   C1387     1.0  0.22032  0.55940  0.91139  1.0000
  H   H2371     1.0  0.20624  0.53137  0.95760  1.0000
  H   H2372     1.0  0.20447  0.52811  0.94169  1.0000
  H   H2373     1.0  0.20314  0.56758  0.93538  1.0000
  H   H2374     1.0  0.19778  0.55666  0.95222  1.0000
  H   H2375     1.0  0.22251  0.54728  0.95606  1.0000
  H   H2376     1.0  0.23682  0.53941  0.94319  1.0000
  H   H2377     1.0  0.23306  0.53910  0.92064  1.0000
  H   H2378     1.0  0.21568  0.53847  0.91934  1.0000
  H   H2379     1.0  0.22097  0.50789  0.95075  1.0000
  H   H2380     1.0  0.23254  0.51754  0.93636  1.0000
  H   H2381     1.0  0.23133  0.51786  0.95472  1.0000
  H   H2382     1.0  0.18409  0.54556  0.94287  1.0000
  H   H2383     1.0  0.17984  0.56451  0.93614  1.0000
  H   H2384     1.0  0.48328  0.60267  0.95670  1.0000
  H   H2385     1.0  0.08732  0.56107  0.77478  1.0000
  H   H2386     1.0  0.37440  0.60236  0.91672  1.0000
  H   H2387     1.0  0.48928  0.73524  0.93682  1.0000
  H   H2388     1.0  0.16117  0.59015  0.81284  1.0000
  C   C1388     1.0  0.42176  0.71095  0.93124  1.0000
  H   H2389     1.0  0.41724  0.66422  0.92796  1.0000
  C   C1389     1.0  0.42217  0.66506  0.91639  1.0000
  H   H2390     1.0  0.40021  0.57810  0.94015  1.0000
  C   C1390     1.0  0.38054  0.56713  0.93572  1.0000
  C   C1391     1.0  0.47860  0.74030  0.94285  1.0000
  H   H2391     1.0  0.17725  0.55223  0.85612  1.0000
  C   C1392     1.0  0.01165  0.49705  0.79253  1.0000
  H   H2392     1.0  0.07156  0.56743  0.76728  1.0000
  N   N98       1.0  0.38452  0.58114  0.92720  1.0000
  C   C1393     1.0  0.37125  0.59233  0.92377  1.0000
  C   C1394     1.0  0.39666  0.60056  0.92859  1.0000
  H   H2393     1.0  0.37643  0.56243  0.92918  1.0000
  H   H2394     1.0  0.35656  0.57916  0.92345  1.0000
  H   H2395     1.0  0.16402  0.53515  0.82115  1.0000
  H   H2396     1.0  0.41642  0.57642  0.91780  1.0000
  C   C1395     1.0  0.36177  0.58800  0.91640  1.0000
  H   H2397     1.0  0.36408  0.59565  0.93358  1.0000
  H   H2398     1.0  0.11047  0.56660  0.76786  1.0000
  N   N99       1.0  0.01965  0.58107  0.74528  1.0000
  H   H2399     1.0  0.00927  0.50018  0.85163  1.0000
  H   H2400     1.0  0.05006  0.49531  0.83518  1.0000
  H   H2401     1.0  0.33389  0.64167  0.96809  1.0000
  H   H2402     1.0  0.42506  0.57500  0.95603  1.0000
  H   H2403     1.0  0.02734  0.50385  0.84648  1.0000
  H   H2404     1.0  0.31221  0.57675  0.98034  1.0000
  C   C1396     1.0  0.19492  0.50810  0.93219  1.0000
  S   S413      1.0  0.44722  0.74005  0.88852  1.0000
  H   H2405     1.0  0.35435  0.63111  0.97926  1.0000
  C   C1397     1.0  0.10813  0.50021  0.84712  1.0000
  H   H2406     1.0  0.43922  0.58447  0.95195  1.0000
  H   H2407     1.0  0.38817  0.58939  0.98076  1.0000
  H   H2408     1.0  0.12026  0.60073  0.74257  1.0000
  H   H2409     1.0  0.45078  0.65596  0.98297  1.0000
  C   C1398     1.0  0.45736  0.53602  0.97471  1.0000
  H   H2410     1.0  0.43284  0.55550  0.98566  1.0000
  H   H2411     1.0  0.38872  0.57661  0.97118  1.0000
  H   H2412     1.0  0.34528  0.50544  0.88805  1.0000
  C   C1399     1.0  0.40644  0.57037  0.98228  1.0000
  C   C1400     1.0  0.18294  0.49419  0.95435  1.0000
  H   H2413     1.0  0.01980  0.50007  0.83408  1.0000
  C   C1401     1.0  0.45307  0.52548  0.98662  1.0000
  H   H2414     1.0  0.39376  0.49757  0.93995  1.0000
  C   C1402     1.0  0.39032  0.49400  0.93210  1.0000
  C   C1403     1.0  0.33166  0.64047  0.97988  1.0000
  H   H2415     1.0  0.41844  0.49402  0.93676  1.0000
  C   C1404     1.0  0.33761  0.51608  0.88645  1.0000
  C   C1405     1.0  0.02061  0.49711  0.84549  1.0000
  C   C1406     1.0  0.43399  0.49742  0.90477  1.0000
  C   C1407     1.0  0.01196  0.59654  0.74101  1.0000
  N   N100      1.0  0.41730  0.57575  0.98638  1.0000
  H   H2416     1.0  0.33134  0.65106  0.98167  1.0000
  C   C1408     1.0  0.02920  0.57939  0.75538  1.0000
  H   H2417     1.0  0.48526  0.73169  0.90092  1.0000
  H   H2418     1.0  0.17353  0.49315  0.96309  1.0000
  C   C1409     1.0  0.20726  0.49682  0.93176  1.0000
  H   H2419     1.0  0.44836  0.51739  0.98548  1.0000
  S   S414      1.0  0.47886  0.60268  0.98623  1.0000
  H   H2420     1.0  0.08596  0.62544  0.75535  1.0000
  C   C1410     1.0  0.10473  0.58680  0.74548  1.0000
  H   H2421     1.0  0.49272  0.52251  0.98688  1.0000
  C   C1411     1.0  0.18635  0.49390  0.90415  1.0000
  C   C1412     1.0  0.00844  0.57210  0.75279  1.0000
  C   C1413     1.0  0.46917  0.78885  0.13112  1.0000
  S   S415      1.0  0.46702  0.78063  0.19182  1.0000
  S   S416      1.0  0.47473  0.83151  0.21106  1.0000
  Fe  Fe208     1.0  0.48638  0.82182  0.07538  1.0000
  S   S417      1.0  0.46514  0.81508  0.08514  1.0000
  S   S418      1.0  0.48611  0.84518  0.06703  1.0000
  H   H2422     1.0  0.49502  0.79426  0.00926  1.0000
  H   H2423     1.0  0.44509  0.85003  0.23153  1.0000
  H   H2424     1.0  0.41955  0.81520  0.02664  1.0000
  H   H2425     1.0  0.44307  0.81072  0.14737  1.0000
  C   C1414     1.0  0.47014  0.83395  0.02759  1.0000
  C   C1415     1.0  0.48095  0.83764  0.03161  1.0000
  H   H2426     1.0  0.46196  0.82911  0.03575  1.0000
  H   H2427     1.0  0.48098  0.83561  0.04281  1.0000
  H   H2428     1.0  0.45764  0.78844  0.13262  1.0000
  H   H2429     1.0  0.46254  0.75132  0.16184  1.0000
  S   S419      1.0  0.44140  0.74293  0.12142  1.0000
  H   H2430     1.0  0.47434  0.79138  0.11958  1.0000
  S   S420      1.0  0.46870  0.79896  0.99068  1.0000
  H   H2431     1.0  0.48748  0.92871  0.13023  1.0000
  Fe  Fe209     1.0  0.46821  0.83225  0.19100  1.0000
  H   H2432     1.0  0.47470  0.77771  0.13553  1.0000
  C   C1416     1.0  0.46613  0.83647  0.11356  1.0000
  C   C1417     1.0  0.45846  0.77726  0.17996  1.0000
  H   H2433     1.0  0.48006  0.84542  0.99150  1.0000
  C   C1418     1.0  0.43963  0.78316  0.16638  1.0000
  H   H2434     1.0  0.43295  0.80953  0.06924  1.0000
  H   H2435     1.0  0.48470  0.77230  0.06475  1.0000
  H   H2436     1.0  0.48367  0.81895  0.11936  1.0000
  C   C1419     1.0  0.49153  0.84407  0.02119  1.0000
  H   H2437     1.0  0.42429  0.81546  0.04742  1.0000
  C   C1420     1.0  0.47024  0.76821  0.08544  1.0000
  C   C1421     1.0  0.46070  0.77420  0.09664  1.0000
  C   C1422     1.0  0.45875  0.78876  0.09620  1.0000
  C   C1423     1.0  0.46668  0.79728  0.08476  1.0000
  C   C1424     1.0  0.47593  0.79143  0.07332  1.0000
  C   C1425     1.0  0.47756  0.77689  0.07356  1.0000
  H   H2438     1.0  0.45471  0.76765  0.10568  1.0000
  H   H2439     1.0  0.45131  0.79326  0.10492  1.0000
  H   H2440     1.0  0.48170  0.79812  0.06425  1.0000
  H   H2441     1.0  0.43559  0.77788  0.04956  1.0000
  H   H2442     1.0  0.42428  0.79141  0.05851  1.0000
  Fe  Fe210     1.0  0.45777  0.81846  0.22198  1.0000
  H   H2443     1.0  0.49492  0.77609  0.19832  1.0000
  C   C1426     1.0  0.46437  0.76457  0.17482  1.0000
  H   H2444     1.0  0.46248  0.83427  0.14173  1.0000
  C   C1427     1.0  0.45916  0.79501  0.04055  1.0000
  H   H2445     1.0  0.49144  0.87126  0.18913  1.0000
  C   C1428     1.0  0.44778  0.81739  0.13701  1.0000
  S   S421      1.0  0.47323  0.74982  0.08663  1.0000
  H   H2446     1.0  0.44568  0.80570  0.01953  1.0000
  H   H2447     1.0  0.49428  0.76464  0.11506  1.0000
  H   H2448     1.0  0.46575  0.79464  0.15084  1.0000
  S   S422      1.0  0.44967  0.82096  0.20209  1.0000
  Fe  Fe211     1.0  0.46652  0.80064  0.19900  1.0000
  H   H2449     1.0  0.47383  0.75714  0.17811  1.0000
  C   C1429     1.0  0.49108  0.84706  0.00672  1.0000
  H   H2450     1.0  0.47164  0.81439  0.11232  1.0000
  H   H2451     1.0  0.46881  0.78370  0.02293  1.0000
  H   H2452     1.0  0.46277  0.82544  0.16625  1.0000
  S   S423      1.0  0.45688  0.83076  0.00838  1.0000
  S   S424      1.0  0.43786  0.76660  0.14909  1.0000
  H   H2453     1.0  0.43528  0.82691  0.05939  1.0000
  H   H2454     1.0  0.43604  0.77283  0.07526  1.0000
  H   H2455     1.0  0.50267  0.79300  0.02388  1.0000
  C   C1430     1.0  0.44597  0.78654  0.17576  1.0000
  H   H2456     1.0  0.44350  0.78773  0.02583  1.0000
  C   C1431     1.0  0.43963  0.79852  0.02849  1.0000
  H   H2457     1.0  0.45371  0.77200  0.06389  1.0000
  C   C1432     1.0  0.46768  0.78149  0.03469  1.0000
  C   C1433     1.0  0.49391  0.86604  0.19982  1.0000
  S   S425      1.0  0.48419  0.81225  0.18633  1.0000
  C   C1434     1.0  0.43592  0.78681  0.05407  1.0000
  H   H2458     1.0  0.49010  0.92352  0.09444  1.0000
  H   H2459     1.0  0.48932  0.75658  0.19234  1.0000
  C   C1435     1.0  0.46117  0.81785  0.16081  1.0000
  H   H2460     1.0  0.45421  0.83920  0.11433  1.0000
  C   C1436     1.0  0.43924  0.81530  0.05929  1.0000
  H   H2461     1.0  0.46248  0.77220  0.03986  1.0000
  H   H2462     1.0  0.47909  0.82141  0.14298  1.0000
  C   C1437     1.0  0.49213  0.86533  0.15779  1.0000
  H   H2463     1.0  0.46354  0.80426  0.03303  1.0000
  H   H2464     1.0  0.45095  0.81270  0.05948  1.0000
  Fe  Fe212     1.0  0.48975  0.81077  0.20701  1.0000
  H   H2465     1.0  0.48549  0.99064  0.22985  1.0000
  C   C1438     1.0  0.48041  0.84307  0.00266  1.0000
  H   H2466     1.0  0.44492  0.78712  0.07210  1.0000
  H   H2467     1.0  0.50186  0.88996  0.18006  1.0000
  H   H2468     1.0  0.49233  0.85489  0.20240  1.0000
  H   H2469     1.0  0.41633  0.79763  0.03681  1.0000
  C   C1439     1.0  0.50092  0.91824  0.08895  1.0000
  H   H2470     1.0  0.46239  0.79387  0.05066  1.0000
  C   C1440     1.0  0.44317  0.77947  0.06695  1.0000
  H   H2471     1.0  0.47888  0.77840  0.03666  1.0000
  Fe  Fe213     1.0  0.44902  0.74719  0.13897  1.0000
  H   H2472     1.0  0.43524  0.80642  0.13019  1.0000
  N   N101      1.0  0.44281  0.79808  0.04259  1.0000
  H   H2473     1.0  0.48303  0.76405  0.21803  1.0000
  C   C1441     1.0  0.43636  0.81280  0.04587  1.0000
  H   H2474     1.0  0.43481  0.82458  0.12057  1.0000
  H   H2475     1.0  0.45044  0.81080  0.11647  1.0000
  H   H2476     1.0  0.42230  0.80118  0.01770  1.0000
  C   C1442     1.0  0.47182  0.82046  0.11996  1.0000
  H   H2477     1.0  0.46909  0.84364  0.11848  1.0000
  H   H2478     1.0  0.44932  0.81825  0.16358  1.0000
  C   C1443     1.0  0.44200  0.81462  0.12533  1.0000
  C   C1444     1.0  0.48769  0.85407  0.16882  1.0000
  H   H2479     1.0  0.44107  0.79615  0.17992  1.0000
  C   C1445     1.0  0.46716  0.82253  0.14456  1.0000
  S   S426      1.0  0.47190  0.74668  0.12624  1.0000
  H   H2480     1.0  0.47140  0.83888  0.10197  1.0000
  H   H2481     1.0  0.44255  0.82870  0.13794  1.0000
  H   H2482     1.0  0.48443  0.87270  0.15172  1.0000
  Fe  Fe214     1.0  0.46506  0.82276  0.98800  1.0000
  H   H2483     1.0  0.49897  0.94680  0.08071  1.0000
  C   C1446     1.0  0.44571  0.77051  0.16114  1.0000
  H   H2484     1.0  0.42990  0.79028  0.16326  1.0000
  C   C1447     1.0  0.42344  0.80342  0.02759  1.0000
  S   S427      1.0  0.47351  0.79732  0.21961  1.0000
  S   S428      1.0  0.46983  0.85151  0.17276  1.0000
  N   N102      1.0  0.46410  0.81476  0.13506  1.0000
  H   H2485     1.0  0.48256  0.79733  0.13907  1.0000
  C   C1448     1.0  0.45806  0.76124  0.16548  1.0000
  H   H2486     1.0  0.44027  0.82119  0.03661  1.0000
  H   H2487     1.0  0.49493  0.75830  0.15390  1.0000
  H   H2488     1.0  0.50128  0.81714  0.00726  1.0000
  H   H2489     1.0  0.50185  0.92188  0.07719  1.0000
  H   H2490     1.0  0.46718  0.80704  0.16541  1.0000
  C   C1449     1.0  0.47072  0.79898  0.13955  1.0000
  H   H2491     1.0  0.50050  0.87163  0.11299  1.0000
  C   C1450     1.0  0.47001  0.83637  0.01311  1.0000
  H   H2492     1.0  0.48812  0.94065  0.10510  1.0000
  C   C1451     1.0  0.49776  0.84454  0.17652  1.0000
  C   C1452     1.0  0.49998  0.84222  0.13392  1.0000
  H   H2493     1.0  0.49271  0.89284  0.20379  1.0000
  H   H2494     1.0  0.48598  0.74838  0.23186  1.0000
  C   C1453     1.0  0.50147  0.88245  0.22268  1.0000
  H   H2495     1.0  0.49868  0.96568  0.09297  1.0000
  H   H2496     1.0  0.50143  0.82354  0.22665  1.0000
  H   H2497     1.0  0.49462  0.83586  0.18505  1.0000
  C   C1454     1.0  0.49741  0.92541  0.12211  1.0000
  H   H2498     1.0  0.49836  0.94733  0.11264  1.0000
  H   H2499     1.0  0.48581  0.87145  0.20801  1.0000
  H   H2500     1.0  0.49623  0.77610  0.09121  1.0000
  C   C1455     1.0  0.48804  0.75240  0.22006  1.0000
  H   H2501     1.0  0.49391  0.83989  0.14521  1.0000
  H   H2502     1.0  0.50101  0.90657  0.09207  1.0000
  S   S429      1.0  0.49916  0.85367  0.09598  1.0000
  H   H2503     1.0  0.50249  0.77612  0.12945  1.0000
  C   C1456     1.0  0.49850  0.93782  0.10876  1.0000
  H   H2504     1.0  0.49169  0.84606  0.12728  1.0000
  H   H2505     1.0  0.48230  0.74679  0.21595  1.0000
  C   C1457     1.0  0.50104  0.75153  0.18952  1.0000
  H   H2506     1.0  0.49665  0.87287  0.22585  1.0000
  H   H2507     1.0  0.49633  0.91556  0.11973  1.0000
  C   C1458     1.0  0.50199  0.74822  0.15182  1.0000
  S   S430      1.0  0.50224  0.81782  0.08909  1.0000
  H   H2508     1.0  0.50057  0.75022  0.09427  1.0000
  H   H2509     1.0  0.49903  0.85234  0.99865  1.0000
  H   H2510     1.0  0.49370  0.89047  0.22860  1.0000
  H   H2511     1.0  0.46835  0.99123  0.21809  1.0000
  H   H2512     1.0  0.08102  0.87742  0.45910  1.0000
  H   H2513     1.0  0.45295  0.91138  0.29547  1.0000
  Fe  Fe215     1.0  0.20125  0.80551  0.45973  1.0000
  S   S431      1.0  0.22408  0.80697  0.45854  1.0000
  H   H2514     1.0  0.23340  0.79232  0.39509  1.0000
  Fe  Fe216     1.0  0.18839  0.83600  0.46412  1.0000
  Fe  Fe217     1.0  0.10474  0.76270  0.45315  1.0000
  Fe  Fe218     1.0  0.40299  0.98575  0.29655  1.0000
  Fe  Fe219     1.0  0.21811  0.82911  0.44515  1.0000
  S   S432      1.0  0.23350  0.83763  0.42508  1.0000
  H   H2515     1.0  0.39452  0.81659  0.28930  1.0000
  H   H2516     1.0  0.36033  0.84901  0.29367  1.0000
  S   S433      1.0  0.19605  0.82671  0.44456  1.0000
  C   C1459     1.0  0.08054  0.74493  0.44137  1.0000
  H   H2517     1.0  0.10037  0.85839  0.46901  1.0000
  S   S434      1.0  0.05494  0.86459  0.47745  1.0000
  C   C1460     1.0  0.05253  0.76600  0.45249  1.0000
  S   S435      1.0  0.08866  0.83790  0.45884  1.0000
  C   C1461     1.0  0.29694  0.88412  0.46694  1.0000
  H   H2518     1.0  0.09713  0.87487  0.47389  1.0000
  H   H2519     1.0  0.34184  0.91886  0.39819  1.0000
  C   C1462     1.0  0.46123  0.96315  0.36819  1.0000
  C   C1463     1.0  0.33857  0.97053  0.42849  1.0000
  C   C1464     1.0  0.22416  0.76791  0.48276  1.0000
  H   H2520     1.0  0.41934  0.86906  0.47948  1.0000
  H   H2521     1.0  0.45592  0.95425  0.37496  1.0000
  C   C1465     1.0  0.42621  0.96650  0.34595  1.0000
  H   H2522     1.0  0.37656  0.86581  0.26557  1.0000
  H   H2523     1.0  0.46652  0.94998  0.39410  1.0000
  Fe  Fe220     1.0  0.41608  0.85953  0.32654  1.0000
  S   S436      1.0  0.42413  0.87865  0.31178  1.0000
  S   S437      1.0  0.42714  0.84346  0.34313  1.0000
  Fe  Fe221     1.0  0.38859  0.86673  0.31540  1.0000
  S   S438      1.0  0.39423  0.88656  0.29973  1.0000
  S   S439      1.0  0.36799  0.86082  0.31579  1.0000
  Fe  Fe222     1.0  0.41688  0.87270  0.29508  1.0000
  S   S440      1.0  0.42974  0.87386  0.27206  1.0000
  Fe  Fe223     1.0  0.40089  0.89045  0.31778  1.0000
  S   S441      1.0  0.39351  0.91022  0.32696  1.0000
  S   S442      1.0  0.41060  0.85258  0.30952  1.0000
  S   S443      1.0  0.39341  0.87165  0.33381  1.0000
  Fe  Fe224     1.0  0.31296  0.87771  0.38568  1.0000
  S   S444      1.0  0.29160  0.88176  0.40156  1.0000
  S   S445      1.0  0.31242  0.88013  0.36276  1.0000
  Fe  Fe225     1.0  0.33106  0.87430  0.40670  1.0000
  S   S446      1.0  0.31150  0.87795  0.42451  1.0000
  S   S447      1.0  0.35381  0.87324  0.40839  1.0000
  Fe  Fe226     1.0  0.30265  0.86368  0.41681  1.0000
  S   S448      1.0  0.29017  0.84904  0.43479  1.0000
  Fe  Fe227     1.0  0.30173  0.89564  0.40818  1.0000
  S   S449      1.0  0.28883  0.91600  0.41520  1.0000
  S   S450      1.0  0.32334  0.85823  0.40032  1.0000
  S   S451      1.0  0.32207  0.89337  0.39096  1.0000
  Fe  Fe228     1.0  0.46263  0.91148  0.36385  1.0000
  S   S452      1.0  0.48213  0.89416  0.36790  1.0000
  S   S453      1.0  0.46646  0.92998  0.34533  1.0000
  Fe  Fe229     1.0  0.44201  0.89694  0.38891  1.0000
  S   S454      1.0  0.45990  0.87851  0.39541  1.0000
  S   S455      1.0  0.41851  0.89646  0.39907  1.0000
  C   C1466     1.0  0.50118  0.93393  0.34977  1.0000
  Fe  Fe230     1.0  0.46749  0.87914  0.37188  1.0000
  S   S456      1.0  0.47494  0.85877  0.36394  1.0000
  S   S457      1.0  0.45416  0.91382  0.38658  1.0000
  S   S458      1.0  0.44870  0.89635  0.36566  1.0000
  Fe  Fe231     1.0  0.33946  0.92242  0.47580  1.0000
  H   H2524     1.0  0.41181  0.86890  0.35834  1.0000
  S   S459      1.0  0.32123  0.94064  0.46980  1.0000
  Fe  Fe232     1.0  0.37219  0.91114  0.46963  1.0000
  H   H2525     1.0  0.07474  0.77348  0.43142  1.0000
  S   S460      1.0  0.39452  0.91523  0.45828  1.0000
  Fe  Fe233     1.0  0.35199  0.89078  0.47715  1.0000
  S   S461      1.0  0.34905  0.87060  0.47339  1.0000
  C   C1467     1.0  0.41243  0.87801  0.47323  1.0000
  S   S462      1.0  0.35468  0.91032  0.45962  1.0000
  H   H2526     1.0  0.24938  0.77145  0.39107  1.0000
  H   H2527     1.0  0.24316  0.78922  0.40862  1.0000
  H   H2528     1.0  0.43229  0.95204  0.30210  1.0000
  C   C1468     1.0  0.39568  0.83907  0.28789  1.0000
  C   C1469     1.0  0.41177  0.90248  0.41507  1.0000
  C   C1470     1.0  0.39802  0.90056  0.42327  1.0000
  C   C1471     1.0  0.39264  0.90463  0.43645  1.0000
  C   C1472     1.0  0.40087  0.91082  0.44142  1.0000
  C   C1473     1.0  0.41462  0.91282  0.43317  1.0000
  C   C1474     1.0  0.42012  0.90857  0.42003  1.0000
  H   H2529     1.0  0.39162  0.89570  0.41953  1.0000
  H   H2530     1.0  0.38225  0.90272  0.44289  1.0000
  H   H2531     1.0  0.42110  0.91750  0.43702  1.0000
  H   H2532     1.0  0.43081  0.90995  0.41380  1.0000
  C   C1475     1.0  0.35382  0.87138  0.42639  1.0000
  C   C1476     1.0  0.36140  0.87936  0.43004  1.0000
  C   C1477     1.0  0.36006  0.87916  0.44447  1.0000
  C   C1478     1.0  0.35167  0.87046  0.45527  1.0000
  C   C1479     1.0  0.34516  0.86156  0.45158  1.0000
  C   C1480     1.0  0.34582  0.86237  0.43717  1.0000
  H   H2533     1.0  0.36791  0.88603  0.42170  1.0000
  H   H2534     1.0  0.36564  0.88557  0.44724  1.0000
  H   H2535     1.0  0.33933  0.85425  0.45987  1.0000
  H   H2536     1.0  0.34024  0.85591  0.43439  1.0000
  C   C1481     1.0  0.34304  0.95077  0.44865  1.0000
  C   C1482     1.0  0.32804  0.95279  0.45454  1.0000
  H   H2537     1.0  0.38650  0.84352  0.24724  1.0000
  H   H2538     1.0  0.46556  0.90085  0.31444  1.0000
  H   H2539     1.0  0.35058  0.94217  0.45395  1.0000
  H   H2540     1.0  0.40077  0.91866  0.29587  1.0000
  H   H2541     1.0  0.43931  0.87094  0.24277  1.0000
  C   C1483     1.0  0.30086  0.95552  0.38229  1.0000
  C   C1484     1.0  0.29277  0.95671  0.39606  1.0000
  C   C1485     1.0  0.28870  0.94461  0.40603  1.0000
  C   C1486     1.0  0.29258  0.93133  0.40219  1.0000
  C   C1487     1.0  0.29995  0.93031  0.38816  1.0000
  C   C1488     1.0  0.30406  0.94241  0.37822  1.0000
  H   H2542     1.0  0.28959  0.96695  0.39904  1.0000
  H   H2543     1.0  0.28275  0.94551  0.41678  1.0000
  H   H2544     1.0  0.30240  0.92025  0.38495  1.0000
  H   H2545     1.0  0.30984  0.94158  0.36743  1.0000
  C   C1489     1.0  0.44093  0.84811  0.34777  1.0000
  C   C1490     1.0  0.44293  0.86224  0.34386  1.0000
  C   C1491     1.0  0.45338  0.86568  0.34878  1.0000
  C   C1492     1.0  0.46196  0.85494  0.35737  1.0000
  C   C1493     1.0  0.46015  0.84082  0.36092  1.0000
  C   C1494     1.0  0.44955  0.83746  0.35630  1.0000
  H   H2546     1.0  0.43623  0.87054  0.33737  1.0000
  H   H2547     1.0  0.45491  0.87655  0.34585  1.0000
  H   H2548     1.0  0.46682  0.83249  0.36747  1.0000
  H   H2549     1.0  0.44804  0.82654  0.35933  1.0000
  C   C1495     1.0  0.35295  0.86592  0.32933  1.0000
  C   C1496     1.0  0.33937  0.87194  0.32581  1.0000
  C   C1497     1.0  0.32711  0.87619  0.33622  1.0000
  C   C1498     1.0  0.32822  0.87418  0.35035  1.0000
  C   C1499     1.0  0.34176  0.86789  0.35406  1.0000
  C   C1500     1.0  0.35419  0.86386  0.34349  1.0000
  H   H2550     1.0  0.33832  0.87344  0.31495  1.0000
  H   H2551     1.0  0.31668  0.88098  0.33333  1.0000
  H   H2552     1.0  0.34262  0.86610  0.36502  1.0000
  H   H2553     1.0  0.36463  0.85896  0.34632  1.0000
  H   H2554     1.0  0.20458  0.81611  0.40908  1.0000
  C   C1501     1.0  0.45116  0.95660  0.33501  1.0000
  C   C1502     1.0  0.45112  0.94414  0.34589  1.0000
  C   C1503     1.0  0.43871  0.94295  0.35692  1.0000
  C   C1504     1.0  0.42630  0.95420  0.35703  1.0000
  H   H2555     1.0  0.38840  0.84257  0.29766  1.0000
  H   H2556     1.0  0.43854  0.93328  0.36526  1.0000
  H   H2557     1.0  0.41665  0.95320  0.36548  1.0000
  C   C1505     1.0  0.39827  0.95338  0.29675  1.0000
  C   C1506     1.0  0.31135  0.88903  0.45917  1.0000
  C   C1507     1.0  0.39865  0.92802  0.30025  1.0000
  C   C1508     1.0  0.39444  0.92685  0.31506  1.0000
  C   C1509     1.0  0.39165  0.93902  0.32067  1.0000
  C   C1510     1.0  0.39373  0.95222  0.31155  1.0000
  H   H2558     1.0  0.38830  0.93817  0.33212  1.0000
  H   H2559     1.0  0.39191  0.96148  0.31598  1.0000
  H   H2560     1.0  0.24260  0.82802  0.47841  1.0000
  H   H2561     1.0  0.40484  0.88451  0.48084  1.0000
  C   C1511     1.0  0.28377  0.86600  0.48319  1.0000
  C   C1512     1.0  0.43474  0.85859  0.26442  1.0000
  C   C1513     1.0  0.43439  0.84481  0.27295  1.0000
  C   C1514     1.0  0.43767  0.83300  0.26658  1.0000
  C   C1515     1.0  0.40116  0.86167  0.44826  1.0000
  H   H2562     1.0  0.42045  0.87088  0.42387  1.0000
  H   H2563     1.0  0.43165  0.84323  0.28447  1.0000
  H   H2564     1.0  0.43726  0.82240  0.27326  1.0000
  C   C1516     1.0  0.46413  0.90559  0.32364  1.0000
  C   C1517     1.0  0.40051  0.94132  0.29110  1.0000
  H   H2565     1.0  0.36473  0.91135  0.42724  1.0000
  H   H2566     1.0  0.35579  0.83395  0.29096  1.0000
  H   H2567     1.0  0.48016  0.93621  0.40237  1.0000
  H   H2568     1.0  0.22881  0.77969  0.44513  1.0000
  H   H2569     1.0  0.40081  0.81892  0.30323  1.0000
  H   H2570     1.0  0.37590  0.86350  0.28394  1.0000
  C   C1518     1.0  0.24964  0.84000  0.42774  1.0000
  C   C1519     1.0  0.25280  0.83575  0.44135  1.0000
  C   C1520     1.0  0.26537  0.83840  0.44337  1.0000
  C   C1521     1.0  0.27482  0.84534  0.43181  1.0000
  C   C1522     1.0  0.27170  0.84950  0.41820  1.0000
  C   C1523     1.0  0.25917  0.84681  0.41618  1.0000
  H   H2571     1.0  0.24554  0.83048  0.45034  1.0000
  H   H2572     1.0  0.26774  0.83511  0.45392  1.0000
  H   H2573     1.0  0.27897  0.85476  0.40921  1.0000
  H   H2574     1.0  0.25680  0.85012  0.40563  1.0000
  C   C1524     1.0  0.40501  0.87409  0.36734  1.0000
  H   H2575     1.0  0.38267  0.85413  0.38731  1.0000
  H   H2576     1.0  0.41266  0.81943  0.28562  1.0000
  H   H2577     1.0  0.18804  0.86751  0.45646  1.0000
  H   H2578     1.0  0.26075  0.98635  0.44029  1.0000
  H   H2579     1.0  0.43758  0.90664  0.29401  1.0000
  H   H2580     1.0  0.39104  0.85274  0.36890  1.0000
  H   H2581     1.0  0.32937  0.96068  0.38934  1.0000
  H   H2582     1.0  0.40128  0.86692  0.27853  1.0000
  H   H2583     1.0  0.46077  0.95757  0.32650  1.0000
  C   C1525     1.0  0.21551  0.81359  0.41152  1.0000
  H   H2584     1.0  0.42456  0.87558  0.38113  1.0000
  C   C1526     1.0  0.16809  0.78893  0.43655  1.0000
  C   C1527     1.0  0.17723  0.79207  0.44339  1.0000
  H   H2585     1.0  0.41919  0.88523  0.46529  1.0000
  H   H2586     1.0  0.40536  0.84353  0.28620  1.0000
  C   C1528     1.0  0.44336  0.90703  0.30197  1.0000
  C   C1529     1.0  0.20851  0.78693  0.41044  1.0000
  H   H2587     1.0  0.18017  0.80241  0.43994  1.0000
  H   H2588     1.0  0.34606  0.95594  0.37711  1.0000
  C   C1530     1.0  0.08422  0.79512  0.45436  1.0000
  C   C1531     1.0  0.07185  0.80489  0.45965  1.0000
  C   C1532     1.0  0.07312  0.81824  0.46066  1.0000
  C   C1533     1.0  0.08672  0.82194  0.45613  1.0000
  C   C1534     1.0  0.09895  0.81249  0.45012  1.0000
  C   C1535     1.0  0.09772  0.79902  0.44933  1.0000
  H   H2589     1.0  0.06134  0.80201  0.46329  1.0000
  H   H2590     1.0  0.06355  0.82572  0.46483  1.0000
  H   H2591     1.0  0.10946  0.81537  0.44646  1.0000
  H   H2592     1.0  0.10725  0.79168  0.44486  1.0000
  N   N103      1.0  0.34996  0.91162  0.34597  1.0000
  C   C1536     1.0  0.35865  0.90563  0.35751  1.0000
  C   C1537     1.0  0.35186  0.92679  0.33925  1.0000
  C   C1538     1.0  0.35609  0.90240  0.33498  1.0000
  C   C1539     1.0  0.33427  0.91100  0.35295  1.0000
  C   C1540     1.0  0.36022  0.88940  0.36431  1.0000
  C   C1541     1.0  0.34641  0.93735  0.34935  1.0000
  C   C1542     1.0  0.35399  0.90935  0.31960  1.0000
  C   C1543     1.0  0.32308  0.91746  0.34341  1.0000
  H   H2593     1.0  0.36992  0.90754  0.35326  1.0000
  H   H2594     1.0  0.35371  0.91116  0.36657  1.0000
  H   H2595     1.0  0.34633  0.93181  0.33021  1.0000
  H   H2596     1.0  0.36359  0.92677  0.33435  1.0000
  H   H2597     1.0  0.36809  0.89841  0.33379  1.0000
  H   H2598     1.0  0.35149  0.89265  0.33856  1.0000
  H   H2599     1.0  0.33323  0.89966  0.35739  1.0000
  H   H2600     1.0  0.33024  0.91576  0.36258  1.0000
  H   H2601     1.0  0.36628  0.88264  0.35644  1.0000
  H   H2602     1.0  0.36650  0.88649  0.37278  1.0000
  H   H2603     1.0  0.34958  0.88649  0.36962  1.0000
  H   H2604     1.0  0.34769  0.94824  0.34297  1.0000
  H   H2605     1.0  0.33468  0.93826  0.35445  1.0000
  H   H2606     1.0  0.35292  0.93451  0.35760  1.0000
  H   H2607     1.0  0.35761  0.90084  0.31332  1.0000
  H   H2608     1.0  0.36096  0.91729  0.31416  1.0000
  H   H2609     1.0  0.34252  0.91443  0.31912  1.0000
  H   H2610     1.0  0.32269  0.90948  0.33773  1.0000
  H   H2611     1.0  0.32492  0.92753  0.33567  1.0000
  H   H2612     1.0  0.31210  0.92049  0.35030  1.0000
  H   H2613     1.0  0.20569  0.96361  0.47402  1.0000
  H   H2614     1.0  0.43406  0.91748  0.47171  1.0000
  H   H2615     1.0  0.21700  0.77225  0.39564  1.0000
  H   H2616     1.0  0.30876  0.90059  0.45386  1.0000
  H   H2617     1.0  0.21092  0.77340  0.43669  1.0000
  H   H2618     1.0  0.40494  0.84480  0.23897  1.0000
  C   C1544     1.0  0.37115  0.98073  0.36855  1.0000
  H   H2619     1.0  0.09135  0.77679  0.40934  1.0000
  C   C1545     1.0  0.38913  0.85385  0.45797  1.0000
  Fe  Fe234     1.0  0.13753  0.75758  0.44315  1.0000
  H   H2620     1.0  0.41021  0.84543  0.26111  1.0000
  H   H2621     1.0  0.08402  0.75235  0.44561  1.0000
  C   C1546     1.0  0.49097  0.95979  0.37541  1.0000
  Fe  Fe235     1.0  0.21426  0.81798  0.47688  1.0000
  S   S463      1.0  0.16636  0.85024  0.46978  1.0000
  H   H2622     1.0  0.13910  0.97592  0.48164  1.0000
  H   H2623     1.0  0.32045  0.86379  0.47699  1.0000
  H   H2624     1.0  0.16494  0.97091  0.46653  1.0000
  C   C1547     1.0  0.15820  0.98898  0.48620  1.0000
  H   H2625     1.0  0.41955  0.90804  0.47644  1.0000
  C   C1548     1.0  0.43891  0.86034  0.24946  1.0000
  H   H2626     1.0  0.22673  0.77591  0.47265  1.0000
  H   H2627     1.0  0.20790  0.79608  0.40100  1.0000
  H   H2628     1.0  0.08719  0.76358  0.40315  1.0000
  H   H2629     1.0  0.45609  0.98244  0.24071  1.0000
  H   H2630     1.0  0.43788  0.87275  0.42403  1.0000
  H   H2631     1.0  0.06170  0.75217  0.41468  1.0000
  C   C1549     1.0  0.44142  0.83480  0.25162  1.0000
  H   H2632     1.0  0.04986  0.74748  0.44750  1.0000
  H   H2633     1.0  0.40657  0.85580  0.43957  1.0000
  H   H2634     1.0  0.38875  0.92126  0.48627  1.0000
  H   H2635     1.0  0.22437  0.76271  0.42609  1.0000
  H   H2636     1.0  0.30791  0.83866  0.45815  1.0000
  H   H2637     1.0  0.13177  0.80426  0.48441  1.0000
  H   H2638     1.0  0.29093  0.89094  0.47482  1.0000
  C   C1550     1.0  0.08824  0.76620  0.41286  1.0000
  C   C1551     1.0  0.18306  0.78155  0.45418  1.0000
  H   H2639     1.0  0.04143  0.76668  0.45953  1.0000
  H   H2640     1.0  0.34932  0.95074  0.40219  1.0000
  C   C1552     1.0  0.13202  0.81453  0.48654  1.0000
  C   C1553     1.0  0.40024  0.84171  0.26206  1.0000
  S   S464      1.0  0.30604  0.98230  0.40510  1.0000
  C   C1554     1.0  0.32891  0.90979  0.41810  1.0000
  S   S465      1.0  0.15415  0.77122  0.43105  1.0000
  C   C1555     1.0  0.36063  0.91813  0.41768  1.0000
  C   C1556     1.0  0.33797  0.95140  0.38633  1.0000
  H   H2641     1.0  0.24376  0.77288  0.43153  1.0000
  H   H2642     1.0  0.16919  0.95487  0.47932  1.0000
  S   S466      1.0  0.35716  0.92522  0.48419  1.0000
  S   S467      1.0  0.19198  0.81468  0.47923  1.0000
  H   H2643     1.0  0.19282  0.95265  0.47775  1.0000
  S   S468      1.0  0.11978  0.75661  0.43321  1.0000
  H   H2644     1.0  0.27048  0.98230  0.45400  1.0000
  C   C1557     1.0  0.19505  0.96155  0.48087  1.0000
  H   H2645     1.0  0.39250  0.85983  0.24523  1.0000
  N   N104      1.0  0.41188  0.86334  0.45565  1.0000
  H   H2646     1.0  0.01534  0.87961  0.46273  1.0000
  H   H2647     1.0  0.45016  0.98612  0.25822  1.0000
  H   H2648     1.0  0.11522  0.87618  0.48643  1.0000
  H   H2649     1.0  0.31779  0.88315  0.45070  1.0000
  H   H2650     1.0  0.23411  0.76094  0.44566  1.0000
  S   S469      1.0  0.48606  0.89648  0.40572  1.0000
  Fe  Fe236     1.0  0.07172  0.84393  0.47785  1.0000
  Fe  Fe237     1.0  0.47291  0.89529  0.39093  1.0000
  H   H2651     1.0  0.20856  0.76388  0.41380  1.0000
  H   H2652     1.0  0.20824  0.89941  0.43912  1.0000
  Fe  Fe238     1.0  0.40870  0.99059  0.32289  1.0000
  H   H2653     1.0  0.16404  0.79688  0.42783  1.0000
  N   N105      1.0  0.06943  0.75335  0.43251  1.0000
  C   C1558     1.0  0.44226  0.84850  0.24306  1.0000
  H   H2654     1.0  0.39589  0.86695  0.47518  1.0000
  H   H2655     1.0  0.39351  0.87533  0.36682  1.0000
  N   N106      1.0  0.40795  0.86478  0.38153  1.0000
  H   H2656     1.0  0.43887  0.93971  0.29022  1.0000
  H   H2657     1.0  0.39621  0.88243  0.46100  1.0000
  C   C1559     1.0  0.41908  0.84920  0.46392  1.0000
  C   C1560     1.0  0.07370  0.76736  0.42415  1.0000
  H   H2658     1.0  0.49625  0.92481  0.35657  1.0000
  S   S470      1.0  0.42347  0.98241  0.30388  1.0000
  H   H2659     1.0  0.40231  0.89512  0.37251  1.0000
  H   H2660     1.0  0.31470  0.86088  0.45638  1.0000
  H   H2661     1.0  0.31812  0.93365  0.44007  1.0000
  H   H2662     1.0  0.38876  0.95001  0.47005  1.0000
  C   C1561     1.0  0.16426  0.77549  0.44084  1.0000
  N   N107      1.0  0.23472  0.88328  0.44630  1.0000
  C   C1562     1.0  0.22726  0.87912  0.46189  1.0000
  C   C1563     1.0  0.23000  0.89937  0.44160  1.0000
  C   C1564     1.0  0.25094  0.87924  0.44544  1.0000
  C   C1565     1.0  0.23053  0.87518  0.43788  1.0000
  C   C1566     1.0  0.23224  0.86335  0.46952  1.0000
  C   C1567     1.0  0.21341  0.90534  0.44346  1.0000
  C   C1568     1.0  0.26091  0.88377  0.43079  1.0000
  C   C1569     1.0  0.23177  0.88160  0.42165  1.0000
  H   H2663     1.0  0.22877  0.88599  0.46825  1.0000
  H   H2664     1.0  0.21527  0.88093  0.46317  1.0000
  H   H2665     1.0  0.23495  0.90338  0.43023  1.0000
  H   H2666     1.0  0.23398  0.90483  0.44763  1.0000
  H   H2667     1.0  0.25356  0.88386  0.45311  1.0000
  H   H2668     1.0  0.25480  0.86738  0.44860  1.0000
  H   H2669     1.0  0.23707  0.86398  0.43913  1.0000
  H   H2670     1.0  0.21897  0.87419  0.44231  1.0000
  H   H2671     1.0  0.24311  0.86147  0.47185  1.0000
  H   H2672     1.0  0.22454  0.86095  0.48000  1.0000
  H   H2673     1.0  0.23249  0.85562  0.46330  1.0000
  H   H2674     1.0  0.25870  0.84033  0.48377  1.0000
  C   C1570     1.0  0.27160  0.86889  0.47509  1.0000
  C   C1571     1.0  0.41278  0.93002  0.47992  1.0000
  H   H2675     1.0  0.27235  0.88069  0.43212  1.0000
  H   H2676     1.0  0.25867  0.89553  0.42640  1.0000
  H   H2677     1.0  0.26066  0.87787  0.42299  1.0000
  H   H2678     1.0  0.23523  0.87264  0.41597  1.0000
  H   H2679     1.0  0.23971  0.88852  0.41654  1.0000
  S   S471      1.0  0.17174  0.90832  0.47988  1.0000
  N   N108      1.0  0.11821  0.86918  0.45944  1.0000
  C   C1572     1.0  0.12388  0.86038  0.44809  1.0000
  C   C1573     1.0  0.10211  0.86954  0.46475  1.0000
  C   C1574     1.0  0.12615  0.86173  0.47143  1.0000
  C   C1575     1.0  0.12131  0.88393  0.45274  1.0000
  C   C1576     1.0  0.14062  0.85676  0.44258  1.0000
  C   C1577     1.0  0.09265  0.87701  0.45361  1.0000
  H   H2680     1.0  0.31824  0.88802  0.46666  1.0000
  C   C1578     1.0  0.11501  0.89530  0.46196  1.0000
  H   H2681     1.0  0.12032  0.84995  0.45207  1.0000
  H   H2682     1.0  0.11927  0.86596  0.43846  1.0000
  H   H2683     1.0  0.36986  0.83093  0.30023  1.0000
  H   H2684     1.0  0.12846  0.84986  0.47283  1.0000
  H   H2685     1.0  0.13700  0.86448  0.46872  1.0000
  H   H2686     1.0  0.13328  0.88330  0.44971  1.0000
  H   H2687     1.0  0.11794  0.88851  0.44232  1.0000
  H   H2688     1.0  0.14331  0.85036  0.43430  1.0000
  H   H2689     1.0  0.14510  0.86651  0.43742  1.0000
  H   H2690     1.0  0.14638  0.85006  0.45113  1.0000
  H   H2691     1.0  0.09369  0.88826  0.44876  1.0000
  H   H2692     1.0  0.09500  0.87089  0.44518  1.0000
  H   H2693     1.0  0.18416  0.97934  0.46689  1.0000
  H   H2694     1.0  0.23443  0.76294  0.48652  1.0000
  H   H2695     1.0  0.41887  0.93877  0.47633  1.0000
  H   H2696     1.0  0.12257  0.89473  0.46867  1.0000
  H   H2697     1.0  0.10408  0.89463  0.46878  1.0000
  H   H2698     1.0  0.11343  0.90617  0.45481  1.0000
  N   N109      1.0  0.43967  0.92350  0.31940  1.0000
  C   C1579     1.0  0.42747  0.93300  0.32793  1.0000
  C   C1580     1.0  0.44924  0.93303  0.30876  1.0000
  C   C1581     1.0  0.44809  0.91234  0.32966  1.0000
  C   C1582     1.0  0.43289  0.91646  0.31216  1.0000
  C   C1583     1.0  0.41818  0.92527  0.34164  1.0000
  C   C1584     1.0  0.44197  0.94457  0.29734  1.0000
  H   H2699     1.0  0.43180  0.94044  0.33131  1.0000
  H   H2700     1.0  0.41972  0.94009  0.32129  1.0000
  H   H2701     1.0  0.45346  0.93859  0.31449  1.0000
  H   H2702     1.0  0.44857  0.91710  0.33829  1.0000
  H   H2703     1.0  0.44238  0.90337  0.33516  1.0000
  H   H2704     1.0  0.42604  0.90938  0.32023  1.0000
  H   H2705     1.0  0.42501  0.92450  0.30621  1.0000
  H   H2706     1.0  0.41335  0.91752  0.33947  1.0000
  H   H2707     1.0  0.42445  0.91978  0.35008  1.0000
  H   H2708     1.0  0.40901  0.93342  0.34616  1.0000
  H   H2709     1.0  0.44986  0.95120  0.29048  1.0000
  H   H2710     1.0  0.46918  0.98277  0.25030  1.0000
  C   C1585     1.0  0.24363  0.77012  0.40253  1.0000
  H   H2711     1.0  0.40396  0.94220  0.27964  1.0000
  H   H2712     1.0  0.38179  0.97521  0.37144  1.0000
  H   H2713     1.0  0.47109  0.91352  0.32070  1.0000
  S   S472      1.0  0.40156  0.96969  0.28527  1.0000
  H   H2714     1.0  0.39266  0.86707  0.41671  1.0000
  C   C1586     1.0  0.37608  0.83868  0.27673  1.0000
  S   S473      1.0  0.41033  0.98002  0.34559  1.0000
  C   C1587     1.0  0.34831  0.95966  0.43564  1.0000
  H   H2715     1.0  0.35987  0.95773  0.43084  1.0000
  C   C1588     1.0  0.16773  0.86667  0.47195  1.0000
  C   C1589     1.0  0.38331  0.86112  0.27375  1.0000
  C   C1590     1.0  0.39503  0.86999  0.27007  1.0000
  C   C1591     1.0  0.36501  0.83820  0.29127  1.0000
  H   H2716     1.0  0.40744  0.93174  0.47093  1.0000
  C   C1592     1.0  0.32366  0.97311  0.43482  1.0000
  C   C1593     1.0  0.43868  0.96776  0.33501  1.0000
  H   H2717     1.0  0.35563  0.93580  0.39386  1.0000
  H   H2718     1.0  0.36976  0.84480  0.26839  1.0000
  H   H2719     1.0  0.21131  0.91675  0.43758  1.0000
  N   N110      1.0  0.38883  0.84512  0.27510  1.0000
  H   H2720     1.0  0.50286  0.96114  0.39031  1.0000
  H   H2721     1.0  0.47502  0.95026  0.35398  1.0000
  H   H2722     1.0  0.43876  0.97740  0.32661  1.0000
  H   H2723     1.0  0.36881  0.92464  0.41136  1.0000
  C   C1594     1.0  0.05423  0.75710  0.44147  1.0000
  H   H2724     1.0  0.46108  0.97067  0.37459  1.0000
  H   H2725     1.0  0.29326  0.84116  0.47317  1.0000
  C   C1595     1.0  0.50259  0.90193  0.39698  1.0000
  H   H2726     1.0  0.44696  0.89590  0.30797  1.0000
  C   C1596     1.0  0.47350  0.93912  0.39420  1.0000
  H   H2727     1.0  0.45915  0.92681  0.30275  1.0000
  C   C1597     1.0  0.42718  0.83729  0.45558  1.0000
  H   H2728     1.0  0.04647  0.76329  0.43444  1.0000
  H   H2729     1.0  0.40261  0.86927  0.25957  1.0000
  C   C1598     1.0  0.01558  0.83277  0.46908  1.0000
  H   H2730     1.0  0.02298  0.82875  0.46003  1.0000
  H   H2731     1.0  0.22091  0.88748  0.41942  1.0000
  H   H2732     1.0  0.05356  0.77721  0.44724  1.0000
  C   C1599     1.0  0.11849  0.86464  0.48643  1.0000
  C   C1600     1.0  0.34556  0.94289  0.39874  1.0000
  N   N111      1.0  0.22122  0.78576  0.41674  1.0000
  C   C1601     1.0  0.40125  0.82259  0.29155  1.0000
  H   H2733     1.0  0.37976  0.82760  0.27480  1.0000
  C   C1602     1.0  0.02066  0.83906  0.47716  1.0000
  H   H2734     1.0  0.09371  0.77699  0.48299  1.0000
  C   C1603     1.0  0.47664  0.95732  0.35995  1.0000
  N   N112      1.0  0.48792  0.94940  0.36871  1.0000
  C   C1604     1.0  0.18080  0.88569  0.46646  1.0000
  H   H2735     1.0  0.48118  0.96443  0.38283  1.0000
  H   H2736     1.0  0.36001  0.91089  0.41135  1.0000
  H   H2737     1.0  0.06506  0.77449  0.41849  1.0000
  H   H2738     1.0  0.27411  0.86155  0.46774  1.0000
  H   H2739     1.0  0.43361  0.85546  0.43078  1.0000
  S   S474      1.0  0.30774  0.97003  0.37032  1.0000
  C   C1605     1.0  0.31839  0.96418  0.44780  1.0000
  C   C1606     1.0  0.17001  0.89252  0.47648  1.0000
  H   H2740     1.0  0.42736  0.85079  0.46865  1.0000
  H   H2741     1.0  0.18369  0.75997  0.46679  1.0000
  H   H2742     1.0  0.23695  0.99008  0.48287  1.0000
  C   C1607     1.0  0.48327  0.93656  0.37955  1.0000
  H   H2743     1.0  0.33331  0.94459  0.38252  1.0000
  C   C1608     1.0  0.14667  0.96525  0.48308  1.0000
  C   C1609     1.0  0.30924  0.86352  0.48348  1.0000
  S   S475      1.0  0.44359  0.81997  0.24412  1.0000
  H   H2744     1.0  0.48042  0.96649  0.35167  1.0000
  C   C1610     1.0  0.15681  0.87365  0.48173  1.0000
  C   C1611     1.0  0.42900  0.86704  0.43019  1.0000
  H   H2745     1.0  0.20858  0.79936  0.43162  1.0000
  H   H2746     1.0  0.50241  0.94308  0.39104  1.0000
  H   H2747     1.0  0.42708  0.82664  0.46307  1.0000
  H   H2748     1.0  0.36960  0.97466  0.36149  1.0000
  C   C1612     1.0  0.34571  0.92786  0.42256  1.0000
  H   H2749     1.0  0.42195  0.83712  0.44719  1.0000
  N   N113      1.0  0.33662  0.93428  0.41143  1.0000
  H   H2750     1.0  0.34784  0.93653  0.42618  1.0000
  C   C1613     1.0  0.06916  0.74536  0.42182  1.0000
  H   H2751     1.0  0.22891  0.98589  0.46049  1.0000
  C   C1614     1.0  0.33267  0.92310  0.40653  1.0000
  H   H2752     1.0  0.30680  0.96589  0.45244  1.0000
  H   H2753     1.0  0.41869  0.88275  0.44257  1.0000
  C   C1615     1.0  0.42317  0.87097  0.44496  1.0000
  C   C1616     1.0  0.15795  0.88653  0.48399  1.0000
  C   C1617     1.0  0.16282  0.96617  0.47824  1.0000
  H   H2754     1.0  0.29667  0.86415  0.45443  1.0000
  H   H2755     1.0  0.32329  0.92804  0.40124  1.0000
  H   H2756     1.0  0.20800  0.90522  0.45488  1.0000
  H   H2757     1.0  0.43280  0.86947  0.44950  1.0000
  H   H2758     1.0  0.38958  0.88150  0.26945  1.0000
  H   H2759     1.0  0.06044  0.76106  0.45948  1.0000
  H   H2760     1.0  0.33999  0.92153  0.43246  1.0000
  H   H2761     1.0  0.45435  0.96925  0.36033  1.0000
  H   H2762     1.0  0.25339  0.97718  0.45839  1.0000
  C   C1618     1.0  0.40685  0.84983  0.38194  1.0000
  H   H2763     1.0  0.23683  0.76231  0.40450  1.0000
  H   H2764     1.0  0.44103  0.85538  0.39274  1.0000
  H   H2765     1.0  0.40277  0.89582  0.35429  1.0000
  H   H2766     1.0  0.42901  0.84367  0.39655  1.0000
  H   H2767     1.0  0.39566  0.87241  0.44278  1.0000
  H   H2768     1.0  0.22268  0.98168  0.48521  1.0000
  H   H2769     1.0  0.38159  0.86005  0.46582  1.0000
  H   H2770     1.0  0.33829  0.90048  0.41746  1.0000
  C   C1619     1.0  0.30354  0.85984  0.46252  1.0000
  H   H2771     1.0  0.31627  0.94949  0.40910  1.0000
  H   H2772     1.0  0.40897  0.84214  0.39195  1.0000
  H   H2773     1.0  0.21572  0.82238  0.41626  1.0000
  H   H2774     1.0  0.46833  0.89679  0.33217  1.0000
  C   C1620     1.0  0.39434  0.86095  0.40841  1.0000
  H   H2775     1.0  0.32513  0.91119  0.42922  1.0000
  H   H2776     1.0  0.32619  0.95372  0.41913  1.0000
  H   H2777     1.0  0.22749  0.79930  0.42671  1.0000
  H   H2778     1.0  0.43870  0.83809  0.45078  1.0000
  C   C1621     1.0  0.32313  0.94464  0.41713  1.0000
  C   C1622     1.0  0.16955  0.76526  0.45210  1.0000
  H   H2779     1.0  0.29028  0.88718  0.45872  1.0000
  H   H2780     1.0  0.46608  0.93153  0.39823  1.0000
  S   S476      1.0  0.20987  0.84030  0.46350  1.0000
  C   C1623     1.0  0.20825  0.77383  0.40527  1.0000
  C   C1624     1.0  0.23530  0.78509  0.40549  1.0000
  C   C1625     1.0  0.42934  0.85509  0.39477  1.0000
  H   H2781     1.0  0.08009  0.74299  0.41469  1.0000
  S   S477      1.0  0.34492  0.97969  0.41103  1.0000
  H   H2782     1.0  0.26923  0.88021  0.46918  1.0000
  H   H2783     1.0  0.32000  0.90663  0.41576  1.0000
  H   H2784     1.0  0.30735  0.93110  0.42904  1.0000
  H   H2785     1.0  0.10875  0.79460  0.47545  1.0000
  H   H2786     1.0  0.30390  0.94767  0.43412  1.0000
  C   C1626     1.0  0.31277  0.93860  0.43090  1.0000
  C   C1627     1.0  0.17970  0.87274  0.46422  1.0000
  H   H2787     1.0  0.40400  0.82987  0.26305  1.0000
  S   S478      1.0  0.12205  0.76550  0.46196  1.0000
  H   H2788     1.0  0.37372  0.94550  0.48463  1.0000
  H   H2789     1.0  0.09732  0.75828  0.41714  1.0000
  H   H2790     1.0  0.40017  0.88055  0.39472  1.0000
  C   C1628     1.0  0.38271  0.95130  0.48098  1.0000
  C   C1629     1.0  0.40336  0.87267  0.46621  1.0000
  H   H2791     1.0  0.40319  0.85146  0.41041  1.0000
  N   N114      1.0  0.29838  0.86838  0.47404  1.0000
  H   H2792     1.0  0.16679  0.75484  0.45541  1.0000
  C   C1630     1.0  0.18320  0.97547  0.47866  1.0000
  H   H2793     1.0  0.42380  0.85940  0.40448  1.0000
  S   S479      1.0  0.08280  0.77781  0.45485  1.0000
  H   H2794     1.0  0.41125  0.84469  0.47350  1.0000
  C   C1631     1.0  0.42333  0.86463  0.38175  1.0000
  H   H2795     1.0  0.18999  0.89037  0.46050  1.0000
  H   H2796     1.0  0.31201  0.83810  0.47460  1.0000
  H   H2797     1.0  0.13791  0.82027  0.47618  1.0000
  H   H2798     1.0  0.41551  0.84537  0.37334  1.0000
  H   H2799     1.0  0.38615  0.87542  0.39064  1.0000
  H   H2800     1.0  0.47765  0.93123  0.37494  1.0000
  H   H2801     1.0  0.14445  0.95908  0.47652  1.0000
  H   H2802     1.0  0.18642  0.98379  0.48178  1.0000
  S   S480      1.0  0.19635  0.78405  0.46157  1.0000
  C   C1632     1.0  0.17912  0.76820  0.45854  1.0000
  C   C1633     1.0  0.30412  0.84356  0.46766  1.0000
  H   H2803     1.0  0.41937  0.88946  0.36032  1.0000
  H   H2804     1.0  0.43099  0.86114  0.37220  1.0000
  C   C1634     1.0  0.39703  0.87114  0.39345  1.0000
  H   H2805     1.0  0.39167  0.83705  0.38294  1.0000
  C   C1635     1.0  0.40755  0.88948  0.36361  1.0000
  C   C1636     1.0  0.39213  0.84857  0.38019  1.0000
  H   H2806     1.0  0.38404  0.85736  0.41048  1.0000
  C   C1637     1.0  0.39554  0.84793  0.24766  1.0000
  H   H2807     1.0  0.19777  0.77593  0.40199  1.0000
  H   H2808     1.0  0.49528  0.93966  0.34108  1.0000
  C   C1638     1.0  0.22184  0.77306  0.42931  1.0000
  H   H2809     1.0  0.36212  0.97994  0.37815  1.0000
  H   H2810     1.0  0.39366  0.84286  0.46358  1.0000
  C   C1639     1.0  0.21821  0.79914  0.42242  1.0000
  C   C1640     1.0  0.23286  0.77170  0.43828  1.0000
  C   C1641     1.0  0.42389  0.91557  0.47966  1.0000
  H   H2811     1.0  0.00421  0.87524  0.44681  1.0000
  S   S481      1.0  0.37062  0.89065  0.48604  1.0000
  H   H2812     1.0  0.49307  0.92845  0.38214  1.0000
  H   H2813     1.0  0.37750  0.96288  0.48018  1.0000
  H   H2814     1.0  0.19806  0.78925  0.41838  1.0000
  H   H2815     1.0  0.22408  0.81398  0.40151  1.0000
  C   C1642     1.0  0.25932  0.98568  0.45188  1.0000
  H   H2816     1.0  0.31615  0.98179  0.42958  1.0000
  H   H2817     1.0  0.15655  0.79545  0.47553  1.0000
  H   H2818     1.0  0.39453  0.98173  0.38837  1.0000
  H   H2819     1.0  0.22028  0.75980  0.47996  1.0000
  H   H2820     1.0  0.26142  0.86695  0.48303  1.0000
  H   H2821     1.0  0.25239  0.76541  0.40864  1.0000
  H   H2822     1.0  0.03195  0.83990  0.47431  1.0000
  Fe  Fe239     1.0  0.30922  0.98633  0.38128  1.0000
  H   H2823     1.0  0.14916  0.74640  0.48128  1.0000
  H   H2824     1.0  0.37524  0.98497  0.39225  1.0000
  H   H2825     1.0  0.38241  0.85270  0.45123  1.0000
  C   C1643     1.0  0.45828  0.98790  0.24790  1.0000
  H   H2826     1.0  0.16268  0.81044  0.48701  1.0000
  C   C1644     1.0  0.22617  0.99204  0.48041  1.0000
  H   H2827     1.0  0.16889  0.78459  0.48652  1.0000
  C   C1645     1.0  0.15761  0.79117  0.48683  1.0000
  H   H2828     1.0  0.49395  0.96926  0.36703  1.0000
  H   H2829     1.0  0.11132  0.82382  0.48005  1.0000
  H   H2830     1.0  0.09091  0.80203  0.48461  1.0000
  N   N115      1.0  0.16776  0.97417  0.48616  1.0000
  Fe  Fe240     1.0  0.32638  0.99053  0.40005  1.0000
  H   H2831     1.0  0.07082  0.78596  0.48669  1.0000
  C   C1646     1.0  0.10105  0.79384  0.48607  1.0000
  C   C1647     1.0  0.50189  0.94421  0.35851  1.0000
  C   C1648     1.0  0.38445  0.99037  0.38899  1.0000
  S   S482      1.0  0.38805  0.99194  0.31657  1.0000
  Fe  Fe241     1.0  0.12396  0.74234  0.47276  1.0000
  S   S483      1.0  0.12474  0.81327  0.54930  1.0000
  Fe  Fe242     1.0  0.22738  0.84455  0.55906  1.0000
  S   S484      1.0  0.25123  0.83409  0.55374  1.0000
  S   S485      1.0  0.20845  0.83366  0.57124  1.0000
  Fe  Fe243     1.0  0.23334  0.87448  0.54514  1.0000
  S   S486      1.0  0.25740  0.86644  0.53852  1.0000
  S   S487      1.0  0.22372  0.89789  0.53841  1.0000
  Fe  Fe244     1.0  0.25123  0.84936  0.53229  1.0000
  S   S488      1.0  0.26117  0.84445  0.51047  1.0000
  Fe  Fe245     1.0  0.25514  0.85230  0.56060  1.0000
  S   S489      1.0  0.27221  0.84869  0.57350  1.0000
  S   S490      1.0  0.22721  0.85860  0.53715  1.0000
  S   S491      1.0  0.23125  0.86157  0.56770  1.0000
  C   C1649     1.0  0.38760  0.99049  0.70529  1.0000
  Fe  Fe246     1.0  0.12834  0.93327  0.51290  1.0000
  S   S492      1.0  0.12359  0.91678  0.53316  1.0000
  N   N116      1.0  0.07318  0.91826  0.53439  1.0000
  Fe  Fe247     1.0  0.15424  0.91303  0.49913  1.0000
  S   S493      1.0  0.15215  0.89503  0.51838  1.0000
  Fe  Fe248     1.0  0.12836  0.90161  0.51870  1.0000
  S   S494      1.0  0.11776  0.88284  0.52445  1.0000
  Fe  Fe249     1.0  0.14768  0.91150  0.53114  1.0000
  S   S495      1.0  0.15582  0.90546  0.55127  1.0000
  H   H2832     1.0  0.42726  0.92071  0.60047  1.0000
  S   S496      1.0  0.15230  0.92913  0.51186  1.0000
  H   H2833     1.0  0.07590  0.79701  0.50706  1.0000
  H   H2834     1.0  0.43400  0.98260  0.66682  1.0000
  S   S497      1.0  0.06961  0.81531  0.52750  1.0000
  H   H2835     1.0  0.25122  0.80371  0.61177  1.0000
  H   H2836     1.0  0.22293  0.81523  0.59797  1.0000
  H   H2837     1.0  0.15974  0.93455  0.54808  1.0000
  H   H2838     1.0  0.14548  0.83297  0.48820  1.0000
  C   C1650     1.0  0.23279  0.81994  0.59450  1.0000
  H   H2839     1.0  0.48159  0.92613  0.58907  1.0000
  Fe  Fe250     1.0  0.38768  0.94866  0.57794  1.0000
  S   S498      1.0  0.40949  0.93403  0.57870  1.0000
  Fe  Fe251     1.0  0.38804  0.94560  0.54847  1.0000
  S   S499      1.0  0.40987  0.93037  0.54676  1.0000
  S   S500      1.0  0.37462  0.95224  0.53185  1.0000
  Fe  Fe252     1.0  0.40150  0.92032  0.56968  1.0000
  S   S501      1.0  0.40515  0.89660  0.57882  1.0000
  Fe  Fe253     1.0  0.41581  0.94563  0.55589  1.0000
  S   S502      1.0  0.43763  0.95108  0.54560  1.0000
  S   S503      1.0  0.37908  0.93420  0.57050  1.0000
  S   S504      1.0  0.39454  0.96176  0.55589  1.0000
  S   S505      1.0  0.35499  0.90081  0.52295  1.0000
  C   C1651     1.0  0.09671  0.77637  0.51656  1.0000
  S   S506      1.0  0.46020  0.95261  0.62510  1.0000
  H   H2840     1.0  0.01409  0.80416  0.51714  1.0000
  S   S507      1.0  0.05657  0.83053  0.49339  1.0000
  H   H2841     1.0  0.30572  0.91428  0.53521  1.0000
  Fe  Fe254     1.0  0.47279  0.96413  0.63198  1.0000
  S   S508      1.0  0.48870  0.95351  0.64616  1.0000
  Fe  Fe255     1.0  0.44125  0.97077  0.62977  1.0000
  S   S509      1.0  0.41898  0.96968  0.64309  1.0000
  C   C1652     1.0  0.13194  0.80543  0.51261  1.0000
  C   C1653     1.0  0.19345  0.94830  0.55228  1.0000
  Fe  Fe256     1.0  0.38671  0.91456  0.69174  1.0000
  S   S510      1.0  0.40757  0.90878  0.67588  1.0000
  H   H2842     1.0  0.44289  0.92414  0.61829  1.0000
  Fe  Fe257     1.0  0.32570  0.89338  0.60343  1.0000
  S   S511      1.0  0.30721  0.90902  0.59465  1.0000
  S   S512      1.0  0.34435  0.88075  0.58979  1.0000
  Fe  Fe258     1.0  0.31144  0.89545  0.63402  1.0000
  S   S513      1.0  0.29116  0.91071  0.62804  1.0000
  S   S514      1.0  0.31691  0.88690  0.65594  1.0000
  Fe  Fe259     1.0  0.29296  0.89680  0.61290  1.0000
  S   S515      1.0  0.27289  0.89355  0.60806  1.0000
  Fe  Fe260     1.0  0.30677  0.92175  0.61015  1.0000
  S   S516      1.0  0.30274  0.94597  0.60343  1.0000
  S   S517      1.0  0.31156  0.88032  0.62086  1.0000
  S   S518      1.0  0.32687  0.90739  0.61701  1.0000
  H   H2843     1.0  0.39930  0.92955  0.51617  1.0000
  C   C1654     1.0  0.31295  0.97026  0.63081  1.0000
  C   C1655     1.0  0.30636  0.97780  0.61932  1.0000
  C   C1656     1.0  0.30347  0.97026  0.61081  1.0000
  C   C1657     1.0  0.30729  0.95519  0.61368  1.0000
  C   C1658     1.0  0.31442  0.94771  0.62479  1.0000
  C   C1659     1.0  0.31719  0.95526  0.63332  1.0000
  H   H2844     1.0  0.42358  0.93396  0.51457  1.0000
  H   H2845     1.0  0.29800  0.97611  0.60218  1.0000
  H   H2846     1.0  0.31761  0.93612  0.62691  1.0000
  H   H2847     1.0  0.32253  0.94950  0.64198  1.0000
  H   H2848     1.0  0.33398  0.91925  0.55479  1.0000
  C   C1660     1.0  0.33140  0.91477  0.67664  1.0000
  C   C1661     1.0  0.32461  0.92102  0.66506  1.0000
  C   C1662     1.0  0.32079  0.91251  0.65820  1.0000
  C   C1663     1.0  0.32301  0.89766  0.66342  1.0000
  C   C1664     1.0  0.32978  0.89133  0.67507  1.0000
  C   C1665     1.0  0.33420  0.89984  0.68153  1.0000
  H   H2849     1.0  0.32212  0.93255  0.66158  1.0000
  H   H2850     1.0  0.31562  0.91744  0.64923  1.0000
  H   H2851     1.0  0.33150  0.87983  0.67919  1.0000
  C   C1666     1.0  0.41812  0.95229  0.65298  1.0000
  C   C1667     1.0  0.42544  0.94035  0.64700  1.0000
  C   C1668     1.0  0.42278  0.92669  0.65431  1.0000
  C   C1669     1.0  0.41288  0.92510  0.66757  1.0000
  C   C1670     1.0  0.40634  0.93695  0.67383  1.0000
  C   C1671     1.0  0.40887  0.95053  0.66654  1.0000
  H   H2852     1.0  0.43253  0.94176  0.63647  1.0000
  H   H2853     1.0  0.42789  0.91754  0.64944  1.0000
  H   H2854     1.0  0.39897  0.93583  0.68418  1.0000
  H   H2855     1.0  0.40331  0.95972  0.67126  1.0000
  C   C1672     1.0  0.08629  0.87378  0.51202  1.0000
  C   C1673     1.0  0.44729  0.95414  0.55645  1.0000
  C   C1674     1.0  0.44032  0.95844  0.56940  1.0000
  C   C1675     1.0  0.44864  0.96046  0.57785  1.0000
  C   C1676     1.0  0.46388  0.95791  0.57340  1.0000
  C   C1677     1.0  0.47071  0.95369  0.56045  1.0000
  C   C1678     1.0  0.46244  0.95194  0.55196  1.0000
  H   H2856     1.0  0.42857  0.96036  0.57279  1.0000
  H   H2857     1.0  0.44331  0.96392  0.58776  1.0000
  H   H2858     1.0  0.48016  0.97025  0.67809  1.0000
  H   H2859     1.0  0.46785  0.94871  0.54193  1.0000
  C   C1679     1.0  0.36765  0.93815  0.53091  1.0000
  C   C1680     1.0  0.35819  0.94084  0.52178  1.0000
  C   C1681     1.0  0.35368  0.92946  0.51981  1.0000
  C   C1682     1.0  0.35869  0.91536  0.52692  1.0000
  C   C1683     1.0  0.36744  0.91279  0.53670  1.0000
  C   C1684     1.0  0.37201  0.92416  0.53861  1.0000
  H   H2860     1.0  0.35467  0.95167  0.51591  1.0000
  H   H2861     1.0  0.37116  0.90192  0.54239  1.0000
  H   H2862     1.0  0.37926  0.92198  0.54574  1.0000
  C   C1685     1.0  0.38837  0.89167  0.58275  1.0000
  C   C1686     1.0  0.37553  0.90069  0.58843  1.0000
  C   C1687     1.0  0.36198  0.89740  0.59060  1.0000
  C   C1688     1.0  0.36123  0.88492  0.58731  1.0000
  C   C1689     1.0  0.37408  0.87569  0.58192  1.0000
  C   C1690     1.0  0.38766  0.87901  0.57973  1.0000
  H   H2863     1.0  0.37605  0.91019  0.59122  1.0000
  H   H2864     1.0  0.35212  0.90469  0.59449  1.0000
  H   H2865     1.0  0.37351  0.86601  0.57935  1.0000
  H   H2866     1.0  0.39754  0.87199  0.57533  1.0000
  H   H2867     1.0  0.31575  0.98184  0.56339  1.0000
  H   H2868     1.0  0.23033  0.82971  0.58605  1.0000
  H   H2869     1.0  0.24573  0.83991  0.59062  1.0000
  C   C1691     1.0  0.24739  0.83250  0.60099  1.0000
  H   H2870     1.0  0.32347  0.91017  0.52388  1.0000
  H   H2871     1.0  0.20419  0.92826  0.54454  1.0000
  H   H2872     1.0  0.24641  0.80025  0.63762  1.0000
  C   C1692     1.0  0.10466  0.88401  0.51514  1.0000
  C   C1693     1.0  0.17085  0.96903  0.56907  1.0000
  C   C1694     1.0  0.47182  0.96478  0.68602  1.0000
  H   H2873     1.0  0.19269  0.77018  0.52832  1.0000
  C   C1695     1.0  0.09739  0.87278  0.51877  1.0000
  H   H2874     1.0  0.08469  0.94411  0.52452  1.0000
  C   C1696     1.0  0.19759  0.79061  0.51740  1.0000
  C   C1697     1.0  0.12170  0.96470  0.52001  1.0000
  C   C1698     1.0  0.12567  0.95688  0.53287  1.0000
  C   C1699     1.0  0.13072  0.96340  0.54070  1.0000
  C   C1700     1.0  0.37396  0.98344  0.58450  1.0000
  H   H2875     1.0  0.06212  0.94890  0.53996  1.0000
  H   H2876     1.0  0.43631  0.90297  0.58789  1.0000
  H   H2877     1.0  0.12464  0.94583  0.53692  1.0000
  H   H2878     1.0  0.13341  0.95734  0.55082  1.0000
  H   H2879     1.0  0.18103  0.94844  0.57982  1.0000
  C   C1701     1.0  0.07600  0.92796  0.51965  1.0000
  C   C1702     1.0  0.27258  0.86164  0.58246  1.0000
  C   C1703     1.0  0.28467  0.85986  0.58825  1.0000
  C   C1704     1.0  0.28513  0.86975  0.59577  1.0000
  C   C1705     1.0  0.27331  0.88133  0.59788  1.0000
  C   C1706     1.0  0.26122  0.88307  0.59211  1.0000
  C   C1707     1.0  0.26092  0.87340  0.58430  1.0000
  H   H2880     1.0  0.29372  0.85077  0.58694  1.0000
  H   H2881     1.0  0.29445  0.86820  0.60026  1.0000
  H   H2882     1.0  0.25203  0.89198  0.59370  1.0000
  H   H2883     1.0  0.25155  0.87491  0.57991  1.0000
  C   C1708     1.0  0.20495  0.89953  0.54180  1.0000
  C   C1709     1.0  0.19733  0.90729  0.53112  1.0000
  C   C1710     1.0  0.18226  0.90855  0.53382  1.0000
  C   C1711     1.0  0.17477  0.90260  0.54739  1.0000
  C   C1712     1.0  0.18239  0.89487  0.55809  1.0000
  C   C1713     1.0  0.19756  0.89310  0.55520  1.0000
  H   H2884     1.0  0.20312  0.91210  0.52070  1.0000
  H   H2885     1.0  0.17642  0.91442  0.52551  1.0000
  H   H2886     1.0  0.17660  0.89017  0.56855  1.0000
  H   H2887     1.0  0.20349  0.88700  0.56343  1.0000
  H   H2888     1.0  0.40311  0.86091  0.71433  1.0000
  C   C1714     1.0  0.40809  0.92834  0.50636  1.0000
  C   C1715     1.0  0.24092  0.82807  0.51776  1.0000
  C   C1716     1.0  0.25038  0.83524  0.50660  1.0000
  H   H2889     1.0  0.14695  0.98843  0.49251  1.0000
  H   H2890     1.0  0.00341  0.81494  0.55288  1.0000
  H   H2891     1.0  0.30867  0.90354  0.52282  1.0000
  H   H2892     1.0  0.24044  0.82796  0.52875  1.0000
  N   N117      1.0  0.14002  0.81221  0.49818  1.0000
  C   C1717     1.0  0.20419  0.82010  0.56576  1.0000
  C   C1718     1.0  0.18999  0.81757  0.57063  1.0000
  C   C1719     1.0  0.14657  0.74787  0.49213  1.0000
  H   H2893     1.0  0.18180  0.82407  0.57743  1.0000
  C   C1720     1.0  0.16683  0.96599  0.50148  1.0000
  C   C1721     1.0  0.10868  0.81410  0.54437  1.0000
  C   C1722     1.0  0.10220  0.82688  0.53599  1.0000
  C   C1723     1.0  0.09012  0.82737  0.53082  1.0000
  C   C1724     1.0  0.08424  0.81521  0.53440  1.0000
  C   C1725     1.0  0.09028  0.80267  0.54335  1.0000
  C   C1726     1.0  0.10266  0.80201  0.54812  1.0000
  H   H2894     1.0  0.10680  0.83627  0.53318  1.0000
  H   H2895     1.0  0.08529  0.83720  0.52423  1.0000
  H   H2896     1.0  0.08538  0.79347  0.54663  1.0000
  H   H2897     1.0  0.31293  0.88360  0.54028  1.0000
  N   N118      1.0  0.36687  0.90353  0.63504  1.0000
  C   C1727     1.0  0.35771  0.89502  0.63234  1.0000
  C   C1728     1.0  0.35912  0.91913  0.63194  1.0000
  C   C1729     1.0  0.38181  0.90059  0.62539  1.0000
  C   C1730     1.0  0.36245  0.87851  0.63669  1.0000
  C   C1731     1.0  0.35792  0.92582  0.61628  1.0000
  C   C1732     1.0  0.39240  0.90995  0.62432  1.0000
  H   H2898     1.0  0.34613  0.89797  0.63809  1.0000
  H   H2899     1.0  0.35760  0.89747  0.62080  1.0000
  H   H2900     1.0  0.34785  0.92064  0.63876  1.0000
  H   H2901     1.0  0.37582  0.88821  0.65242  1.0000
  H   H2902     1.0  0.38762  0.88929  0.62883  1.0000
  H   H2903     1.0  0.38114  0.90110  0.61432  1.0000
  H   H2904     1.0  0.35483  0.87371  0.63405  1.0000
  H   H2905     1.0  0.37352  0.87437  0.63063  1.0000
  H   H2906     1.0  0.36175  0.87461  0.64838  1.0000
  H   H2907     1.0  0.35123  0.92084  0.61266  1.0000
  H   H2908     1.0  0.35240  0.93734  0.61539  1.0000
  H   H2909     1.0  0.36878  0.92538  0.60887  1.0000
  H   H2910     1.0  0.39876  0.90529  0.63279  1.0000
  N   N119      1.0  0.37045  0.97040  0.64186  1.0000
  C   C1733     1.0  0.36100  0.97503  0.65534  1.0000
  C   C1734     1.0  0.36067  0.96690  0.63468  1.0000
  H   H2911     1.0  0.38555  0.94870  0.50218  1.0000
  C   C1735     1.0  0.38249  0.95777  0.64582  1.0000
  H   H2912     1.0  0.17238  0.95446  0.50212  1.0000
  C   C1736     1.0  0.35242  0.95506  0.64367  1.0000
  H   H2913     1.0  0.05118  0.79398  0.54318  1.0000
  C   C1737     1.0  0.38934  0.94749  0.63539  1.0000
  H   H2914     1.0  0.34064  0.96865  0.68964  1.0000
  H   H2915     1.0  0.35641  0.96599  0.66298  1.0000
  H   H2916     1.0  0.36668  0.96365  0.62456  1.0000
  H   H2917     1.0  0.35232  0.97664  0.63144  1.0000
  N   N120      1.0  0.33784  0.97199  0.56596  1.0000
  H   H2918     1.0  0.09764  0.77173  0.53894  1.0000
  H   H2919     1.0  0.39141  0.96165  0.64725  1.0000
  H   H2920     1.0  0.37847  0.95093  0.65635  1.0000
  H   H2921     1.0  0.47739  0.95595  0.69362  1.0000
  H   H2922     1.0  0.21537  0.74668  0.50234  1.0000
  S   S519      1.0  0.22178  0.81122  0.49749  1.0000
  H   H2923     1.0  0.34261  0.95950  0.65122  1.0000
  H   H2924     1.0  0.34849  0.95107  0.63643  1.0000
  H   H2925     1.0  0.35925  0.94582  0.64971  1.0000
  H   H2926     1.0  0.43668  0.88751  0.72205  1.0000
  C   C1738     1.0  0.49583  0.96643  0.64923  1.0000
  H   H2927     1.0  0.47151  0.94827  0.67656  1.0000
  H   H2928     1.0  0.40105  0.94327  0.63560  1.0000
  H   H2929     1.0  0.38896  0.95233  0.62405  1.0000
  H   H2930     1.0  0.38445  0.93793  0.63920  1.0000
  N   N121      1.0  0.18080  0.84978  0.52740  1.0000
  C   C1739     1.0  0.16702  0.84667  0.53796  1.0000
  C   C1740     1.0  0.19288  0.83662  0.52950  1.0000
  C   C1741     1.0  0.17828  0.85352  0.51243  1.0000
  C   C1742     1.0  0.18511  0.86224  0.52970  1.0000
  C   C1743     1.0  0.15370  0.85941  0.53846  1.0000
  C   C1744     1.0  0.19107  0.82319  0.52595  1.0000
  C   C1745     1.0  0.19193  0.85498  0.50019  1.0000
  C   C1746     1.0  0.18622  0.86123  0.54507  1.0000
  H   H2931     1.0  0.16344  0.83810  0.53557  1.0000
  H   H2932     1.0  0.16893  0.84233  0.54903  1.0000
  H   H2933     1.0  0.19391  0.83330  0.54081  1.0000
  H   H2934     1.0  0.20368  0.83887  0.52327  1.0000
  H   H2935     1.0  0.17321  0.84554  0.51085  1.0000
  H   H2936     1.0  0.17030  0.86396  0.51054  1.0000
  H   H2937     1.0  0.19596  0.86355  0.52277  1.0000
  H   H2938     1.0  0.17742  0.87254  0.52647  1.0000
  H   H2939     1.0  0.14436  0.85575  0.54665  1.0000
  H   H2940     1.0  0.15562  0.86841  0.54165  1.0000
  H   H2941     1.0  0.15016  0.86331  0.52815  1.0000
  H   H2942     1.0  0.19048  0.82490  0.51465  1.0000
  H   H2943     1.0  0.20077  0.81444  0.52757  1.0000
  H   H2944     1.0  0.18155  0.81911  0.53326  1.0000
  H   H2945     1.0  0.14412  0.95931  0.49431  1.0000
  H   H2946     1.0  0.04280  0.80935  0.52017  1.0000
  H   H2947     1.0  0.15085  0.83828  0.50810  1.0000
  H   H2948     1.0  0.17554  0.86151  0.55279  1.0000
  H   H2949     1.0  0.19016  0.87063  0.54516  1.0000
  H   H2950     1.0  0.19420  0.85156  0.54890  1.0000
  H   H2951     1.0  0.45109  0.92899  0.68066  1.0000
  N   N122      1.0  0.02355  0.81368  0.53679  1.0000
  H   H2952     1.0  0.29632  0.87020  0.50350  1.0000
  N   N123      1.0  0.44885  0.95724  0.68494  1.0000
  H   H2953     1.0  0.27166  0.93195  0.64389  1.0000
  H   H2954     1.0  0.39755  0.97308  0.61976  1.0000
  C   C1747     1.0  0.45125  0.93792  0.67105  1.0000
  C   C1748     1.0  0.01356  0.84009  0.53964  1.0000
  H   H2955     1.0  0.47972  0.98450  0.64137  1.0000
  C   C1749     1.0  0.04195  0.79677  0.55211  1.0000
  H   H2956     1.0  0.25483  0.93741  0.66404  1.0000
  H   H2957     1.0  0.14761  0.86898  0.48785  1.0000
  H   H2958     1.0  0.17988  0.96335  0.51696  1.0000
  C   C1750     1.0  0.19605  0.77575  0.51706  1.0000
  H   H2959     1.0  0.46262  0.93796  0.66492  1.0000
  H   H2960     1.0  0.32770  0.97870  0.66935  1.0000
  C   C1751     1.0  0.44752  0.91478  0.56849  1.0000
  C   C1752     1.0  0.43884  0.97119  0.68784  1.0000
  Fe  Fe261     1.0  0.04064  0.85150  0.49478  1.0000
  H   H2961     1.0  0.19198  0.74804  0.53018  1.0000
  H   H2962     1.0  0.44372  0.96049  0.66426  1.0000
  H   H2963     1.0  0.45518  0.89522  0.58274  1.0000
  C   C1753     1.0  0.32865  0.96949  0.69211  1.0000
  H   H2964     1.0  0.03170  0.79996  0.50591  1.0000
  C   C1754     1.0  0.24204  0.82812  0.48936  1.0000
  H   H2965     1.0  0.34589  0.97101  0.60945  1.0000
  H   H2966     1.0  0.45873  0.91569  0.56241  1.0000
  N   N124      1.0  0.40145  0.93131  0.49360  1.0000
  H   H2967     1.0  0.46171  0.92817  0.57872  1.0000
  H   H2968     1.0  0.36206  0.97966  0.54240  1.0000
  H   H2969     1.0  0.46584  0.92856  0.60297  1.0000
  H   H2970     1.0  0.13746  0.75321  0.53102  1.0000
  C   C1755     1.0  0.41850  0.93794  0.50514  1.0000
  H   H2971     1.0  0.18874  0.85732  0.48983  1.0000
  H   H2972     1.0  0.30080  0.98934  0.69091  1.0000
  H   H2973     1.0  0.01831  0.78590  0.54474  1.0000
  C   C1756     1.0  0.39999  0.98134  0.70971  1.0000
  Fe  Fe262     1.0  0.06347  0.86630  0.49536  1.0000
  C   C1757     1.0  0.32598  0.96498  0.72310  1.0000
  C   C1758     1.0  0.44702  0.86328  0.70935  1.0000
  H   H2974     1.0  0.45681  0.90417  0.61480  1.0000
  H   H2975     1.0  0.29100  0.91536  0.67445  1.0000
  H   H2976     1.0  0.22979  0.75187  0.53452  1.0000
  C   C1759     1.0  0.15064  0.82695  0.50894  1.0000
  C   C1760     1.0  0.00969  0.79325  0.55072  1.0000
  H   H2977     1.0  0.31556  0.86796  0.50069  1.0000
  H   H2978     1.0  0.33299  0.94848  0.54805  1.0000
  C   C1761     1.0  0.23272  0.82079  0.50060  1.0000
  N   N125      1.0  0.32065  0.98202  0.69907  1.0000
  H   H2979     1.0  0.42752  0.93760  0.49550  1.0000
  C   C1762     1.0  0.13072  0.74626  0.51574  1.0000
  H   H2980     1.0  0.47783  0.91093  0.60281  1.0000
  C   C1763     1.0  0.02022  0.82943  0.52963  1.0000
  H   H2981     1.0  0.05261  0.89943  0.52550  1.0000
  H   H2982     1.0  0.44318  0.88560  0.62516  1.0000
  C   C1764     1.0  0.21222  0.77559  0.49366  1.0000
  C   C1765     1.0  0.34132  0.96237  0.55561  1.0000
  N   N126      1.0  0.08865  0.77536  0.50611  1.0000
  C   C1766     1.0  0.24523  0.80941  0.58678  1.0000
  H   H2983     1.0  0.24660  0.79830  0.59342  1.0000
  H   H2984     1.0  0.24230  0.80891  0.57697  1.0000
  H   H2985     1.0  0.25570  0.81293  0.58338  1.0000
  C   C1767     1.0  0.03236  0.80570  0.52521  1.0000
  H   H2986     1.0  0.38119  0.91283  0.65133  1.0000
  H   H2987     1.0  0.07578  0.93714  0.54951  1.0000
  H   H2988     1.0  0.34206  0.87209  0.56429  1.0000
  C   C1768     1.0  0.44007  0.89382  0.61573  1.0000
  H   H2989     1.0  0.19696  0.79825  0.50702  1.0000
  H   H2990     1.0  0.21327  0.82513  0.61844  1.0000
  H   H2991     1.0  0.09837  0.93087  0.51594  1.0000
  H   H2992     1.0  0.23266  0.80309  0.62008  1.0000
  H   H2993     1.0  0.23112  0.75502  0.51081  1.0000
  H   H2994     1.0  0.04014  0.81919  0.54347  1.0000
  H   H2995     1.0  0.07421  0.76148  0.49345  1.0000
  H   H2996     1.0  0.11486  0.83392  0.49034  1.0000
  C   C1769     1.0  0.33219  0.96436  0.58105  1.0000
  H   H2997     1.0  0.16283  0.97443  0.56224  1.0000
  H   H2998     1.0  0.40232  0.98857  0.66588  1.0000
  C   C1770     1.0  0.34150  0.94949  0.58644  1.0000
  H   H2999     1.0  0.10897  0.77079  0.49084  1.0000
  H   H3000     1.0  0.02526  0.81495  0.55762  1.0000
  H   H3001     1.0  0.19680  0.75572  0.50289  1.0000
  H   H3002     1.0  0.08666  0.90680  0.48999  1.0000
  Fe  Fe263     1.0  0.35406  0.90464  0.49988  1.0000
  H   H3003     1.0  0.33118  0.97091  0.58882  1.0000
  H   H3004     1.0  0.32100  0.96297  0.58233  1.0000
  H   H3005     1.0  0.39227  0.94917  0.71219  1.0000
  H   H3006     1.0  0.12152  0.81275  0.51632  1.0000
  H   H3007     1.0  0.15531  0.96563  0.50701  1.0000
  H   H3008     1.0  0.16637  0.97291  0.57919  1.0000
  C   C1771     1.0  0.15288  0.75489  0.51072  1.0000
  H   H3009     1.0  0.01139  0.85115  0.53293  1.0000
  H   H3010     1.0  0.20034  0.92250  0.57146  1.0000
  H   H3011     1.0  0.34224  0.94152  0.58028  1.0000
  H   H3012     1.0  0.33632  0.94519  0.59768  1.0000
  H   H3013     1.0  0.35256  0.95016  0.58641  1.0000
  H   H3014     1.0  0.24406  0.85358  0.60585  1.0000
  H   H3015     1.0  0.02117  0.83997  0.54609  1.0000
  C   C1772     1.0  0.24365  0.81124  0.63096  1.0000
  H   H3016     1.0  0.09677  0.78775  0.51580  1.0000
  H   H3017     1.0  0.33014  0.88744  0.53679  1.0000
  H   H3018     1.0  0.34656  0.93156  0.51258  1.0000
  Fe  Fe264     1.0  0.06477  0.83482  0.51017  1.0000
  C   C1773     1.0  0.29714  0.97171  0.70908  1.0000
  H   H3019     1.0  0.39883  0.88913  0.72389  1.0000
  H   H3020     1.0  0.36135  0.98106  0.67457  1.0000
  S   S520      1.0  0.33510  0.90280  0.49264  1.0000
  H   H3021     1.0  0.03582  0.79403  0.52953  1.0000
  H   H3022     1.0  0.12641  0.78933  0.50457  1.0000
  H   H3023     1.0  0.01077  0.79058  0.56201  1.0000
  S   S521      1.0  0.47503  0.95899  0.58392  1.0000
  C   C1774     1.0  0.15607  0.75300  0.49669  1.0000
  H   H3024     1.0  0.38755  0.89985  0.50463  1.0000
  S   S522      1.0  0.08127  0.84647  0.49458  1.0000
  H   H3025     1.0  0.41957  0.85620  0.73582  1.0000
  H   H3026     1.0  0.08695  0.94493  0.50599  1.0000
  C   C1775     1.0  0.37682  0.98475  0.70354  1.0000
  C   C1776     1.0  0.25112  0.83508  0.49240  1.0000
  H   H3027     1.0  0.05755  0.94061  0.55874  1.0000
  H   H3028     1.0  0.27210  0.92040  0.67427  1.0000
  C   C1777     1.0  0.14108  0.82681  0.49903  1.0000
  H   H3029     1.0  0.30417  0.96117  0.70757  1.0000
  C   C1778     1.0  0.23238  0.82059  0.51477  1.0000
  H   H3030     1.0  0.31600  0.96085  0.72565  1.0000
  H   H3031     1.0  0.13806  0.80380  0.52094  1.0000
  H   H3032     1.0  0.09352  0.75365  0.48918  1.0000
  H   H3033     1.0  0.21561  0.78556  0.49311  1.0000
  H   H3034     1.0  0.31739  0.98774  0.71938  1.0000
  H   H3035     1.0  0.18120  0.97267  0.56397  1.0000
  C   C1779     1.0  0.32881  0.95574  0.55568  1.0000
  C   C1780     1.0  0.43746  0.93133  0.60977  1.0000
  H   H3036     1.0  0.31962  0.96407  0.55198  1.0000
  C   C1781     1.0  0.28306  0.92149  0.66765  1.0000
  H   H3037     1.0  0.46511  0.96543  0.66692  1.0000
  H   H3038     1.0  0.41258  0.94920  0.50537  1.0000
  H   H3039     1.0  0.35144  0.98377  0.65289  1.0000
  H   H3040     1.0  0.39539  0.90517  0.51579  1.0000
  H   H3041     1.0  0.32717  0.95902  0.69934  1.0000
  S   S523      1.0  0.45331  0.98066  0.63888  1.0000
  H   H3042     1.0  0.04552  0.91648  0.53025  1.0000
  C   C1782     1.0  0.22271  0.76402  0.51481  1.0000
  S   S524      1.0  0.41361  0.98834  0.71206  1.0000
  H   H3043     1.0  0.36034  0.96663  0.56782  1.0000
  H   H3044     1.0  0.10837  0.77073  0.51400  1.0000
  S   S525      1.0  0.16501  0.76150  0.51594  1.0000
  H   H3045     1.0  0.09175  0.92065  0.54076  1.0000
  H   H3046     1.0  0.22114  0.76998  0.53490  1.0000
  C   C1783     1.0  0.06455  0.93891  0.54819  1.0000
  H   H3047     1.0  0.38484  0.97965  0.57860  1.0000
  H   H3048     1.0  0.25024  0.96298  0.67696  1.0000
  H   H3049     1.0  0.40014  0.91048  0.61370  1.0000
  S   S526      1.0  0.31458  0.97902  0.64317  1.0000
  H   H3050     1.0  0.06565  0.93517  0.51713  1.0000
  S   S527      1.0  0.36991  0.93375  0.68468  1.0000
  N   N127      1.0  0.23574  0.82383  0.60686  1.0000
  C   C1784     1.0  0.36768  0.89855  0.65063  1.0000
  H   H3051     1.0  0.10021  0.86338  0.52698  1.0000
  H   H3052     1.0  0.37308  0.90320  0.66831  1.0000
  C   C1785     1.0  0.14007  0.75168  0.52021  1.0000
  H   H3053     1.0  0.34464  0.96835  0.54441  1.0000
  C   C1786     1.0  0.21467  0.81161  0.55697  1.0000
  H   H3054     1.0  0.35707  0.89623  0.65739  1.0000
  S   S528      1.0  0.37065  0.90048  0.70215  1.0000
  H   H3055     1.0  0.43673  0.88823  0.60941  1.0000
  C   C1787     1.0  0.37125  0.90892  0.65745  1.0000
  H   H3056     1.0  0.13014  0.83332  0.50297  1.0000
  C   C1788     1.0  0.09076  0.77021  0.53256  1.0000
  C   C1789     1.0  0.31380  0.90577  0.53034  1.0000
  H   H3057     1.0  0.22562  0.81344  0.55312  1.0000
  H   H3058     1.0  0.40643  0.90018  0.49927  1.0000
  S   S529      1.0  0.33525  0.92625  0.68509  1.0000
  C   C1790     1.0  0.08707  0.93745  0.51661  1.0000
  H   H3059     1.0  0.44956  0.85269  0.71676  1.0000
  H   H3060     1.0  0.40603  0.88664  0.70615  1.0000
  Fe  Fe265     1.0  0.35355  0.92041  0.69679  1.0000
  H   H3061     1.0  0.33925  0.89491  0.69060  1.0000
  H   H3062     1.0  0.11888  0.78942  0.52281  1.0000
  H   H3063     1.0  0.47236  0.91032  0.58056  1.0000
  S   S530      1.0  0.37400  0.95535  0.59794  1.0000
  N   N128      1.0  0.45062  0.91228  0.59414  1.0000
  H   H3064     1.0  0.36440  0.92610  0.63479  1.0000
  H   H3065     1.0  0.38706  0.92127  0.62452  1.0000
  H   H3066     1.0  0.25835  0.82538  0.59837  1.0000
  H   H3067     1.0  0.46445  0.97307  0.69168  1.0000
  H   H3068     1.0  0.33551  0.95713  0.71868  1.0000
  C   C1791     1.0  0.13263  0.97752  0.53538  1.0000
  C   C1792     1.0  0.36613  0.97366  0.59439  1.0000
  C   C1793     1.0  0.24075  0.81000  0.61702  1.0000
  H   H3069     1.0  0.19675  0.94318  0.53132  1.0000
  H   H3070     1.0  0.07807  0.90529  0.56277  1.0000
  C   C1794     1.0  0.33373  0.86784  0.56219  1.0000
  H   H3071     1.0  0.25327  0.81594  0.62877  1.0000
  C   C1795     1.0  0.20587  0.75325  0.50852  1.0000
  H   H3072     1.0  0.20774  0.79013  0.52051  1.0000
  H   H3073     1.0  0.28842  0.89732  0.54796  1.0000
  H   H3074     1.0  0.32726  0.89707  0.56985  1.0000
  H   H3075     1.0  0.24314  0.83946  0.62180  1.0000
  H   H3076     1.0  0.21026  0.84387  0.59656  1.0000
  C   C1796     1.0  0.31840  0.89167  0.54112  1.0000
  H   H3077     1.0  0.29860  0.89868  0.57418  1.0000
  H   H3078     1.0  0.16341  0.97714  0.51865  1.0000
  H   H3079     1.0  0.36190  0.91816  0.65901  1.0000
  C   C1797     1.0  0.20208  0.94007  0.54045  1.0000
  C   C1798     1.0  0.32446  0.96979  0.67823  1.0000
  H   H3080     1.0  0.29847  0.91172  0.55814  1.0000
  H   H3081     1.0  0.44319  0.90958  0.56255  1.0000
  C   C1799     1.0  0.35211  0.97857  0.60204  1.0000
  H   H3082     1.0  0.22204  0.85334  0.59962  1.0000
  H   H3083     1.0  0.42698  0.85782  0.71125  1.0000
  H   H3084     1.0  0.21295  0.94283  0.53616  1.0000
  H   H3085     1.0  0.43674  0.93310  0.58820  1.0000
  H   H3086     1.0  0.44057  0.92566  0.56837  1.0000
  C   C1800     1.0  0.18631  0.80661  0.56683  1.0000
  H   H3087     1.0  0.20048  0.94581  0.56007  1.0000
  H   H3088     1.0  0.32472  0.94914  0.56629  1.0000
  H   H3089     1.0  0.20487  0.85187  0.61163  1.0000
  N   N129      1.0  0.20930  0.76699  0.50890  1.0000
  C   C1801     1.0  0.22144  0.83203  0.61420  1.0000
  C   C1802     1.0  0.21443  0.84604  0.60481  1.0000
  C   C1803     1.0  0.32501  0.97999  0.71301  1.0000
  H   H3090     1.0  0.45786  0.93653  0.69737  1.0000
  H   H3091     1.0  0.48246  0.95176  0.55695  1.0000
  H   H3092     1.0  0.28543  0.96320  0.64020  1.0000
  H   H3093     1.0  0.29230  0.96180  0.66210  1.0000
  H   H3094     1.0  0.19272  0.95990  0.54715  1.0000
  H   H3095     1.0  0.18899  0.90980  0.57838  1.0000
  H   H3096     1.0  0.21937  0.79370  0.54697  1.0000
  C   C1804     1.0  0.30432  0.98462  0.70127  1.0000
  S   S531      1.0  0.11591  0.95624  0.51000  1.0000
  C   C1805     1.0  0.19692  0.79781  0.55843  1.0000
  Fe  Fe266     1.0  0.13927  0.79123  0.55334  1.0000
  H   H3097     1.0  0.46247  0.89165  0.60387  1.0000
  C   C1806     1.0  0.24842  0.84209  0.61035  1.0000
  H   H3098     1.0  0.26011  0.84131  0.60979  1.0000
  H   H3099     1.0  0.17538  0.80470  0.57075  1.0000
  C   C1807     1.0  0.18889  0.92144  0.57604  1.0000
  S   S532      1.0  0.14983  0.78167  0.57227  1.0000
  H   H3100     1.0  0.32422  0.92001  0.54205  1.0000
  H   H3101     1.0  0.06750  0.78345  0.51869  1.0000
  H   H3102     1.0  0.10739  0.79225  0.55490  1.0000
  C   C1808     1.0  0.31825  0.87734  0.56551  1.0000
  H   H3103     1.0  0.18245  0.92389  0.55665  1.0000
  C   C1809     1.0  0.42727  0.90034  0.70447  1.0000
  C   C1810     1.0  0.40584  0.88111  0.71757  1.0000
  H   H3104     1.0  0.29579  0.93739  0.65594  1.0000
  H   H3105     1.0  0.27349  0.96703  0.67126  1.0000
  C   C1811     1.0  0.17888  0.92963  0.56551  1.0000
  C   C1812     1.0  0.35157  0.97627  0.56546  1.0000
  H   H3106     1.0  0.15998  0.79859  0.50415  1.0000
  S   S533      1.0  0.16995  0.75727  0.55439  1.0000
  C   C1813     1.0  0.00921  0.80933  0.54400  1.0000
  C   C1814     1.0  0.45325  0.90051  0.60710  1.0000
  H   H3107     1.0  0.27757  0.90078  0.56482  1.0000
  C   C1815     1.0  0.27647  0.96239  0.64995  1.0000
  C   C1816     1.0  0.28115  0.96770  0.66073  1.0000
  H   H3108     1.0  0.28710  0.93970  0.63571  1.0000
  H   H3109     1.0  0.26682  0.97053  0.64679  1.0000
  S   S534      1.0  0.14025  0.98473  0.54503  1.0000
  N   N130      1.0  0.17853  0.94547  0.55992  1.0000
  C   C1817     1.0  0.08634  0.90101  0.55394  1.0000
  Fe  Fe267     1.0  0.46514  0.96771  0.60375  1.0000
  H   H3110     1.0  0.15942  0.94956  0.53332  1.0000
  H   H3111     1.0  0.27136  0.96244  0.62491  1.0000
  H   H3112     1.0  0.44565  0.93558  0.66402  1.0000
  C   C1818     1.0  0.32450  0.91606  0.55349  1.0000
  H   H3113     1.0  0.22236  0.83500  0.62373  1.0000
  H   H3114     1.0  0.23402  0.81717  0.63756  1.0000
  C   C1819     1.0  0.17322  0.95247  0.57263  1.0000
  C   C1820     1.0  0.16593  0.94277  0.54124  1.0000
  C   C1821     1.0  0.17264  0.97213  0.51089  1.0000
  H   H3115     1.0  0.11627  0.75206  0.57724  1.0000
  N   N131      1.0  0.31591  0.89250  0.55651  1.0000
  C   C1822     1.0  0.32683  0.89958  0.55837  1.0000
  S   S535      1.0  0.38641  0.92115  0.71156  1.0000
  Fe  Fe268     1.0  0.36811  0.93933  0.70536  1.0000
  H   H3116     1.0  0.28757  0.97277  0.70468  1.0000
  C   C1823     1.0  0.16774  0.95216  0.55032  1.0000
  H   H3117     1.0  0.16767  0.92791  0.57091  1.0000
  H   H3118     1.0  0.08149  0.74381  0.50246  1.0000
  C   C1824     1.0  0.44729  0.90561  0.58385  1.0000
  H   H3119     1.0  0.45629  0.95536  0.71162  1.0000
  C   C1825     1.0  0.44749  0.95005  0.71250  1.0000
  H   H3120     1.0  0.31476  0.92166  0.56028  1.0000
  S   S536      1.0  0.44502  0.98503  0.60787  1.0000
  C   C1826     1.0  0.08365  0.75477  0.49792  1.0000
  H   H3121     1.0  0.09709  0.89811  0.55691  1.0000
  C   C1827     1.0  0.21109  0.80041  0.55351  1.0000
  C   C1828     1.0  0.12872  0.98538  0.52247  1.0000
  C   C1829     1.0  0.27537  0.94218  0.64116  1.0000
  C   C1830     1.0  0.28457  0.93727  0.66264  1.0000
  H   H3122     1.0  0.43179  0.90932  0.70471  1.0000
  H   H3123     1.0  0.28452  0.94065  0.67232  1.0000
  H   H3124     1.0  0.25525  0.95509  0.63384  1.0000
  H   H3125     1.0  0.28171  0.97917  0.65634  1.0000
  H   H3126     1.0  0.33598  0.98239  0.71089  1.0000
  H   H3127     1.0  0.22785  0.77352  0.51075  1.0000
  H   H3128     1.0  0.17025  0.96232  0.54298  1.0000
  H   H3129     1.0  0.19651  0.86404  0.50003  1.0000
  H   H3130     1.0  0.33696  0.86623  0.55108  1.0000
  H   H3131     1.0  0.44229  0.94095  0.60528  1.0000
  H   H3132     1.0  0.33804  0.89518  0.55265  1.0000
  H   H3133     1.0  0.38310  0.98643  0.63767  1.0000
  S   S537      1.0  0.16041  0.78997  0.53716  1.0000
  N   N132      1.0  0.27350  0.94746  0.65451  1.0000
  H   H3134     1.0  0.09570  0.90696  0.53146  1.0000
  H   H3135     1.0  0.16271  0.94971  0.57925  1.0000
  H   H3136     1.0  0.17631  0.93741  0.53521  1.0000
  H   H3137     1.0  0.45140  0.87115  0.71184  1.0000
  H   H3138     1.0  0.08042  0.92147  0.51130  1.0000
  C   C1831     1.0  0.30054  0.89997  0.56237  1.0000
  C   C1832     1.0  0.28828  0.89493  0.55953  1.0000
  H   H3139     1.0  0.31077  0.87132  0.56443  1.0000
  C   C1833     1.0  0.06138  0.92610  0.54469  1.0000
  C   C1834     1.0  0.43057  0.86794  0.70957  1.0000
  H   H3140     1.0  0.27952  0.87302  0.49106  1.0000
  H   H3141     1.0  0.30298  0.98938  0.61732  1.0000
  H   H3142     1.0  0.05838  0.79914  0.49514  1.0000
  H   H3143     1.0  0.05131  0.93058  0.54042  1.0000
  H   H3144     1.0  0.15653  0.95541  0.55678  1.0000
  S   S538      1.0  0.13058  0.91868  0.49843  1.0000
  H   H3145     1.0  0.43847  0.94109  0.70091  1.0000
  H   H3146     1.0  0.41648  0.90529  0.70181  1.0000
  H   H3147     1.0  0.01239  0.83162  0.52268  1.0000
  C   C1835     1.0  0.08240  0.88606  0.50168  1.0000
  H   H3148     1.0  0.44136  0.97474  0.69626  1.0000
  H   H3149     1.0  0.14945  0.89176  0.49159  1.0000
  H   H3150     1.0  0.37900  0.97297  0.66573  1.0000
  C   C1836     1.0  0.08635  0.76022  0.50976  1.0000
  H   H3151     1.0  0.10916  0.81723  0.49895  1.0000
  C   C1837     1.0  0.43864  0.98415  0.67501  1.0000
  C   C1838     1.0  0.25802  0.94766  0.66286  1.0000
  H   H3152     1.0  0.25026  0.95576  0.65677  1.0000
  H   H3153     1.0  0.26266  0.94680  0.68377  1.0000
  H   H3154     1.0  0.06395  0.89931  0.54410  1.0000
  C   C1839     1.0  0.44320  0.95265  0.67469  1.0000
  H   H3155     1.0  0.18645  0.77754  0.51240  1.0000
  H   H3156     1.0  0.09149  0.75847  0.53495  1.0000
  H   H3157     1.0  0.18843  0.79518  0.52541  1.0000
  H   H3158     1.0  0.33388  0.85705  0.56944  1.0000
  H   H3159     1.0  0.31570  0.87745  0.57712  1.0000
  H   H3160     1.0  0.07941  0.77585  0.53644  1.0000
  H   H3161     1.0  0.43144  0.95235  0.67894  1.0000
  H   H3162     1.0  0.44957  0.98663  0.67015  1.0000
  H   H3163     1.0  0.28865  0.88336  0.56406  1.0000
  H   H3164     1.0  0.10649  0.90492  0.50182  1.0000
  H   H3165     1.0  0.08057  0.86516  0.51502  1.0000
  C   C1840     1.0  0.40163  0.96641  0.71221  1.0000
  C   C1841     1.0  0.22058  0.76057  0.53132  1.0000
  C   C1842     1.0  0.12299  0.97905  0.51493  1.0000
  C   C1843     1.0  0.25389  0.95120  0.67777  1.0000
  H   H3166     1.0  0.32910  0.98995  0.55018  1.0000
  S   S539      1.0  0.04775  0.85496  0.51285  1.0000
  H   H3167     1.0  0.42596  0.93491  0.61531  1.0000
  S   S540      1.0  0.13562  0.77049  0.55152  1.0000
  H   H3168     1.0  0.07706  0.89820  0.52791  1.0000
  Fe  Fe269     1.0  0.36912  0.90837  0.72181  1.0000
  C   C1844     1.0  0.46428  0.95883  0.67804  1.0000
  C   C1845     1.0  0.47260  0.92099  0.59619  1.0000
  C   C1846     1.0  0.06793  0.90577  0.53329  1.0000
  H   H3169     1.0  0.26921  0.94702  0.62077  1.0000
  N   N133      1.0  0.42101  0.87647  0.72045  1.0000
  H   H3170     1.0  0.22551  0.81462  0.52351  1.0000
  C   C1847     1.0  0.07431  0.78615  0.50774  1.0000
  C   C1848     1.0  0.10092  0.89622  0.50464  1.0000
  C   C1849     1.0  0.43773  0.92422  0.59777  1.0000
  H   H3171     1.0  0.21049  0.75697  0.53757  1.0000
  Fe  Fe270     1.0  0.17093  0.77917  0.55579  1.0000
  Fe  Fe271     1.0  0.14786  0.76064  0.56919  1.0000
  Fe  Fe272     1.0  0.15784  0.76838  0.53701  1.0000
  C   C1850     1.0  0.09819  0.77854  0.49133  1.0000
  C   C1851     1.0  0.46424  0.91800  0.58674  1.0000
  S   S541      1.0  0.35053  0.92719  0.71732  1.0000
  C   C1852     1.0  0.12878  0.79071  0.51420  1.0000
  H   H3172     1.0  0.41425  0.91710  0.50891  1.0000
  H   H3173     1.0  0.42744  0.96973  0.69206  1.0000
  H   H3174     1.0  0.11982  0.98517  0.50503  1.0000
  C   C1853     1.0  0.15536  0.80342  0.49442  1.0000
  H   H3175     1.0  0.43469  0.89514  0.69581  1.0000
  H   H3176     1.0  0.43063  0.90193  0.61990  1.0000
  H   H3177     1.0  0.14607  0.82258  0.52037  1.0000
  H   H3178     1.0  0.05775  0.91866  0.55497  1.0000
  H   H3179     1.0  0.05895  0.91455  0.51373  1.0000
  H   H3180     1.0  0.42923  0.87359  0.69850  1.0000
  H   H3181     1.0  0.38046  0.92579  0.50306  1.0000
  C   C1854     1.0  0.30631  0.87197  0.49519  1.0000
  C   C1855     1.0  0.05553  0.90954  0.52523  1.0000
  S   S542      1.0  0.19322  0.78319  0.55418  1.0000
  H   H3182     1.0  0.13801  0.78204  0.51725  1.0000
  S   S543      1.0  0.36454  0.96308  0.70396  1.0000
  C   C1856     1.0  0.38711  0.98058  0.61799  1.0000
  C   C1857     1.0  0.39270  0.94664  0.49176  1.0000
  H   H3183     1.0  0.24478  0.94606  0.68455  1.0000
  C   C1858     1.0  0.44827  0.94568  0.69858  1.0000
  H   H3184     1.0  0.08437  0.89087  0.55305  1.0000
  H   H3185     1.0  0.05685  0.78063  0.50196  1.0000
  H   H3186     1.0  0.43676  0.95708  0.71602  1.0000
  C   C1859     1.0  0.37847  0.96984  0.70596  1.0000
  C   C1860     1.0  0.08717  0.91217  0.53960  1.0000
  H   H3187     1.0  0.28476  0.85485  0.48983  1.0000
  H   H3188     1.0  0.44855  0.94024  0.72122  1.0000
  C   C1861     1.0  0.02480  0.80723  0.51306  1.0000
  C   C1862     1.0  0.39097  0.96067  0.71020  1.0000
  C   C1863     1.0  0.06463  0.78785  0.49733  1.0000
  H   H3189     1.0  0.19640  0.95807  0.49209  1.0000
  C   C1864     1.0  0.36856  0.98035  0.66388  1.0000
  H   H3190     1.0  0.07710  0.75874  0.51916  1.0000
  C   C1865     1.0  0.37664  0.98300  0.63225  1.0000
  H   H3191     1.0  0.45317  0.86228  0.69834  1.0000
  H   H3192     1.0  0.18480  0.92470  0.58646  1.0000
  H   H3193     1.0  0.35089  0.95343  0.55744  1.0000
  C   C1866     1.0  0.39114  0.92153  0.49643  1.0000
  H   H3194     1.0  0.33031  0.95959  0.67479  1.0000
  H   H3195     1.0  0.28578  0.91621  0.65852  1.0000
  C   C1867     1.0  0.35816  0.98557  0.55115  1.0000
  C   C1868     1.0  0.48931  0.98105  0.64577  1.0000
  S   S544      1.0  0.47932  0.97782  0.61032  1.0000
  H   H3196     1.0  0.02350  0.81826  0.50626  1.0000
  H   H3197     1.0  0.41109  0.95926  0.71579  1.0000
  C   C1869     1.0  0.26720  0.95244  0.62970  1.0000
  H   H3198     1.0  0.15017  0.78383  0.49239  1.0000
  H   H3199     1.0  0.10621  0.79642  0.49323  1.0000
  H   H3200     1.0  0.16212  0.82122  0.50582  1.0000
  C   C1870     1.0  0.39750  0.86904  0.72086  1.0000
  C   C1871     1.0  0.39566  0.90583  0.50443  1.0000
  C   C1872     1.0  0.20170  0.74298  0.52300  1.0000
  H   H3201     1.0  0.31269  0.97031  0.67981  1.0000
  C   C1873     1.0  0.42596  0.88991  0.71926  1.0000
  C   C1874     1.0  0.03242  0.81182  0.54762  1.0000
  H   H3202     1.0  0.04693  0.79688  0.56079  1.0000
  H   H3203     1.0  0.03027  0.83271  0.52241  1.0000
  H   H3204     1.0  0.03572  0.78821  0.55631  1.0000
  H   H3205     1.0  0.20207  0.77927  0.48947  1.0000
  H   H3206     1.0  0.41833  0.89606  0.72720  1.0000
  H   H3207     1.0  0.09615  0.75237  0.51296  1.0000
  C   C1875     1.0  0.08970  0.89729  0.49800  1.0000
  H   H3208     1.0  0.38223  0.97685  0.61139  1.0000
  H   H3209     1.0  0.10886  0.85971  0.49112  1.0000
  H   H3210     1.0  0.17904  0.98035  0.50489  1.0000
  S   S545      1.0  0.01648  0.85411  0.49783  1.0000
  H   H3211     1.0  0.12608  0.85966  0.49377  1.0000
  H   H3212     1.0  0.30969  0.85211  0.48922  1.0000
  H   H3213     1.0  0.39531  0.86378  0.73241  1.0000
  S   S546      1.0  0.06831  0.88763  0.49345  1.0000
  H   H3214     1.0  0.12091  0.74363  0.52314  1.0000
  H   H3215     1.0  0.32783  0.96557  0.73338  1.0000
  C   C1876     1.0  0.13401  0.74427  0.50173  1.0000
  C   C1877     1.0  0.01097  0.84477  0.48849  1.0000
  H   H3216     1.0  0.20053  0.84495  0.50053  1.0000
  H   H3217     1.0  0.34974  0.98221  0.57391  1.0000
  H   H3218     1.0  0.38664  0.87384  0.71823  1.0000
  H   H3219     1.0  0.39997  0.95439  0.48822  1.0000
  H   H3220     1.0  0.29327  0.97144  0.72073  1.0000
  C   C1878     1.0  0.11598  0.82287  0.48931  1.0000
  H   H3221     1.0  0.16591  0.75555  0.48929  1.0000
  C   C1879     1.0  0.42011  0.86733  0.73550  1.0000
  C   C1880     1.0  0.32623  0.98499  0.56181  1.0000
  H   H3222     1.0  0.36783  0.98841  0.55246  1.0000
  H   H3223     1.0  0.30563  0.88363  0.49082  1.0000
  H   H3224     1.0  0.38985  0.99097  0.61158  1.0000
  H   H3225     1.0  0.42736  0.91039  0.48986  1.0000
  C   C1881     1.0  0.49552  0.99138  0.64750  1.0000
  H   H3226     1.0  0.37022  0.99136  0.65865  1.0000
  H   H3227     1.0  0.36709  0.99188  0.70046  1.0000
  H   H3228     1.0  0.44333  0.86201  0.73701  1.0000
  H   H3229     1.0  0.46870  0.96043  0.85693  1.0000
  Fe  Fe273     1.0  0.45910  0.80453  0.97139  1.0000
  H   H3230     1.0  0.45498  0.86880  0.86928  1.0000
  S   S547      1.0  0.44569  0.78981  0.97078  1.0000
  H   H3231     1.0  0.45267  0.83786  0.90302  1.0000
  H   H3232     1.0  0.47052  0.82840  0.87504  1.0000
  C   C1882     1.0  0.47436  0.78309  0.84418  1.0000
  S   S548      1.0  0.45347  0.82839  0.96996  1.0000
  Fe  Fe274     1.0  0.45897  0.91705  0.85780  1.0000
  H   H3233     1.0  0.46523  0.76093  0.94604  1.0000
  S   S549      1.0  0.45666  0.91530  0.83663  1.0000
  Fe  Fe275     1.0  0.45350  0.93726  0.87735  1.0000
  S   S550      1.0  0.44502  0.95950  0.88182  1.0000
  H   H3234     1.0  0.44573  0.81283  0.94527  1.0000
  Fe  Fe276     1.0  0.44999  0.90641  0.88954  1.0000
  S   S551      1.0  0.43797  0.89106  0.90655  1.0000
  H   H3235     1.0  0.48466  0.83758  0.87098  1.0000
  S   S552      1.0  0.43937  0.92467  0.87410  1.0000
  H   H3236     1.0  0.48403  0.77398  0.84476  1.0000
  H   H3237     1.0  0.43992  0.81474  0.92199  1.0000
  H   H3238     1.0  0.48518  0.76793  0.82373  1.0000
  C   C1883     1.0  0.49714  0.83246  0.80764  1.0000
  H   H3239     1.0  0.39352  0.84988  0.85450  1.0000
  H   H3240     1.0  0.48725  0.86707  0.88674  1.0000
  C   C1884     1.0  0.48125  0.87733  0.82440  1.0000
  H   H3241     1.0  0.47739  0.83980  0.84512  1.0000
  H   H3242     1.0  0.43316  0.98650  0.85439  1.0000
  S   S553      1.0  0.43197  0.79481  0.91114  1.0000
  H   H3243     1.0  0.47303  0.88433  0.83118  1.0000
  H   H3244     1.0  0.42038  0.81210  0.86757  1.0000
  C   C1885     1.0  0.47873  0.97705  0.85691  1.0000
  H   H3245     1.0  0.48980  0.78558  0.93575  1.0000
  Fe  Fe277     1.0  0.42524  0.85986  0.82565  1.0000
  S   S554      1.0  0.44091  0.86576  0.80490  1.0000
  S   S555      1.0  0.42025  0.86918  0.84503  1.0000
  Fe  Fe278     1.0  0.41784  0.83722  0.81594  1.0000
  S   S556      1.0  0.43264  0.84136  0.79412  1.0000
  S   S557      1.0  0.40394  0.82104  0.82197  1.0000
  Fe  Fe279     1.0  0.44841  0.84208  0.80630  1.0000
  S   S558      1.0  0.47220  0.83145  0.80099  1.0000
  Fe  Fe280     1.0  0.42368  0.86469  0.79459  1.0000
  S   S559      1.0  0.41943  0.88324  0.77583  1.0000
  S   S560      1.0  0.43427  0.83619  0.82804  1.0000
  S   S561      1.0  0.40742  0.86050  0.81540  1.0000
  C   C1886     1.0  0.41406  0.77933  0.85509  1.0000
  C   C1887     1.0  0.40479  0.78085  0.84613  1.0000
  C   C1888     1.0  0.40170  0.79372  0.83610  1.0000
  C   C1889     1.0  0.40805  0.80511  0.83477  1.0000
  C   C1890     1.0  0.41735  0.80363  0.84371  1.0000
  C   C1891     1.0  0.42027  0.79079  0.85394  1.0000
  H   H3246     1.0  0.39991  0.77205  0.84698  1.0000
  H   H3247     1.0  0.39444  0.79480  0.82927  1.0000
  H   H3248     1.0  0.42216  0.81241  0.84282  1.0000
  H   H3249     1.0  0.42735  0.78969  0.86089  1.0000
  C   C1892     1.0  0.38270  0.89040  0.75281  1.0000
  S   S562      1.0  0.48454  0.84256  0.93547  1.0000
  C   C1893     1.0  0.40288  0.89783  0.75618  1.0000
  C   C1894     1.0  0.40503  0.88578  0.76741  1.0000
  C   C1895     1.0  0.39581  0.87616  0.77153  1.0000
  C   C1896     1.0  0.38466  0.87850  0.76425  1.0000
  C   C1897     1.0  0.41752  0.91976  0.80024  1.0000
  H   H3250     1.0  0.39734  0.86686  0.78020  1.0000
  H   H3251     1.0  0.37767  0.87092  0.76733  1.0000
  H   H3252     1.0  0.43969  0.86255  0.90247  1.0000
  S   S563      1.0  0.47239  0.93111  0.85968  1.0000
  H   H3253     1.0  0.47078  0.95198  0.91623  1.0000
  H   H3254     1.0  0.48715  0.97529  0.84748  1.0000
  C   C1898     1.0  0.48785  0.89861  0.80683  1.0000
  H   H3255     1.0  0.48545  0.78293  0.91213  1.0000
  C   C1899     1.0  0.39836  0.81993  0.89875  1.0000
  H   H3256     1.0  0.47008  0.85127  0.90039  1.0000
  N   N134      1.0  0.49382  0.88440  0.81594  1.0000
  H   H3257     1.0  0.48794  0.96445  0.91160  1.0000
  Fe  Fe281     1.0  0.46084  0.75475  0.88866  1.0000
  C   C1900     1.0  0.44554  0.90336  0.83906  1.0000
  C   C1901     1.0  0.44362  0.90004  0.82709  1.0000
  C   C1902     1.0  0.43560  0.88976  0.82886  1.0000
  C   C1903     1.0  0.42934  0.88289  0.84259  1.0000
  C   C1904     1.0  0.43075  0.88666  0.85455  1.0000
  C   C1905     1.0  0.43902  0.89673  0.85281  1.0000
  H   H3258     1.0  0.44852  0.90526  0.81645  1.0000
  H   H3259     1.0  0.43423  0.88726  0.81958  1.0000
  H   H3260     1.0  0.42569  0.88160  0.86520  1.0000
  H   H3261     1.0  0.44034  0.89934  0.86211  1.0000
  H   H3262     1.0  0.42425  0.83637  0.86198  1.0000
  H   H3263     1.0  0.47185  0.81976  0.90043  1.0000
  Fe  Fe282     1.0  0.48970  0.80092  0.97498  1.0000
  Fe  Fe283     1.0  0.48012  0.91249  0.87660  1.0000
  H   H3264     1.0  0.47731  0.90400  0.81294  1.0000
  C   C1906     1.0  0.47656  0.94221  0.91200  1.0000
  C   C1907     1.0  0.47114  0.85643  0.92851  1.0000
  H   H3265     1.0  0.40610  0.83299  0.85356  1.0000
  C   C1908     1.0  0.46509  0.87904  0.91182  1.0000
  C   C1909     1.0  0.45043  0.87826  0.91580  1.0000
  C   C1910     1.0  0.44606  0.86667  0.92638  1.0000
  C   C1911     1.0  0.45643  0.85573  0.93275  1.0000
  H   H3266     1.0  0.44648  0.83678  0.88842  1.0000
  H   H3267     1.0  0.46855  0.88796  0.90374  1.0000
  H   H3268     1.0  0.43470  0.86605  0.92948  1.0000
  H   H3269     1.0  0.45307  0.84668  0.94072  1.0000
  C   C1912     1.0  0.44182  0.79149  0.95417  1.0000
  C   C1913     1.0  0.43794  0.78003  0.95167  1.0000
  C   C1914     1.0  0.43515  0.78090  0.93839  1.0000
  C   C1915     1.0  0.43573  0.79345  0.92772  1.0000
  C   C1916     1.0  0.43946  0.80501  0.93023  1.0000
  C   C1917     1.0  0.44275  0.80394  0.94337  1.0000
  H   H3270     1.0  0.43717  0.77040  0.96002  1.0000
  H   H3271     1.0  0.43221  0.77197  0.93653  1.0000
  H   H3272     1.0  0.42768  0.85222  0.90221  1.0000
  H   H3273     1.0  0.44859  0.80020  0.83853  1.0000
  C   C1918     1.0  0.45714  0.77217  0.83962  1.0000
  C   C1919     1.0  0.45148  0.85223  0.86141  1.0000
  N   N135      1.0  0.46673  0.78296  0.83299  1.0000
  C   C1920     1.0  0.46066  0.85761  0.86825  1.0000
  C   C1921     1.0  0.45762  0.97055  0.87464  1.0000
  H   H3274     1.0  0.39684  0.81076  0.86871  1.0000
  H   H3275     1.0  0.43847  0.82385  0.86969  1.0000
  S   S564      1.0  0.46221  0.91965  0.89447  1.0000
  H   H3276     1.0  0.47098  0.85876  0.86015  1.0000
  C   C1922     1.0  0.47763  0.77823  0.82023  1.0000
  C   C1923     1.0  0.39547  0.83821  0.85951  1.0000
  Fe  Fe284     1.0  0.47605  0.82779  0.95592  1.0000
  C   C1924     1.0  0.47701  0.78629  0.92132  1.0000
  H   H3277     1.0  0.48548  0.82989  0.89787  1.0000
  C   C1925     1.0  0.43737  0.85662  0.89582  1.0000
  C   C1926     1.0  0.40902  0.91041  0.79721  1.0000
  H   H3278     1.0  0.49347  0.85030  0.88146  1.0000
  C   C1927     1.0  0.47541  0.86811  0.91807  1.0000
  H   H3279     1.0  0.40987  0.90540  0.75306  1.0000
  H   H3280     1.0  0.42152  0.91485  0.81022  1.0000
  H   H3281     1.0  0.48510  0.89685  0.79746  1.0000
  H   H3282     1.0  0.50309  0.88495  0.86764  1.0000
  H   H3283     1.0  0.43980  0.85428  0.86688  1.0000
  H   H3284     1.0  0.45145  0.77127  0.83183  1.0000
  H   H3285     1.0  0.40756  0.88926  0.81964  1.0000
  H   H3286     1.0  0.40141  0.84126  0.89878  1.0000
  H   H3287     1.0  0.48900  0.93580  0.89260  1.0000
  S   S565      1.0  0.44472  0.77482  0.88207  1.0000
  C   C1928     1.0  0.47559  0.75687  0.93872  1.0000
  H   H3288     1.0  0.47014  0.80579  0.84522  1.0000
  H   H3289     1.0  0.45630  0.79689  0.80704  1.0000
  H   H3290     1.0  0.43428  0.86433  0.88619  1.0000
  H   H3291     1.0  0.46336  0.83656  0.82958  1.0000
  N   N136      1.0  0.39500  0.90838  0.80797  1.0000
  C   C1929     1.0  0.39930  0.89919  0.82169  1.0000
  C   C1930     1.0  0.47953  0.79687  0.84266  1.0000
  C   C1931     1.0  0.38747  0.90007  0.80286  1.0000
  C   C1932     1.0  0.38499  0.92229  0.81108  1.0000
  C   C1933     1.0  0.38690  0.89430  0.83409  1.0000
  C   C1934     1.0  0.45686  0.79743  0.82890  1.0000
  C   C1935     1.0  0.38127  0.90773  0.78941  1.0000
  C   C1936     1.0  0.38286  0.93507  0.79813  1.0000
  H   H3292     1.0  0.48211  0.79998  0.80953  1.0000
  H   H3293     1.0  0.39976  0.82886  0.91565  1.0000
  S   S566      1.0  0.41774  0.76290  0.86737  1.0000
  C   C1937     1.0  0.47495  0.83592  0.82587  1.0000
  H   H3294     1.0  0.39502  0.88982  0.80071  1.0000
  H   H3295     1.0  0.37795  0.89702  0.81118  1.0000
  H   H3296     1.0  0.37394  0.92048  0.81695  1.0000
  H   H3297     1.0  0.38885  0.92615  0.81853  1.0000
  H   H3298     1.0  0.38319  0.88559  0.83214  1.0000
  H   H3299     1.0  0.39118  0.88964  0.84400  1.0000
  H   H3300     1.0  0.37754  0.90327  0.83640  1.0000
  C   C1938     1.0  0.44871  0.79894  0.81720  1.0000
  C   C1939     1.0  0.40441  0.82977  0.90398  1.0000
  C   C1940     1.0  0.39447  0.81072  0.88029  1.0000
  H   H3301     1.0  0.38951  0.91157  0.78000  1.0000
  H   H3302     1.0  0.37176  0.91662  0.79155  1.0000
  H   H3303     1.0  0.37717  0.89993  0.78632  1.0000
  H   H3304     1.0  0.37112  0.93872  0.79782  1.0000
  H   H3305     1.0  0.38886  0.93284  0.78754  1.0000
  H   H3306     1.0  0.38619  0.94438  0.79935  1.0000
  C   C1941     1.0  0.39887  0.79482  0.88790  1.0000
  C   C1942     1.0  0.46841  0.96848  0.86236  1.0000
  H   H3307     1.0  0.42326  0.80821  0.88497  1.0000
  C   C1943     1.0  0.48207  0.83334  0.81229  1.0000
  C   C1944     1.0  0.42664  0.82887  0.87203  1.0000
  H   H3308     1.0  0.40276  0.80887  0.90445  1.0000
  H   H3309     1.0  0.44861  0.98306  0.89082  1.0000
  C   C1945     1.0  0.48560  0.94584  0.89659  1.0000
  S   S567      1.0  0.50262  0.90818  0.88051  1.0000
  C   C1946     1.0  0.47500  0.83491  0.87944  1.0000
  N   N137      1.0  0.40177  0.82105  0.88279  1.0000
  H   H3310     1.0  0.38633  0.82202  0.90307  1.0000
  H   H3311     1.0  0.39378  0.79295  0.89952  1.0000
  Fe  Fe285     1.0  0.43028  0.76032  0.88397  1.0000
  C   C1947     1.0  0.45033  0.84410  0.89244  1.0000
  H   H3312     1.0  0.41639  0.82608  0.90287  1.0000
  Fe  Fe286     1.0  0.43575  0.77340  0.90554  1.0000
  C   C1948     1.0  0.46956  0.85679  0.88911  1.0000
  N   N138      1.0  0.46386  0.84835  0.88233  1.0000
  H   H3313     1.0  0.38339  0.83916  0.88104  1.0000
  H   H3314     1.0  0.46668  0.78359  0.92161  1.0000
  H   H3315     1.0  0.38674  0.83401  0.85803  1.0000
  S   S568      1.0  0.41957  0.76052  0.90706  1.0000
  S   S569      1.0  0.36938  0.89242  0.74315  1.0000
  H   H3316     1.0  0.45215  0.85823  0.85011  1.0000
  H   H3317     1.0  0.40029  0.84417  0.87648  1.0000
  H   H3318     1.0  0.40985  0.87163  0.74273  1.0000
  H   H3319     1.0  0.39486  0.78803  0.88336  1.0000
  H   H3320     1.0  0.42474  0.83514  0.88016  1.0000
  H   H3321     1.0  0.47223  0.78272  0.94432  1.0000
  H   H3322     1.0  0.48634  0.79476  0.85055  1.0000
  H   H3323     1.0  0.42732  0.92075  0.79140  1.0000
  H   H3324     1.0  0.46280  0.80626  0.82499  1.0000
  H   H3325     1.0  0.49705  0.94449  0.86867  1.0000
  C   C1949     1.0  0.49774  0.83750  0.82986  1.0000
  C   C1950     1.0  0.39505  0.83601  0.87558  1.0000
  C   C1951     1.0  0.41801  0.81687  0.87699  1.0000
  H   H3326     1.0  0.46189  0.86735  0.88985  1.0000
  H   H3327     1.0  0.38237  0.81409  0.88358  1.0000
  H   H3328     1.0  0.44238  0.81017  0.81474  1.0000
  H   H3329     1.0  0.41661  0.89980  0.79645  1.0000
  H   H3330     1.0  0.48824  0.90705  0.83058  1.0000
  H   H3331     1.0  0.48032  0.76183  0.96169  1.0000
  C   C1952     1.0  0.45698  0.98145  0.88131  1.0000
  C   C1953     1.0  0.49620  0.74849  0.88774  1.0000
  S   S570      1.0  0.48709  0.82418  0.97388  1.0000
  H   H3332     1.0  0.46710  0.78138  0.85507  1.0000
  C   C1954     1.0  0.49215  0.96643  0.89979  1.0000
  C   C1955     1.0  0.48179  0.77970  0.93568  1.0000
  S   S571      1.0  0.46862  0.89771  0.87298  1.0000
  H   H3333     1.0  0.49760  0.75820  0.91828  1.0000
  H   H3334     1.0  0.47226  0.77549  0.81319  1.0000
  H   H3335     1.0  0.48669  0.86880  0.91472  1.0000
  H   H3336     1.0  0.41085  0.79088  0.88633  1.0000
  H   H3337     1.0  0.40462  0.90492  0.82615  1.0000
  C   C1956     1.0  0.48284  0.83778  0.83468  1.0000
  H   H3338     1.0  0.40740  0.91500  0.78617  1.0000
  H   H3339     1.0  0.47480  0.79817  0.91944  1.0000
  H   H3340     1.0  0.49396  0.74687  0.95661  1.0000
  H   H3341     1.0  0.47315  0.75984  0.92790  1.0000
  H   H3342     1.0  0.41104  0.93079  0.80066  1.0000
  S   S572      1.0  0.48051  0.80449  0.95583  1.0000
  H   H3343     1.0  0.44841  0.77566  0.84863  1.0000
  H   H3344     1.0  0.47799  0.95315  0.88987  1.0000
  H   H3345     1.0  0.47915  0.86465  0.81032  1.0000
  C   C1957     1.0  0.47267  0.87353  0.81568  1.0000
  H   H3346     1.0  0.48328  0.93453  0.91934  1.0000
  C   C1958     1.0  0.49051  0.75877  0.95365  1.0000
  H   H3347     1.0  0.46313  0.86957  0.82314  1.0000
  N   N139      1.0  0.48757  0.76367  0.93878  1.0000
  H   H3348     1.0  0.45529  0.84069  0.86130  1.0000
  C   C1959     1.0  0.39173  0.90017  0.74896  1.0000
  S   S573      1.0  0.45291  0.75417  0.91212  1.0000
  C   C1960     1.0  0.49757  0.90981  0.80101  1.0000
  C   C1961     1.0  0.43231  0.86604  0.74306  1.0000
  N   N140      1.0  0.49830  0.95245  0.89482  1.0000
  H   H3349     1.0  0.49749  0.78659  0.81499  1.0000
  H   H3350     1.0  0.46795  0.93698  0.91194  1.0000
  C   C1962     1.0  0.48758  0.78850  0.81081  1.0000
  H   H3351     1.0  0.49098  0.78668  0.79974  1.0000
  H   H3352     1.0  0.46840  0.88295  0.80776  1.0000
  C   C1963     1.0  0.46731  0.99009  0.87582  1.0000
  H   H3353     1.0  0.50058  0.77612  0.95371  1.0000
  H   H3354     1.0  0.44065  0.79205  0.82074  1.0000
  H   H3355     1.0  0.43058  0.85830  0.75356  1.0000
  H   H3356     1.0  0.39014  0.90954  0.74043  1.0000
  H   H3357     1.0  0.49873  0.91356  0.78924  1.0000
  H   H3358     1.0  0.43180  0.87639  0.74556  1.0000
  H   H3359     1.0  0.48262  0.97277  0.89513  1.0000
  C   C1964     1.0  0.48059  0.82464  0.89252  1.0000
  C   C1965     1.0  0.46482  0.75666  0.84563  1.0000
  H   H3360     1.0  0.49221  0.91947  0.80560  1.0000
  C   C1966     1.0  0.48465  0.86014  0.88123  1.0000
  H   H3361     1.0  0.48624  0.80044  0.83195  1.0000
  H   H3362     1.0  0.48282  0.89190  0.84418  1.0000
  S   S574      1.0  0.48382  0.75566  0.87651  1.0000
  C   C1967     1.0  0.50119  0.88582  0.82670  1.0000
  H   H3363     1.0  0.48927  0.81566  0.88887  1.0000
  H   H3364     1.0  0.48486  0.86606  0.86999  1.0000
  C   C1968     1.0  0.49215  0.89609  0.83661  1.0000
  C   C1969     1.0  0.47828  0.98775  0.86370  1.0000
  C   C1970     1.0  0.50253  0.76427  0.95625  1.0000
  H   H3365     1.0  0.45640  0.75017  0.85093  1.0000
  H   H3366     1.0  0.49898  0.87223  0.79948  1.0000
  H   H3367     1.0  0.48504  0.86726  0.83200  1.0000
  H   H3368     1.0  0.47241  0.75144  0.83706  1.0000
  H   H3369     1.0  0.49912  0.89707  0.84319  1.0000
  H   H3370     1.0  0.47059  0.75609  0.85391  1.0000
  C   C1971     1.0  0.50095  0.75892  0.92778  1.0000
  H   H3371     1.0  0.49702  0.98608  0.90096  1.0000
  H   H3372     1.0  0.50274  0.76072  0.96780  1.0000
  H   H3373     1.0  0.49987  0.96613  0.87353  1.0000
  H   H3374     1.0  0.50270  0.83041  0.79714  1.0000
  C   C1972     1.0  0.50275  0.97653  0.89627  1.0000
  C   C1973     1.0  0.53304  0.17595  0.12152  1.0000
  C   C1974     1.0  0.51872  0.05754  0.14237  1.0000
  C   C1975     1.0  0.62273  0.18975  0.14343  1.0000
  S   S575      1.0  0.54645  0.02545  0.15387  1.0000
  H   H3375     1.0  0.60897  0.01234  0.05556  1.0000
  H   H3376     1.0  0.63250  0.22016  0.10782  1.0000
  C   C1976     1.0  0.54219  0.08099  0.23049  1.0000
  Fe  Fe287     1.0  0.55891  0.02562  0.13138  1.0000
  S   S576      1.0  0.56665  0.04579  0.11887  1.0000
  H   H3377     1.0  0.67193  0.00513  0.23375  1.0000
  H   H3378     1.0  0.57508  0.00639  0.10563  1.0000
  Fe  Fe288     1.0  0.55305  0.12567  0.03860  1.0000
  S   S577      1.0  0.57385  0.11379  0.02668  1.0000
  Fe  Fe289     1.0  0.54443  0.09849  0.05727  1.0000
  S   S578      1.0  0.56423  0.08441  0.04669  1.0000
  S   S579      1.0  0.52933  0.08666  0.07495  1.0000
  Fe  Fe290     1.0  0.57612  0.09991  0.04827  1.0000
  S   S580      1.0  0.59774  0.08969  0.05435  1.0000
  Fe  Fe291     1.0  0.56002  0.09946  0.02623  1.0000
  S   S581      1.0  0.56344  0.09183  0.00605  1.0000
  S   S582      1.0  0.55654  0.11310  0.06036  1.0000
  S   S583      1.0  0.53898  0.11237  0.03662  1.0000
  H   H3379     1.0  0.55124  0.14251  0.18631  1.0000
  C   C1977     1.0  0.59817  0.05228  0.07059  1.0000
  C   C1978     1.0  0.54040  0.14145  0.17081  1.0000
  H   H3380     1.0  0.53605  0.05801  0.17202  1.0000
  S   S584      1.0  0.59563  0.05165  0.17663  1.0000
  H   H3381     1.0  0.66858  0.19685  0.04472  1.0000
  H   H3382     1.0  0.56962  0.15235  0.17588  1.0000
  Fe  Fe292     1.0  0.60710  0.14407  0.12904  1.0000
  S   S585      1.0  0.58721  0.16086  0.12456  1.0000
  S   S586      1.0  0.61567  0.14479  0.14735  1.0000
  Fe  Fe293     1.0  0.60964  0.13120  0.10405  1.0000
  S   S587      1.0  0.59018  0.14698  0.09735  1.0000
  S   S588      1.0  0.62225  0.11259  0.09392  1.0000
  Fe  Fe294     1.0  0.59933  0.16341  0.10151  1.0000
  S   S589      1.0  0.59800  0.18577  0.08729  1.0000
  Fe  Fe295     1.0  0.58009  0.14296  0.12084  1.0000
  S   S590      1.0  0.55874  0.13629  0.13022  1.0000
  S   S591      1.0  0.61985  0.14787  0.10631  1.0000
  S   S592      1.0  0.59894  0.12601  0.12729  1.0000
  S   S593      1.0  0.54401  0.01536  0.12609  1.0000
  C   C1979     1.0  0.52970  0.15733  0.04059  1.0000
  S   S594      1.0  0.59818  0.06711  0.23085  1.0000
  H   H3383     1.0  0.59017  0.06273  0.07044  1.0000
  H   H3384     1.0  0.56733  0.11099  0.19527  1.0000
  H   H3385     1.0  0.51188  0.12582  0.99190  1.0000
  H   H3386     1.0  0.54442  0.01944  0.18861  1.0000
  H   H3387     1.0  0.55581  0.10807  0.17745  1.0000
  H   H3388     1.0  0.56144  0.03685  0.05921  1.0000
  S   S595      1.0  0.61827  0.05491  0.20242  1.0000
  C   C1980     1.0  0.51902  0.09476  0.21667  1.0000
  C   C1981     1.0  0.65775  0.21421  0.99776  1.0000
  H   H3389     1.0  0.55038  0.02760  0.20618  1.0000
  Fe  Fe296     1.0  0.60781  0.04572  0.22517  1.0000
  H   H3390     1.0  0.60633  0.01100  0.07427  1.0000
  H   H3391     1.0  0.52769  0.13885  0.05802  1.0000
  H   H3392     1.0  0.53536  0.02576  0.01518  1.0000
  N   N141      1.0  0.56548  0.12602  0.17506  1.0000
  H   H3393     1.0  0.63933  0.19670  0.05208  1.0000
  H   H3394     1.0  0.63168  0.19163  0.14707  1.0000
  C   C1982     1.0  0.57287  0.15085  0.16479  1.0000
  H   H3395     1.0  0.56784  0.13516  0.19941  1.0000
  H   H3396     1.0  0.52279  0.00786  0.17920  1.0000
  C   C1983     1.0  0.63558  0.19768  0.11858  1.0000
  C   C1984     1.0  0.55060  0.13412  0.18136  1.0000
  H   H3397     1.0  0.52680  0.06412  0.13605  1.0000
  C   C1985     1.0  0.57418  0.13550  0.16309  1.0000
  H   H3398     1.0  0.60760  0.05328  0.07404  1.0000
  C   C1986     1.0  0.61339  0.19331  0.08313  1.0000
  C   C1987     1.0  0.62718  0.18457  0.08405  1.0000
  C   C1988     1.0  0.63901  0.19076  0.08212  1.0000
  C   C1989     1.0  0.63722  0.20573  0.07903  1.0000
  C   C1990     1.0  0.62364  0.21452  0.07727  1.0000
  C   C1991     1.0  0.61174  0.20830  0.07933  1.0000
  H   H3399     1.0  0.62867  0.17303  0.08656  1.0000
  H   H3400     1.0  0.64955  0.18391  0.08329  1.0000
  Fe  Fe297     1.0  0.53279  0.01341  0.14923  1.0000
  S   S596      1.0  0.61650  0.09544  0.20347  1.0000
  C   C1992     1.0  0.54371  0.15047  0.12780  1.0000
  H   H3401     1.0  0.51073  0.09657  0.01401  1.0000
  H   H3402     1.0  0.64865  0.17374  0.13537  1.0000
  C   C1993     1.0  0.63984  0.19142  0.04355  1.0000
  H   H3403     1.0  0.52604  0.05993  0.09455  1.0000
  C   C1994     1.0  0.57752  0.12789  0.19436  1.0000
  H   H3404     1.0  0.56542  0.15885  0.15831  1.0000
  C   C1995     1.0  0.61640  0.10848  0.18739  1.0000
  C   C1996     1.0  0.61382  0.10606  0.17523  1.0000
  C   C1997     1.0  0.61375  0.11703  0.16267  1.0000
  C   C1998     1.0  0.61614  0.13039  0.16239  1.0000
  C   C1999     1.0  0.61885  0.13264  0.17451  1.0000
  C   C2000     1.0  0.61902  0.12173  0.18692  1.0000
  H   H3405     1.0  0.61204  0.09572  0.17550  1.0000
  H   H3406     1.0  0.61200  0.11511  0.15322  1.0000
  H   H3407     1.0  0.62081  0.14286  0.17436  1.0000
  H   H3408     1.0  0.62115  0.12360  0.19624  1.0000
  C   C2001     1.0  0.60395  0.09680  0.06519  1.0000
  C   C2002     1.0  0.59503  0.10766  0.07216  1.0000
  C   C2003     1.0  0.60053  0.11292  0.08084  1.0000
  C   C2004     1.0  0.61488  0.10713  0.08266  1.0000
  C   C2005     1.0  0.62359  0.09610  0.07588  1.0000
  C   C2006     1.0  0.61817  0.09100  0.06717  1.0000
  H   H3409     1.0  0.58390  0.11177  0.07099  1.0000
  H   H3410     1.0  0.59363  0.12123  0.08628  1.0000
  H   H3411     1.0  0.63464  0.09152  0.07730  1.0000
  H   H3412     1.0  0.62508  0.08254  0.06188  1.0000
  H   H3413     1.0  0.52097  0.05340  0.15328  1.0000
  H   H3414     1.0  0.52612  0.03569  0.22965  1.0000
  H   H3415     1.0  0.71509  0.23787  0.03716  1.0000
  C   C2007     1.0  0.53304  0.09718  0.21014  1.0000
  C   C2008     1.0  0.52262  0.14976  0.05356  1.0000
  C   C2009     1.0  0.53393  0.09399  0.01088  1.0000
  H   H3416     1.0  0.58594  0.13021  0.16119  1.0000
  S   S597      1.0  0.50855  0.02075  0.15573  1.0000
  H   H3417     1.0  0.53326  0.09476  0.02162  1.0000
  C   C2010     1.0  0.57908  0.01251  0.17796  1.0000
  C   C2011     1.0  0.58278  0.01357  0.19015  1.0000
  C   C2012     1.0  0.58838  0.02529  0.18978  1.0000
  C   C2013     1.0  0.59024  0.03596  0.17721  1.0000
  C   C2014     1.0  0.58697  0.03456  0.16495  1.0000
  C   C2015     1.0  0.58134  0.02296  0.16534  1.0000
  H   H3418     1.0  0.60765  0.17484  0.15235  1.0000
  H   H3419     1.0  0.59106  0.02614  0.19925  1.0000
  C   C2016     1.0  0.54504  0.16476  0.12428  1.0000
  H   H3420     1.0  0.57862  0.02219  0.15585  1.0000
  C   C2017     1.0  0.55541  0.05760  0.10764  1.0000
  C   C2018     1.0  0.54321  0.05397  0.10613  1.0000
  C   C2019     1.0  0.53516  0.06296  0.09610  1.0000
  C   C2020     1.0  0.53912  0.07573  0.08778  1.0000
  C   C2021     1.0  0.55115  0.07948  0.08949  1.0000
  C   C2022     1.0  0.55927  0.07045  0.09940  1.0000
  H   H3421     1.0  0.54012  0.04413  0.11246  1.0000
  H   H3422     1.0  0.50824  0.15596  0.12655  1.0000
  H   H3423     1.0  0.55429  0.08929  0.08313  1.0000
  H   H3424     1.0  0.56868  0.07335  0.10043  1.0000
  H   H3425     1.0  0.62000  0.21720  0.12462  1.0000
  H   H3426     1.0  0.52047  0.07207  0.17527  1.0000
  H   H3427     1.0  0.59066  0.01401  0.10026  1.0000
  C   C2023     1.0  0.58929  0.02706  0.06383  1.0000
  H   H3428     1.0  0.64460  0.19899  0.12252  1.0000
  H   H3429     1.0  0.56827  0.08781  0.12097  1.0000
  C   C2024     1.0  0.66126  0.21542  0.01149  1.0000
  H   H3430     1.0  0.52059  0.13057  0.00283  1.0000
  H   H3431     1.0  0.61800  0.07908  0.14044  1.0000
  C   C2025     1.0  0.63532  0.22198  0.02246  1.0000
  H   H3432     1.0  0.57550  0.05469  0.06070  1.0000
  H   H3433     1.0  0.59568  0.06424  0.09603  1.0000
  H   H3434     1.0  0.50740  0.09052  0.12673  1.0000
  H   H3435     1.0  0.61454  0.20002  0.14312  1.0000
  H   H3436     1.0  0.65500  0.01594  0.23002  1.0000
  H   H3437     1.0  0.57398  0.09802  0.15712  1.0000
  C   C2026     1.0  0.52525  0.04747  0.22670  1.0000
  C   C2027     1.0  0.62333  0.22578  0.03551  1.0000
  H   H3438     1.0  0.59616  0.08223  0.09541  1.0000
  H   H3439     1.0  0.62598  0.23356  0.03993  1.0000
  C   C2028     1.0  0.54296  0.03124  0.18687  1.0000
  C   C2029     1.0  0.53899  0.05160  0.21593  1.0000
  S   S598      1.0  0.57478  0.00489  0.13712  1.0000
  H   H3440     1.0  0.67816  0.20981  0.03137  1.0000
  H   H3441     1.0  0.58527  0.04424  0.09107  1.0000
  H   H3442     1.0  0.53496  0.10414  0.19963  1.0000
  H   H3443     1.0  0.56743  0.10615  0.11985  1.0000
  S   S599      1.0  0.58630  0.07791  0.20111  1.0000
  H   H3444     1.0  0.56854  0.08293  0.14427  1.0000
  H   H3445     1.0  0.53784  0.04294  0.00447  1.0000
  H   H3446     1.0  0.53584  0.13349  0.16856  1.0000
  H   H3447     1.0  0.53100  0.14915  0.17571  1.0000
  N   N142      1.0  0.55202  0.15820  0.07623  1.0000
  C   C2030     1.0  0.55562  0.14653  0.08894  1.0000
  C   C2031     1.0  0.56060  0.16946  0.07369  1.0000
  C   C2032     1.0  0.55598  0.15233  0.06292  1.0000
  C   C2033     1.0  0.53583  0.16439  0.07939  1.0000
  C   C2034     1.0  0.54922  0.13317  0.09216  1.0000
  C   C2035     1.0  0.55719  0.17738  0.08590  1.0000
  C   C2036     1.0  0.57210  0.14489  0.05834  1.0000
  C   C2037     1.0  0.53034  0.17826  0.06886  1.0000
  H   H3448     1.0  0.56757  0.14275  0.08787  1.0000
  H   H3449     1.0  0.55164  0.15077  0.09886  1.0000
  H   H3450     1.0  0.55924  0.17763  0.06363  1.0000
  H   H3451     1.0  0.57249  0.16458  0.07202  1.0000
  H   H3452     1.0  0.54918  0.14467  0.06397  1.0000
  H   H3453     1.0  0.55358  0.16104  0.05354  1.0000
  H   H3454     1.0  0.52978  0.15647  0.07936  1.0000
  H   H3455     1.0  0.53195  0.16659  0.09036  1.0000
  H   H3456     1.0  0.55397  0.12706  0.08360  1.0000
  H   H3457     1.0  0.55204  0.12586  0.10216  1.0000
  H   H3458     1.0  0.53715  0.13587  0.09405  1.0000
  H   H3459     1.0  0.54548  0.18245  0.08899  1.0000
  H   H3460     1.0  0.56095  0.17010  0.09545  1.0000
  H   H3461     1.0  0.56334  0.18607  0.08234  1.0000
  H   H3462     1.0  0.57327  0.13976  0.04938  1.0000
  H   H3463     1.0  0.57607  0.13633  0.06704  1.0000
  H   H3464     1.0  0.57926  0.15271  0.05424  1.0000
  H   H3465     1.0  0.53429  0.18748  0.06934  1.0000
  H   H3466     1.0  0.51824  0.18107  0.07190  1.0000
  H   H3467     1.0  0.53330  0.17692  0.05769  1.0000
  H   H3468     1.0  0.54478  0.12678  0.19040  1.0000
  H   H3469     1.0  0.66708  0.21616  0.98861  1.0000
  H   H3470     1.0  0.58860  0.04250  0.15512  1.0000
  H   H3471     1.0  0.57095  0.13695  0.15286  1.0000
  H   H3472     1.0  0.56556  0.02113  0.08478  1.0000
  C   C2038     1.0  0.53037  0.14736  0.12881  1.0000
  H   H3473     1.0  0.54591  0.14753  0.16054  1.0000
  H   H3474     1.0  0.52934  0.13630  0.13141  1.0000
  C   C2039     1.0  0.56312  0.11461  0.16917  1.0000
  H   H3475     1.0  0.61298  0.23121  0.03196  1.0000
  C   C2040     1.0  0.52821  0.06045  0.19470  1.0000
  C   C2041     1.0  0.57022  0.04766  0.07044  1.0000
  C   C2042     1.0  0.53104  0.06641  0.17829  1.0000
  H   H3476     1.0  0.55552  0.09179  0.21181  1.0000
  H   H3477     1.0  0.61264  0.02601  0.06145  1.0000
  H   H3478     1.0  0.57275  0.06458  0.14181  1.0000
  C   C2043     1.0  0.60514  0.01866  0.06401  1.0000
  H   H3479     1.0  0.57398  0.06806  0.15786  1.0000
  C   C2044     1.0  0.57360  0.11840  0.18684  1.0000
  H   H3480     1.0  0.65623  0.20338  0.99851  1.0000
  C   C2045     1.0  0.50486  0.02444  0.17266  1.0000
  H   H3481     1.0  0.58367  0.15374  0.16020  1.0000
  H   H3482     1.0  0.61203  0.06781  0.09736  1.0000
  N   N143      1.0  0.58133  0.03474  0.07588  1.0000
  C   C2046     1.0  0.51979  0.17280  0.12213  1.0000
  C   C2047     1.0  0.55537  0.05377  0.19242  1.0000
  S   S600      1.0  0.58754  0.04457  0.21956  1.0000
  H   H3483     1.0  0.60112  0.21513  0.07847  1.0000
  S   S601      1.0  0.54710  0.14969  0.03166  1.0000
  C   C2048     1.0  0.55754  0.06841  0.19279  1.0000
  H   H3484     1.0  0.66344  0.22634  0.00932  1.0000
  H   H3485     1.0  0.53411  0.18700  0.11859  1.0000
  H   H3486     1.0  0.57523  0.09920  0.10424  1.0000
  C   C2049     1.0  0.54867  0.13380  0.99401  1.0000
  H   H3487     1.0  0.55755  0.05332  0.18102  1.0000
  H   H3488     1.0  0.56434  0.04551  0.19669  1.0000
  H   H3489     1.0  0.58554  0.10948  0.15604  1.0000
  H   H3490     1.0  0.64581  0.21671  0.04661  1.0000
  Fe  Fe298     1.0  0.59704  0.05566  0.19736  1.0000
  H   H3491     1.0  0.67034  0.21231  0.04911  1.0000
  H   H3492     1.0  0.58419  0.11155  0.18273  1.0000
  H   H3493     1.0  0.55535  0.16720  0.12351  1.0000
  C   C2050     1.0  0.51154  0.02009  0.19535  1.0000
  H   H3494     1.0  0.56054  0.06761  0.20295  1.0000
  H   H3495     1.0  0.56671  0.07143  0.18392  1.0000
  H   H3496     1.0  0.54772  0.07713  0.19175  1.0000
  H   H3497     1.0  0.55751  0.11960  0.16011  1.0000
  C   C2051     1.0  0.58243  0.01163  0.09614  1.0000
  C   C2052     1.0  0.57694  0.10400  0.16334  1.0000
  H   H3498     1.0  0.58142  0.09587  0.17211  1.0000
  H   H3499     1.0  0.58565  0.13395  0.18697  1.0000
  Fe  Fe299     1.0  0.60675  0.07637  0.20771  1.0000
  N   N144      1.0  0.59695  0.07791  0.12430  1.0000
  C   C2053     1.0  0.61324  0.07673  0.12095  1.0000
  C   C2054     1.0  0.59443  0.06780  0.11690  1.0000
  C   C2055     1.0  0.59205  0.07292  0.14028  1.0000
  C   C2056     1.0  0.58960  0.09341  0.11936  1.0000
  C   C2057     1.0  0.61864  0.08465  0.12901  1.0000
  C   C2058     1.0  0.59996  0.07085  0.10050  1.0000
  C   C2059     1.0  0.57587  0.07217  0.14607  1.0000
  C   C2060     1.0  0.57437  0.09642  0.11600  1.0000
  H   H3500     1.0  0.61916  0.06526  0.12316  1.0000
  H   H3501     1.0  0.61736  0.08110  0.10936  1.0000
  H   H3502     1.0  0.58279  0.06757  0.11905  1.0000
  H   H3503     1.0  0.59974  0.05650  0.12123  1.0000
  H   H3504     1.0  0.59877  0.06212  0.14402  1.0000
  H   H3505     1.0  0.59389  0.08008  0.14606  1.0000
  H   H3506     1.0  0.58857  0.09973  0.12733  1.0000
  H   H3507     1.0  0.59657  0.09846  0.10940  1.0000
  H   H3508     1.0  0.63032  0.08475  0.12412  1.0000
  H   H3509     1.0  0.61270  0.09599  0.12815  1.0000
  C   C2061     1.0  0.55754  0.04452  0.06637  1.0000
  H   H3510     1.0  0.53293  0.03613  0.18268  1.0000
  C   C2062     1.0  0.62563  0.21264  0.11506  1.0000
  H   H3511     1.0  0.65523  0.15600  0.11975  1.0000
  H   H3512     1.0  0.55258  0.03420  0.17877  1.0000
  S   S602      1.0  0.50487  0.10271  0.20750  1.0000
  C   C2063     1.0  0.57319  0.02516  0.08828  1.0000
  H   H3513     1.0  0.56629  0.03135  0.09646  1.0000
  S   S603      1.0  0.57082  0.99868  0.17866  1.0000
  C   C2064     1.0  0.61578  0.17844  0.15550  1.0000
  H   H3514     1.0  0.54955  0.04056  0.07604  1.0000
  H   H3515     1.0  0.52394  0.07006  0.19956  1.0000
  H   H3516     1.0  0.64455  0.17990  0.04758  1.0000
  N   N145      1.0  0.54086  0.05037  0.20074  1.0000
  H   H3517     1.0  0.58747  0.00356  0.08943  1.0000
  H   H3518     1.0  0.63569  0.16331  0.13807  1.0000
  C   C2065     1.0  0.59130  0.04009  0.08126  1.0000
  H   H3519     1.0  0.52051  0.04799  0.13792  1.0000
  H   H3520     1.0  0.67190  0.20780  0.01238  1.0000
  C   C2066     1.0  0.54132  0.03496  0.20123  1.0000
  H   H3521     1.0  0.65491  0.22869  0.03282  1.0000
  H   H3522     1.0  0.53830  0.06284  0.21622  1.0000
  H   H3523     1.0  0.58312  0.01940  0.06338  1.0000
  H   H3524     1.0  0.64072  0.19480  0.10806  1.0000
  H   H3525     1.0  0.60092  0.20354  0.12837  1.0000
  C   C2067     1.0  0.51392  0.01661  0.18211  1.0000
  N   N146      1.0  0.62846  0.18598  0.12894  1.0000
  H   H3526     1.0  0.51851  0.01393  0.20268  1.0000
  H   H3527     1.0  0.66071  0.19008  0.02848  1.0000
  C   C2068     1.0  0.64025  0.17241  0.13057  1.0000
  C   C2069     1.0  0.54465  0.09019  0.21698  1.0000
  H   H3528     1.0  0.53114  0.03172  0.20801  1.0000
  Fe  Fe300     1.0  0.56110  0.00391  0.15940  1.0000
  S   S604      1.0  0.65190  0.21288  0.07860  1.0000
  H   H3529     1.0  0.60032  0.03133  0.08471  1.0000
  H   H3530     1.0  0.61005  0.18318  0.16497  1.0000
  C   C2070     1.0  0.52302  0.17139  0.03480  1.0000
  C   C2071     1.0  0.61690  0.18332  0.12332  1.0000
  H   H3531     1.0  0.51886  0.05512  0.19767  1.0000
  Fe  Fe301     1.0  0.57865  0.06668  0.22380  1.0000
  H   H3532     1.0  0.56531  0.05445  0.07845  1.0000
  C   C2072     1.0  0.64838  0.16691  0.11677  1.0000
  H   H3533     1.0  0.62216  0.22608  0.07491  1.0000
  C   C2073     1.0  0.60151  0.19325  0.12588  1.0000
  H   H3534     1.0  0.64085  0.16585  0.11087  1.0000
  C   C2074     1.0  0.51845  0.15850  0.12592  1.0000
  H   H3535     1.0  0.61533  0.17216  0.12810  1.0000
  H   H3536     1.0  0.62415  0.16895  0.15907  1.0000
  H   H3537     1.0  0.53794  0.07442  0.17482  1.0000
  H   H3538     1.0  0.59720  0.19597  0.11603  1.0000
  H   H3539     1.0  0.59379  0.18744  0.13439  1.0000
  H   H3540     1.0  0.62059  0.18392  0.11165  1.0000
  H   H3541     1.0  0.65594  0.17374  0.10959  1.0000
  H   H3542     1.0  0.61775  0.21255  0.10902  1.0000
  C   C2075     1.0  0.51650  0.08582  0.23029  1.0000
  H   H3543     1.0  0.51272  0.20433  0.08196  1.0000
  C   C2076     1.0  0.54746  0.09194  0.00131  1.0000
  H   H3544     1.0  0.51835  0.07739  0.11705  1.0000
  H   H3545     1.0  0.58288  0.12079  0.20310  1.0000
  C   C2077     1.0  0.65414  0.21719  0.03642  1.0000
  C   C2078     1.0  0.64954  0.19703  0.02902  1.0000
  H   H3546     1.0  0.51124  0.05614  0.11823  1.0000
  Fe  Fe302     1.0  0.65223  0.23622  0.06838  1.0000
  H   H3547     1.0  0.52849  0.17724  0.02478  1.0000
  N   N147      1.0  0.64984  0.21276  0.02519  1.0000
  H   H3548     1.0  0.62860  0.19242  0.04247  1.0000
  C   C2079     1.0  0.52965  0.03620  0.00948  1.0000
  H   H3549     1.0  0.58111  0.00546  0.19993  1.0000
  H   H3550     1.0  0.55151  0.05474  0.06059  1.0000
  C   C2080     1.0  0.52119  0.09491  0.00657  1.0000
  C   C2081     1.0  0.66868  0.20840  0.04044  1.0000
  H   H3551     1.0  0.54864  0.04502  0.22037  1.0000
  H   H3552     1.0  0.50726  0.12883  0.15112  1.0000
  H   H3553     1.0  0.51522  0.05298  0.22265  1.0000
  H   H3554     1.0  0.62120  0.21632  0.04411  1.0000
  H   H3555     1.0  0.63681  0.23250  0.01527  1.0000
  H   H3556     1.0  0.63059  0.21699  0.01665  1.0000
  H   H3557     1.0  0.64564  0.19435  0.02086  1.0000
  H   H3558     1.0  0.50786  0.12884  0.16876  1.0000
  H   H3559     1.0  0.60205  0.05047  0.05954  1.0000
  H   H3560     1.0  0.58991  0.03474  0.05321  1.0000
  Fe  Fe303     1.0  0.55863  0.99449  0.13399  1.0000
  H   H3561     1.0  0.54052  0.13874  0.00260  1.0000
  H   H3562     1.0  0.64810  0.22248  0.99491  1.0000
  H   H3563     1.0  0.51670  0.02524  0.00403  1.0000
  H   H3564     1.0  0.52105  0.04121  0.01766  1.0000
  H   H3565     1.0  0.52400  0.05083  0.23677  1.0000
  C   C2082     1.0  0.54824  0.09048  0.98755  1.0000
  H   H3566     1.0  0.50565  0.08416  0.23553  1.0000
  H   H3567     1.0  0.50973  0.09957  0.10110  1.0000
  H   H3568     1.0  0.71604  0.23887  0.01845  1.0000
  C   C2083     1.0  0.50688  0.08299  0.12058  1.0000
  C   C2084     1.0  0.52190  0.09397  0.99265  1.0000
  C   C2085     1.0  0.50899  0.15639  0.06087  1.0000
  C   C2086     1.0  0.50925  0.17784  0.04188  1.0000
  H   H3569     1.0  0.50409  0.18866  0.03730  1.0000
  H   H3570     1.0  0.54908  0.12206  0.99773  1.0000
  H   H3571     1.0  0.52232  0.06338  0.99374  1.0000
  C   C2087     1.0  0.51838  0.13334  0.99196  1.0000
  H   H3572     1.0  0.51042  0.23242  0.04836  1.0000
  H   H3573     1.0  0.50763  0.21106  0.05885  1.0000
  H   H3574     1.0  0.69934  0.23839  0.03119  1.0000
  H   H3575     1.0  0.50488  0.21626  0.03691  1.0000
  H   H3576     1.0  0.56306  0.13873  0.00420  1.0000
  C   C2088     1.0  0.52327  0.03348  0.99824  1.0000
  H   H3577     1.0  0.57190  0.12527  0.99424  1.0000
  C   C2089     1.0  0.56381  0.13568  0.99409  1.0000
  S   S605      1.0  0.50516  0.18658  0.11738  1.0000
  H   H3578     1.0  0.50358  0.15055  0.07093  1.0000
  S   S606      1.0  0.67345  0.24016  0.05378  1.0000
  H   H3579     1.0  0.53245  0.02796  0.99078  1.0000
  H   H3580     1.0  0.50360  0.14566  0.15576  1.0000
  H   H3581     1.0  0.50398  0.22286  0.08049  1.0000
  H   H3582     1.0  0.51137  0.14427  0.98985  1.0000
  N   N148      1.0  0.51424  0.04655  0.99024  1.0000
  S   S607      1.0  0.50568  0.09572  0.98746  1.0000
  H   H3583     1.0  0.54961  0.16361  0.98725  1.0000
  Fe  Fe304     1.0  0.82195  0.06256  0.44035  1.0000
  S   S608      1.0  0.80363  0.05373  0.45642  1.0000
  S   S609      1.0  0.84155  0.04894  0.42874  1.0000
  Fe  Fe305     1.0  0.80690  0.09350  0.44105  1.0000
  S   S610      1.0  0.78694  0.08739  0.45681  1.0000
  S   S611      1.0  0.81085  0.11588  0.43093  1.0000
  Fe  Fe306     1.0  0.80313  0.07041  0.46793  1.0000
  H   H3584     1.0  0.65459  0.02283  0.35567  1.0000
  Fe  Fe307     1.0  0.78906  0.07127  0.44376  1.0000
  S   S612      1.0  0.76870  0.06809  0.43909  1.0000
  S   S613      1.0  0.82291  0.07752  0.45297  1.0000
  S   S614      1.0  0.80753  0.07912  0.42692  1.0000
  Fe  Fe308     1.0  0.86032  0.18393  0.44288  1.0000
  S   S615      1.0  0.85967  0.16105  0.44437  1.0000
  S   S616      1.0  0.86931  0.19803  0.42207  1.0000
  C   C2090     1.0  0.73749  0.04796  0.36339  1.0000
  S   S617      1.0  0.62660  0.99816  0.35652  1.0000
  C   C2091     1.0  0.75791  0.11897  0.44686  1.0000
  H   H3585     1.0  0.80744  0.13006  0.47544  1.0000
  H   H3586     1.0  0.78083  0.11528  0.43736  1.0000
  Fe  Fe309     1.0  0.83918  0.16504  0.46122  1.0000
  S   S618      1.0  0.81952  0.15517  0.46683  1.0000
  S   S619      1.0  0.87351  0.17841  0.45942  1.0000
  S   S620      1.0  0.83867  0.18852  0.45830  1.0000
  H   H3587     1.0  0.64035  0.01701  0.38781  1.0000
  H   H3588     1.0  0.85846  0.10217  0.45959  1.0000
  S   S621      1.0  0.89690  0.02473  0.45571  1.0000
  H   H3589     1.0  0.64115  0.99989  0.24798  1.0000
  C   C2092     1.0  0.76299  0.04407  0.36417  1.0000
  H   H3590     1.0  0.76195  0.03358  0.37176  1.0000
  C   C2093     1.0  0.70993  0.00227  0.34926  1.0000
  C   C2094     1.0  0.88469  0.21942  0.41366  1.0000
  H   H3591     1.0  0.75988  0.13132  0.40235  1.0000
  H   H3592     1.0  0.77384  0.05120  0.37691  1.0000
  H   H3593     1.0  0.63600  0.01219  0.37389  1.0000
  S   S622      1.0  0.69497  0.00033  0.33063  1.0000
  H   H3594     1.0  0.68176  0.01780  0.46247  1.0000
  Fe  Fe310     1.0  0.74778  0.01661  0.40204  1.0000
  S   S623      1.0  0.72400  0.02752  0.40619  1.0000
  S   S624      1.0  0.76640  0.02694  0.40083  1.0000
  Fe  Fe311     1.0  0.72103  0.00637  0.42089  1.0000
  H   H3595     1.0  0.81528  0.00734  0.45013  1.0000
  Fe  Fe312     1.0  0.72243  0.01780  0.38886  1.0000
  S   S625      1.0  0.70830  0.03050  0.37282  1.0000
  H   H3596     1.0  0.86745  0.03921  0.46717  1.0000
  S   S626      1.0  0.74658  0.00853  0.38335  1.0000
  C   C2095     1.0  0.77062  0.12192  0.43404  1.0000
  H   H3597     1.0  0.56343  0.04285  0.29394  1.0000
  H   H3598     1.0  0.55697  0.06135  0.27089  1.0000
  H   H3599     1.0  0.66277  0.03927  0.46203  1.0000
  H   H3600     1.0  0.84357  0.12973  0.47137  1.0000
  H   H3601     1.0  0.70559  0.02133  0.46103  1.0000
  Fe  Fe313     1.0  0.65138  0.01756  0.30485  1.0000
  H   H3602     1.0  0.82555  0.02366  0.47930  1.0000
  H   H3603     1.0  0.91194  0.04743  0.43513  1.0000
  S   S627      1.0  0.65285  0.02010  0.32621  1.0000
  C   C2096     1.0  0.62929  0.04255  0.25171  1.0000
  H   H3604     1.0  0.65771  0.00281  0.39996  1.0000
  H   H3605     1.0  0.87123  0.03736  0.41707  1.0000
  H   H3606     1.0  0.75600  0.14058  0.41632  1.0000
  H   H3607     1.0  0.64429  0.03515  0.36666  1.0000
  H   H3608     1.0  0.72353  0.02666  0.47182  1.0000
  H   H3609     1.0  0.85083  0.01809  0.46843  1.0000
  H   H3610     1.0  0.56131  0.07442  0.27739  1.0000
  C   C2097     1.0  0.91146  0.05382  0.46206  1.0000
  H   H3611     1.0  0.66219  0.02583  0.36885  1.0000
  H   H3612     1.0  0.68293  0.00417  0.37351  1.0000
  H   H3613     1.0  0.62817  0.05085  0.24213  1.0000
  C   C2098     1.0  0.55813  0.06391  0.28054  1.0000
  C   C2099     1.0  0.89402  0.22492  0.47394  1.0000
  H   H3614     1.0  0.86194  0.07981  0.47498  1.0000
  H   H3615     1.0  0.58029  0.02579  0.28226  1.0000
  C   C2100     1.0  0.92306  0.12917  0.48303  1.0000
  H   H3616     1.0  0.79728  0.13760  0.39796  1.0000
  H   H3617     1.0  0.90614  0.06847  0.44149  1.0000
  Fe  Fe314     1.0  0.89008  0.01974  0.47960  1.0000
  H   H3618     1.0  0.72192  0.00840  0.47693  1.0000
  C   C2101     1.0  0.92400  0.04572  0.43223  1.0000
  C   C2102     1.0  0.87961  0.09639  0.47618  1.0000
  S   S628      1.0  0.63880  0.00010  0.31406  1.0000
  H   H3619     1.0  0.69164  0.01471  0.42022  1.0000
  H   H3620     1.0  0.65815  0.01386  0.24716  1.0000
  C   C2103     1.0  0.99120  0.23762  0.41468  1.0000
  C   C2104     1.0  0.77592  0.04849  0.36637  1.0000
  C   C2105     1.0  0.70457  0.02202  0.36118  1.0000
  C   C2106     1.0  0.69297  0.02881  0.35422  1.0000
  C   C2107     1.0  0.68969  0.02223  0.34502  1.0000
  C   C2108     1.0  0.69819  0.00891  0.34249  1.0000
  H   H3621     1.0  0.89716  0.23590  0.40745  1.0000
  C   C2109     1.0  0.71304  0.00872  0.35862  1.0000
  H   H3622     1.0  0.68642  0.03916  0.35602  1.0000
  H   H3623     1.0  0.68076  0.02757  0.33971  1.0000
  Fe  Fe315     1.0  0.67381  0.00346  0.32371  1.0000
  C   C2110     1.0  0.90198  0.06640  0.45320  1.0000
  H   H3624     1.0  0.72215  0.00351  0.36368  1.0000
  C   C2111     1.0  0.62630  0.01917  0.26626  1.0000
  C   C2112     1.0  0.63258  0.02104  0.27645  1.0000
  C   C2113     1.0  0.63727  0.03367  0.27433  1.0000
  C   C2114     1.0  0.85027  0.10760  0.46778  1.0000
  H   H3625     1.0  0.62249  0.00946  0.26808  1.0000
  H   H3626     1.0  0.63365  0.01277  0.28600  1.0000
  C   C2115     1.0  0.93171  0.02769  0.47627  1.0000
  H   H3627     1.0  0.87979  0.10196  0.46486  1.0000
  H   H3628     1.0  0.68657  0.99838  0.39058  1.0000
  H   H3629     1.0  0.90658  0.04432  0.46473  1.0000
  C   C2116     1.0  0.78413  0.12182  0.40951  1.0000
  H   H3630     1.0  0.93268  0.12081  0.48419  1.0000
  C   C2117     1.0  0.87519  0.21205  0.42475  1.0000
  H   H3631     1.0  0.89104  0.06402  0.45523  1.0000
  H   H3632     1.0  0.84231  0.07217  0.47521  1.0000
  H   H3633     1.0  0.88938  0.22265  0.46604  1.0000
  C   C2118     1.0  0.87546  0.22676  0.44029  1.0000
  C   C2119     1.0  0.87062  0.21575  0.43807  1.0000
  H   H3634     1.0  0.66420  0.04187  0.47843  1.0000
  H   H3635     1.0  0.83065  0.08869  0.47876  1.0000
  H   H3636     1.0  0.87162  0.22970  0.45053  1.0000
  H   H3637     1.0  0.86311  0.21031  0.44660  1.0000
  H   H3638     1.0  0.99085  0.22850  0.42367  1.0000
  H   H3639     1.0  0.76045  0.12027  0.45654  1.0000
  C   C2120     1.0  0.65222  0.02468  0.36663  1.0000
  H   H3640     1.0  0.86156  0.01222  0.44475  1.0000
  C   C2121     1.0  0.91337  0.12769  0.47587  1.0000
  H   H3641     1.0  0.85498  0.23712  0.47648  1.0000
  H   H3642     1.0  0.86643  0.21926  0.47607  1.0000
  H   H3643     1.0  0.57849  0.04678  0.25309  1.0000
  C   C2122     1.0  0.93389  0.06289  0.44749  1.0000
  C   C2123     1.0  0.76839  0.05615  0.42880  1.0000
  C   C2124     1.0  0.75497  0.05336  0.42910  1.0000
  C   C2125     1.0  0.75418  0.04423  0.42087  1.0000
  C   C2126     1.0  0.76682  0.03793  0.41204  1.0000
  C   C2127     1.0  0.78021  0.04086  0.41161  1.0000
  C   C2128     1.0  0.78103  0.04979  0.42002  1.0000
  H   H3644     1.0  0.74511  0.05822  0.43582  1.0000
  H   H3645     1.0  0.74380  0.04214  0.42130  1.0000
  H   H3646     1.0  0.79006  0.03610  0.40480  1.0000
  H   H3647     1.0  0.79143  0.05185  0.41960  1.0000
  C   C2129     1.0  0.81454  0.12570  0.44127  1.0000
  C   C2130     1.0  0.80978  0.12296  0.45619  1.0000
  C   C2131     1.0  0.81158  0.13193  0.46396  1.0000
  C   C2132     1.0  0.81852  0.14341  0.45693  1.0000
  C   C2133     1.0  0.82385  0.14575  0.44210  1.0000
  C   C2134     1.0  0.82166  0.13705  0.43429  1.0000
  H   H3648     1.0  0.80426  0.11426  0.46168  1.0000
  C   C2135     1.0  0.90894  0.22847  0.46570  1.0000
  H   H3649     1.0  0.82916  0.15460  0.43658  1.0000
  H   H3650     1.0  0.82537  0.13924  0.42276  1.0000
  C   C2136     1.0  0.88975  0.23033  0.41598  1.0000
  H   H3651     1.0  0.67509  0.01579  0.38606  1.0000
  C   C2137     1.0  0.85701  0.04373  0.43610  1.0000
  C   C2138     1.0  0.85600  0.04448  0.45016  1.0000
  C   C2139     1.0  0.86834  0.03893  0.45620  1.0000
  C   C2140     1.0  0.88167  0.03280  0.44809  1.0000
  C   C2141     1.0  0.88277  0.03261  0.43388  1.0000
  C   C2142     1.0  0.87043  0.03795  0.42794  1.0000
  H   H3652     1.0  0.84563  0.04888  0.45654  1.0000
  C   C2143     1.0  0.93560  0.04208  0.46733  1.0000
  H   H3653     1.0  0.89304  0.02789  0.42759  1.0000
  C   C2144     1.0  0.56885  0.05204  0.28861  1.0000
  H   H3654     1.0  0.72655  0.06893  0.39508  1.0000
  C   C2145     1.0  0.88514  0.23399  0.42935  1.0000
  H   H3655     1.0  0.66836  0.01660  0.47873  1.0000
  C   C2146     1.0  0.67763  0.02173  0.47261  1.0000
  H   H3656     1.0  0.76192  0.07567  0.36603  1.0000
  H   H3657     1.0  0.92614  0.03011  0.45135  1.0000
  H   H3658     1.0  0.52605  0.07213  0.24780  1.0000
  H   H3659     1.0  0.92871  0.06924  0.43847  1.0000
  H   H3660     1.0  0.67367  0.00611  0.41377  1.0000
  H   H3661     1.0  0.94561  0.05946  0.44238  1.0000
  C   C2147     1.0  0.93052  0.03987  0.44562  1.0000
  C   C2148     1.0  0.85173  0.12337  0.46400  1.0000
  H   H3662     1.0  0.74356  0.04630  0.38856  1.0000
  H   H3663     1.0  0.84978  0.12846  0.45307  1.0000
  H   H3664     1.0  0.72642  0.07655  0.37654  1.0000
  H   H3665     1.0  0.57847  0.02826  0.25751  1.0000
  H   H3666     1.0  0.72669  0.05558  0.36361  1.0000
  C   C2149     1.0  0.90080  0.13835  0.47431  1.0000
  C   C2150     1.0  0.72812  0.06631  0.38456  1.0000
  S   S629      1.0  0.96252  0.23826  0.41703  1.0000
  H   H3667     1.0  0.56380  0.03980  0.26674  1.0000
  H   H3668     1.0  0.74571  0.08848  0.36174  1.0000
  H   H3669     1.0  0.56009  0.00991  0.45455  1.0000
  C   C2151     1.0  0.59927  0.01053  0.47530  1.0000
  H   H3670     1.0  0.80715  0.02089  0.46090  1.0000
  H   H3671     1.0  0.87834  0.18681  0.48267  1.0000
  H   H3672     1.0  0.81439  0.02588  0.44220  1.0000
  H   H3673     1.0  0.91566  0.21946  0.46059  1.0000
  H   H3674     1.0  0.88803  0.15856  0.47922  1.0000
  C   C2152     1.0  0.63544  0.04449  0.26201  1.0000
  H   H3675     1.0  0.76775  0.08859  0.41098  1.0000
  C   C2153     1.0  0.93298  0.07349  0.45660  1.0000
  N   N149      1.0  0.58395  0.04698  0.27999  1.0000
  C   C2154     1.0  0.59453  0.04162  0.28980  1.0000
  C   C2155     1.0  0.58933  0.05874  0.26805  1.0000
  C   C2156     1.0  0.58442  0.03461  0.27378  1.0000
  C   C2157     1.0  0.59241  0.02799  0.30157  1.0000
  C   C2158     1.0  0.59242  0.07089  0.27278  1.0000
  H   H3676     1.0  0.93543  0.08372  0.44943  1.0000
  H   H3677     1.0  0.60595  0.03940  0.28351  1.0000
  H   H3678     1.0  0.59400  0.04999  0.29548  1.0000
  H   H3679     1.0  0.58158  0.06391  0.26089  1.0000
  H   H3680     1.0  0.59963  0.05416  0.26102  1.0000
  C   C2159     1.0  0.85058  0.00723  0.46759  1.0000
  H   H3681     1.0  0.56939  0.05636  0.29757  1.0000
  H   H3682     1.0  0.59614  0.01825  0.29703  1.0000
  H   H3683     1.0  0.59929  0.02643  0.30928  1.0000
  H   H3684     1.0  0.59337  0.08021  0.26354  1.0000
  H   H3685     1.0  0.58364  0.07459  0.28161  1.0000
  H   H3686     1.0  0.60301  0.06738  0.27612  1.0000
  N   N150      1.0  0.65515  0.99815  0.38102  1.0000
  S   S630      1.0  0.67338  0.00252  0.30151  1.0000
  H   H3687     1.0  0.69930  0.03594  0.46934  1.0000
  H   H3688     1.0  0.74485  0.05109  0.33978  1.0000
  H   H3689     1.0  0.73372  0.13545  0.42027  1.0000
  H   H3690     1.0  0.74983  0.03266  0.34964  1.0000
  C   C2160     1.0  0.67780  0.00454  0.38476  1.0000
  H   H3691     1.0  0.59588  0.02985  0.26902  1.0000
  H   H3692     1.0  0.93358  0.04880  0.47520  1.0000
  N   N151      1.0  0.74848  0.05467  0.36569  1.0000
  H   H3693     1.0  0.94250  0.03602  0.44191  1.0000
  H   H3694     1.0  0.83954  0.10787  0.46584  1.0000
  H   H3695     1.0  0.88820  0.21662  0.40330  1.0000
  H   H3696     1.0  0.90984  0.05683  0.47241  1.0000
  C   C2161     1.0  0.74928  0.06851  0.35459  1.0000
  H   H3697     1.0  0.77867  0.09666  0.42702  1.0000
  C   C2162     1.0  0.75494  0.07987  0.35814  1.0000
  H   H3698     1.0  0.61144  0.00157  0.33441  1.0000
  H   H3699     1.0  0.54713  0.06539  0.28776  1.0000
  N   N152      1.0  0.92064  0.17863  0.43813  1.0000
  C   C2163     1.0  0.91219  0.16692  0.44208  1.0000
  C   C2164     1.0  0.92658  0.17723  0.45100  1.0000
  C   C2165     1.0  0.93311  0.17544  0.42570  1.0000
  C   C2166     1.0  0.91065  0.19302  0.43413  1.0000
  C   C2167     1.0  0.90400  0.16664  0.43104  1.0000
  C   C2168     1.0  0.91545  0.18286  0.46373  1.0000
  C   C2169     1.0  0.94310  0.18625  0.41906  1.0000
  C   C2170     1.0  0.91592  0.20653  0.43358  1.0000
  H   H3700     1.0  0.91946  0.15607  0.44445  1.0000
  H   H3701     1.0  0.90383  0.16759  0.45210  1.0000
  H   H3702     1.0  0.93568  0.18273  0.44831  1.0000
  H   H3703     1.0  0.93159  0.16575  0.45516  1.0000
  H   H3704     1.0  0.94020  0.16467  0.42888  1.0000
  H   H3705     1.0  0.92900  0.17488  0.41662  1.0000
  H   H3706     1.0  0.90837  0.19437  0.42345  1.0000
  H   H3707     1.0  0.89977  0.19355  0.44169  1.0000
  H   H3708     1.0  0.91144  0.16395  0.42105  1.0000
  H   H3709     1.0  0.89770  0.15806  0.43575  1.0000
  H   H3710     1.0  0.89594  0.17680  0.42851  1.0000
  H   H3711     1.0  0.90515  0.17917  0.46667  1.0000
  H   H3712     1.0  0.92036  0.17897  0.47328  1.0000
  H   H3713     1.0  0.91279  0.19473  0.46163  1.0000
  H   H3714     1.0  0.95232  0.18182  0.41091  1.0000
  H   H3715     1.0  0.94804  0.18819  0.42684  1.0000
  H   H3716     1.0  0.93737  0.19655  0.41322  1.0000
  H   H3717     1.0  0.91701  0.21347  0.42261  1.0000
  H   H3718     1.0  0.92641  0.20435  0.43670  1.0000
  H   H3719     1.0  0.90765  0.21310  0.44074  1.0000
  C   C2171     1.0  0.67065  0.03783  0.46872  1.0000
  H   H3720     1.0  0.76668  0.04174  0.35330  1.0000
  H   H3721     1.0  0.58094  0.02884  0.30769  1.0000
  H   H3722     1.0  0.71956  0.06045  0.38576  1.0000
  H   H3723     1.0  0.92750  0.05554  0.42526  1.0000
  S   S631      1.0  0.88873  0.13621  0.46549  1.0000
  H   H3724     1.0  0.75616  0.06622  0.34415  1.0000
  H   H3725     1.0  0.86280  0.12432  0.46375  1.0000
  H   H3726     1.0  0.75638  0.10783  0.44934  1.0000
  H   H3727     1.0  0.73543  0.03857  0.37229  1.0000
  C   C2172     1.0  0.78743  0.13680  0.40677  1.0000
  N   N153      1.0  0.77006  0.11937  0.42002  1.0000
  H   H3728     1.0  0.92783  0.03745  0.42568  1.0000
  H   H3729     1.0  0.63896  0.05434  0.26033  1.0000
  H   H3730     1.0  0.87336  0.00265  0.45655  1.0000
  H   H3731     1.0  0.94123  0.06926  0.46329  1.0000
  C   C2173     1.0  0.74138  0.04282  0.34927  1.0000
  H   H3732     1.0  0.78431  0.12039  0.39880  1.0000
  S   S632      1.0  0.61738  0.02666  0.24107  1.0000
  C   C2174     1.0  0.57570  0.03787  0.26217  1.0000
  N   N154      1.0  0.92754  0.04992  0.45549  1.0000
  H   H3733     1.0  0.76384  0.10683  0.40123  1.0000
  H   H3734     1.0  0.74042  0.12067  0.41190  1.0000
  H   H3735     1.0  0.73156  0.04034  0.34784  1.0000
  H   H3736     1.0  0.91560  0.11819  0.47165  1.0000
  H   H3737     1.0  0.94762  0.03987  0.46296  1.0000
  C   C2175     1.0  0.77098  0.09908  0.40811  1.0000
  H   H3738     1.0  0.77840  0.14563  0.40344  1.0000
  H   H3739     1.0  0.60361  0.01276  0.46355  1.0000
  H   H3740     1.0  0.92203  0.07613  0.46358  1.0000
  C   C2176     1.0  0.74351  0.05684  0.38084  1.0000
  H   H3741     1.0  0.67615  0.99839  0.25845  1.0000
  H   H3742     1.0  0.93581  0.01911  0.47012  1.0000
  N   N155      1.0  0.83530  0.00657  0.46777  1.0000
  C   C2177     1.0  0.62481  0.02981  0.25378  1.0000
  S   S633      1.0  0.64501  0.03635  0.28707  1.0000
  H   H3743     1.0  0.73823  0.07401  0.35252  1.0000
  S   S634      1.0  0.55667  0.07103  0.23869  1.0000
  Fe  Fe316     1.0  0.85207  0.18115  0.47503  1.0000
  C   C2178     1.0  0.74245  0.12554  0.41970  1.0000
  C   C2179     1.0  0.69122  0.99955  0.44048  1.0000
  H   H3744     1.0  0.74073  0.11840  0.43045  1.0000
  H   H3745     1.0  0.67866  0.04441  0.46228  1.0000
  H   H3746     1.0  0.78541  0.03919  0.36616  1.0000
  C   C2180     1.0  0.70221  0.02406  0.47175  1.0000
  H   H3747     1.0  0.58560  0.01204  0.45394  1.0000
  H   H3748     1.0  0.77933  0.05737  0.35754  1.0000
  C   C2181     1.0  0.64531  0.01284  0.37785  1.0000
  H   H3749     1.0  0.78246  0.09728  0.40194  1.0000
  H   H3750     1.0  0.75107  0.06139  0.38375  1.0000
  Fe  Fe317     1.0  0.64203  0.00134  0.33505  1.0000
  N   N156      1.0  0.85159  0.09935  0.48274  1.0000
  C   C2182     1.0  0.82535  0.01219  0.48053  1.0000
  H   H3751     1.0  0.76159  0.08530  0.34818  1.0000
  H   H3752     1.0  0.79014  0.13843  0.41618  1.0000
  H   H3753     1.0  0.89620  0.21449  0.48171  1.0000
  C   C2183     1.0  0.75744  0.12977  0.41422  1.0000
  H   H3754     1.0  0.90004  0.07644  0.45690  1.0000
  C   C2184     1.0  0.76969  0.10386  0.42194  1.0000
  H   H3755     1.0  0.75972  0.10099  0.42948  1.0000
  H   H3756     1.0  0.90792  0.23817  0.45692  1.0000
  Fe  Fe318     1.0  0.87113  0.15599  0.46223  1.0000
  H   H3757     1.0  0.79195  0.09601  0.48239  1.0000
  H   H3758     1.0  0.74766  0.12693  0.44539  1.0000
  C   C2185     1.0  0.68676  0.00618  0.42765  1.0000
  H   H3759     1.0  0.83220  0.02757  0.45364  1.0000
  H   H3760     1.0  0.79364  0.11366  0.41299  1.0000
  H   H3761     1.0  0.77101  0.13325  0.43296  1.0000
  C   C2186     1.0  0.86253  0.00356  0.45447  1.0000
  C   C2187     1.0  0.83130  0.01648  0.45425  1.0000
  C   C2188     1.0  0.89795  0.15051  0.47994  1.0000
  C   C2189     1.0  0.65276  0.99517  0.24380  1.0000
  H   H3762     1.0  0.85437  0.99962  0.47705  1.0000
  S   S635      1.0  0.85082  0.15816  0.47924  1.0000
  H   H3763     1.0  0.81058  0.99552  0.47374  1.0000
  H   H3764     1.0  0.67053  0.00183  0.36041  1.0000
  S   S636      1.0  0.70658  0.00333  0.44293  1.0000
  H   H3765     1.0  0.81169  0.19749  0.48201  1.0000
  C   C2190     1.0  0.81609  0.01752  0.45204  1.0000
  H   H3766     1.0  0.64806  0.00293  0.47904  1.0000
  C   C2191     1.0  0.67658  0.00131  0.42399  1.0000
  H   H3767     1.0  0.62496  0.00051  0.39849  1.0000
  H   H3768     1.0  0.91517  0.22964  0.47284  1.0000
  H   H3769     1.0  0.66330  0.00470  0.27310  1.0000
  H   H3770     1.0  0.91985  0.02882  0.48077  1.0000
  H   H3771     1.0  0.83896  0.01318  0.44457  1.0000
  C   C2192     1.0  0.66443  0.99761  0.39100  1.0000
  N   N157      1.0  0.88327  0.23625  0.48130  1.0000
  H   H3772     1.0  0.88833  0.09922  0.47926  1.0000
  C   C2193     1.0  0.86050  0.22709  0.48289  1.0000
  H   H3773     1.0  0.88250  0.08458  0.47720  1.0000
  H   H3774     1.0  0.81379  0.01243  0.48140  1.0000
  S   S637      1.0  0.74478  0.99587  0.41779  1.0000
  H   H3775     1.0  0.63810  0.99297  0.40977  1.0000
  C   C2194     1.0  0.60683  0.99445  0.34391  1.0000
  C   C2195     1.0  0.71595  0.01946  0.47801  1.0000
  N   N158      1.0  0.68951  0.01754  0.48084  1.0000
  S   S638      1.0  0.71717  0.99774  0.40416  1.0000
  H   H3776     1.0  0.60877  0.00784  0.48031  1.0000
  C   C2196     1.0  0.85289  0.08366  0.48362  1.0000
  C   C2197     1.0  0.83914  0.07957  0.48264  1.0000
  C   C2198     1.0  0.66892  0.99490  0.26882  1.0000
  C   C2199     1.0  0.58219  0.00167  0.45913  1.0000
  H   H3777     1.0  0.57412  0.00391  0.44028  1.0000
  H   H3778     1.0  0.59202  0.02038  0.47855  1.0000
  H   H3779     1.0  0.65659  0.99403  0.36051  1.0000
  C   C2200     1.0  0.69478  0.00139  0.48327  1.0000
  C   C2201     1.0  0.57007  0.00158  0.45210  1.0000
  H   H3780     1.0  0.57054  0.02279  0.47243  1.0000
  C   C2202     1.0  0.59185  0.99762  0.48040  1.0000
  N   N159      1.0  0.57823  0.99966  0.47521  1.0000
  C   C2203     1.0  0.56708  0.01274  0.47901  1.0000
  H   H3781     1.0  0.55657  0.01335  0.47641  1.0000
  C   C2204     1.0  0.66015  0.00806  0.23855  1.0000
  H   H3782     1.0  0.70027  0.99807  0.47295  1.0000
  H   H3783     1.0  0.64648  0.99401  0.27152  1.0000
  H   H3784     1.0  0.68275  0.04523  0.48575  1.0000
  C   C2205     1.0  0.66398  0.99394  0.36721  1.0000
  H   H3785     1.0  0.59185  0.99332  0.45572  1.0000
  C   C2206     1.0  0.86491  0.10099  0.48635  1.0000
  H   H3786     1.0  0.67598  0.99297  0.48379  1.0000
  H   H3787     1.0  0.86258  0.99320  0.45233  1.0000
  C   C2207     1.0  0.90772  0.15203  0.48703  1.0000
  H   H3788     1.0  0.93708  0.02390  0.48551  1.0000
  H   H3789     1.0  0.86384  0.11227  0.48699  1.0000
  C   C2208     1.0  0.52803  0.07913  0.23729  1.0000
  Fe  Fe319     1.0  0.80466  0.11322  0.53926  1.0000
  S   S639      1.0  0.82643  0.11789  0.53643  1.0000
  S   S640      1.0  0.79522  0.11701  0.51997  1.0000
  Fe  Fe320     1.0  0.80089  0.10387  0.57147  1.0000
  S   S641      1.0  0.82269  0.10782  0.57119  1.0000
  S   S642      1.0  0.78723  0.09260  0.59164  1.0000
  Fe  Fe321     1.0  0.81654  0.12824  0.55522  1.0000
  S   S643      1.0  0.82326  0.14957  0.54969  1.0000
  Fe  Fe322     1.0  0.83094  0.09737  0.55239  1.0000
  S   S644      1.0  0.85335  0.08370  0.54634  1.0000
  S   S645      1.0  0.79404  0.12525  0.55688  1.0000
  S   S646      1.0  0.80982  0.09184  0.55386  1.0000
  Fe  Fe323     1.0  0.87462  0.18089  0.57270  1.0000
  S   S647      1.0  0.87828  0.20218  0.55821  1.0000
  S   S648      1.0  0.85403  0.17262  0.58436  1.0000
  Fe  Fe324     1.0  0.90684  0.16752  0.56850  1.0000
  S   S649      1.0  0.91341  0.18724  0.55355  1.0000
  S   S650      1.0  0.92279  0.14722  0.57556  1.0000
  Fe  Fe325     1.0  0.89668  0.19943  0.56913  1.0000
  S   S651      1.0  0.90280  0.21888  0.57234  1.0000
  Fe  Fe326     1.0  0.89484  0.18864  0.54383  1.0000
  S   S652      1.0  0.89881  0.19189  0.51983  1.0000
  S   S653      1.0  0.89142  0.17933  0.58491  1.0000
  S   S654      1.0  0.88986  0.16779  0.55745  1.0000
  Fe  Fe327     1.0  0.93555  0.09518  0.53413  1.0000
  S   S655      1.0  0.95018  0.11069  0.52741  1.0000
  S   S656      1.0  0.92245  0.09178  0.55670  1.0000
  Fe  Fe328     1.0  0.94170  0.08999  0.50429  1.0000
  H   H3790     1.0  0.81966  0.00732  0.50386  1.0000
  H   H3791     1.0  0.54642  0.12573  0.72879  1.0000
  Fe  Fe329     1.0  0.96546  0.09464  0.51510  1.0000
  C   C2209     1.0  0.71166  0.99803  0.63558  1.0000
  Fe  Fe330     1.0  0.94068  0.11934  0.50802  1.0000
  S   S657      1.0  0.95155  0.07818  0.52335  1.0000
  S   S658      1.0  0.92453  0.10540  0.51595  1.0000
  Fe  Fe331     1.0  0.63480  0.01683  0.55570  1.0000
  Fe  Fe332     1.0  0.89898  0.01916  0.50646  1.0000
  H   H3792     1.0  0.87640  0.11963  0.62232  1.0000
  S   S659      1.0  0.91603  0.02224  0.51579  1.0000
  C   C2210     1.0  0.94124  0.15192  0.53438  1.0000
  Fe  Fe333     1.0  0.86722  0.02764  0.50528  1.0000
  S   S660      1.0  0.84595  0.04171  0.51322  1.0000
  H   H3793     1.0  0.70030  0.01870  0.59899  1.0000
  H   H3794     1.0  0.71427  0.99696  0.59034  1.0000
  S   S661      1.0  0.90442  0.00293  0.49294  1.0000
  S   S662      1.0  0.58275  0.01312  0.65086  1.0000
  S   S663      1.0  0.55722  0.00387  0.63209  1.0000
  S   S664      1.0  0.64395  0.03085  0.53504  1.0000
  S   S665      1.0  0.61553  0.02536  0.57180  1.0000
  H   H3795     1.0  0.57287  0.01411  0.49847  1.0000
  S   S666      1.0  0.68315  0.03179  0.53916  1.0000
  Fe  Fe334     1.0  0.61484  0.04764  0.70115  1.0000
  S   S667      1.0  0.62265  0.05863  0.67828  1.0000
  H   H3796     1.0  0.95402  0.16949  0.53694  1.0000
  H   H3797     1.0  0.97055  0.18222  0.58718  1.0000
  S   S668      1.0  0.59081  0.04908  0.71037  1.0000
  S   S669      1.0  0.62093  0.02361  0.70594  1.0000
  Fe  Fe335     1.0  0.68979  0.05177  0.60377  1.0000
  S   S670      1.0  0.71297  0.04679  0.59166  1.0000
  S   S671      1.0  0.66983  0.05477  0.59542  1.0000
  Fe  Fe336     1.0  0.69868  0.04925  0.63136  1.0000
  S   S672      1.0  0.72271  0.04411  0.62146  1.0000
  S   S673      1.0  0.69107  0.04905  0.65493  1.0000
  Fe  Fe337     1.0  0.71695  0.06165  0.60275  1.0000
  S   S674      1.0  0.72810  0.07973  0.58924  1.0000
  Fe  Fe338     1.0  0.71648  0.02981  0.61136  1.0000
  S   S675      1.0  0.69326  0.06796  0.61348  1.0000
  S   S676      1.0  0.69296  0.03368  0.62267  1.0000
  H   H3798     1.0  0.64326  0.01767  0.65169  1.0000
  H   H3799     1.0  0.81813  0.13299  0.50984  1.0000
  S   S677      1.0  0.93170  0.14231  0.49884  1.0000
  H   H3800     1.0  0.98339  0.13559  0.51139  1.0000
  H   H3801     1.0  0.95783  0.17324  0.51794  1.0000
  C   C2211     1.0  0.69658  0.01524  0.59125  1.0000
  H   H3802     1.0  0.97735  0.13678  0.53383  1.0000
  H   H3803     1.0  0.65678  0.03776  0.56049  1.0000
  C   C2212     1.0  0.96202  0.13910  0.55354  1.0000
  C   C2213     1.0  0.91108  0.05076  0.50238  1.0000
  H   H3804     1.0  0.71006  0.00866  0.63732  1.0000
  H   H3805     1.0  0.50887  0.02537  0.68685  1.0000
  C   C2214     1.0  0.77579  0.05991  0.53841  1.0000
  H   H3806     1.0  0.78262  0.08327  0.54194  1.0000
  C   C2215     1.0  0.64170  0.05534  0.67191  1.0000
  C   C2216     1.0  0.64753  0.05894  0.65715  1.0000
  C   C2217     1.0  0.66270  0.05668  0.65183  1.0000
  C   C2218     1.0  0.67209  0.05109  0.66130  1.0000
  C   C2219     1.0  0.66627  0.04742  0.67606  1.0000
  C   C2220     1.0  0.65110  0.04937  0.68135  1.0000
  H   H3807     1.0  0.64029  0.06360  0.64983  1.0000
  H   H3808     1.0  0.66710  0.05954  0.64043  1.0000
  H   H3809     1.0  0.67350  0.04310  0.68342  1.0000
  H   H3810     1.0  0.64668  0.04657  0.69275  1.0000
  H   H3811     1.0  0.72225  0.10637  0.63576  1.0000
  Fe  Fe339     1.0  0.66543  0.02071  0.54122  1.0000
  H   H3812     1.0  0.98137  0.10532  0.55824  1.0000
  H   H3813     1.0  0.95188  0.13535  0.55946  1.0000
  C   C2221     1.0  0.67927  0.03939  0.55406  1.0000
  C   C2222     1.0  0.69016  0.04380  0.55722  1.0000
  C   C2223     1.0  0.68728  0.04896  0.56970  1.0000
  C   C2224     1.0  0.67356  0.04965  0.57904  1.0000
  C   C2225     1.0  0.66259  0.04578  0.57553  1.0000
  C   C2226     1.0  0.66540  0.04063  0.56311  1.0000
  H   H3814     1.0  0.70084  0.04307  0.55012  1.0000
  H   H3815     1.0  0.69566  0.05246  0.57201  1.0000
  C   C2227     1.0  0.60440  0.01302  0.58033  1.0000
  C   C2228     1.0  0.60176  0.00446  0.57278  1.0000
  H   H3816     1.0  0.62361  0.02424  0.65519  1.0000
  S   S678      1.0  0.92861  0.22891  0.62029  1.0000
  H   H3817     1.0  0.53688  0.99480  0.61934  1.0000
  H   H3818     1.0  0.97681  0.22740  0.60326  1.0000
  H   H3819     1.0  0.98926  0.20017  0.59113  1.0000
  C   C2229     1.0  0.58258  0.01297  0.66861  1.0000
  C   C2230     1.0  0.57647  0.00305  0.68007  1.0000
  C   C2231     1.0  0.57692  0.00258  0.69411  1.0000
  C   C2232     1.0  0.58361  0.01195  0.69681  1.0000
  C   C2233     1.0  0.58968  0.02200  0.68539  1.0000
  C   C2234     1.0  0.58914  0.02252  0.67131  1.0000
  H   H3820     1.0  0.63453  0.03047  0.66265  1.0000
  H   H3821     1.0  0.89289  0.10213  0.51177  1.0000
  H   H3822     1.0  0.59477  0.02936  0.68740  1.0000
  H   H3823     1.0  0.59387  0.03027  0.66252  1.0000
  H   H3824     1.0  0.65197  0.04670  0.58252  1.0000
  H   H3825     1.0  0.67384  0.04068  0.50402  1.0000
  H   H3826     1.0  0.78260  0.17930  0.50959  1.0000
  H   H3827     1.0  0.92731  0.04968  0.55575  1.0000
  C   C2235     1.0  0.92039  0.03916  0.50928  1.0000
  S   S679      1.0  0.98950  0.09082  0.51320  1.0000
  H   H3828     1.0  0.86612  0.09440  0.49715  1.0000
  C   C2236     1.0  0.92815  0.06582  0.49801  1.0000
  H   H3829     1.0  0.55844  0.00465  0.50208  1.0000
  C   C2237     1.0  0.93335  0.04107  0.51102  1.0000
  H   H3830     1.0  0.98622  0.18558  0.60536  1.0000
  H   H3831     1.0  0.78680  0.06222  0.53339  1.0000
  H   H3832     1.0  0.51477  0.01831  0.60386  1.0000
  C   C2238     1.0  0.98427  0.09968  0.53814  1.0000
  H   H3833     1.0  0.97512  0.09451  0.54183  1.0000
  H   H3834     1.0  0.62611  0.99566  0.52341  1.0000
  H   H3835     1.0  0.70584  0.09174  0.61448  1.0000
  C   C2239     1.0  0.91006  0.22131  0.58581  1.0000
  C   C2240     1.0  0.91095  0.21115  0.59867  1.0000
  C   C2241     1.0  0.91640  0.21378  0.60916  1.0000
  C   C2242     1.0  0.92128  0.22647  0.60687  1.0000
  H   H3836     1.0  0.62066  0.01339  0.68026  1.0000
  C   C2243     1.0  0.91489  0.23402  0.58354  1.0000
  H   H3837     1.0  0.90718  0.20138  0.60065  1.0000
  H   H3838     1.0  0.91678  0.20593  0.61915  1.0000
  C   C2244     1.0  0.50945  0.01739  0.68078  1.0000
  C   C2245     1.0  0.81668  0.14440  0.50410  1.0000
  C   C2246     1.0  0.92208  0.13193  0.57045  1.0000
  C   C2247     1.0  0.92770  0.11828  0.57810  1.0000
  C   C2248     1.0  0.92732  0.10591  0.57421  1.0000
  C   C2249     1.0  0.92170  0.10717  0.56239  1.0000
  C   C2250     1.0  0.91626  0.12081  0.55460  1.0000
  C   C2251     1.0  0.91622  0.13316  0.55879  1.0000
  H   H3839     1.0  0.93239  0.11727  0.58704  1.0000
  H   H3840     1.0  0.93180  0.09539  0.58007  1.0000
  H   H3841     1.0  0.91223  0.12183  0.54525  1.0000
  H   H3842     1.0  0.91220  0.14362  0.55260  1.0000
  C   C2252     1.0  0.88443  0.19077  0.51319  1.0000
  C   C2253     1.0  0.87008  0.19272  0.52124  1.0000
  C   C2254     1.0  0.85866  0.19286  0.51523  1.0000
  C   C2255     1.0  0.86157  0.19067  0.50131  1.0000
  H   H3843     1.0  0.56997  0.11336  0.72863  1.0000
  C   C2256     1.0  0.88734  0.18859  0.49929  1.0000
  H   H3844     1.0  0.86774  0.19452  0.53194  1.0000
  H   H3845     1.0  0.84754  0.19466  0.52140  1.0000
  C   C2257     1.0  0.77123  0.08852  0.59047  1.0000
  C   C2258     1.0  0.76327  0.09711  0.58030  1.0000
  C   C2259     1.0  0.75005  0.09426  0.58018  1.0000
  C   C2260     1.0  0.74489  0.08255  0.58990  1.0000
  C   C2261     1.0  0.75304  0.07368  0.59983  1.0000
  C   C2262     1.0  0.76605  0.07682  0.60026  1.0000
  H   H3846     1.0  0.76711  0.10621  0.57279  1.0000
  H   H3847     1.0  0.74378  0.10121  0.57249  1.0000
  H   H3848     1.0  0.74933  0.06447  0.60722  1.0000
  H   H3849     1.0  0.77221  0.07010  0.60813  1.0000
  C   C2263     1.0  0.83230  0.15512  0.55956  1.0000
  C   C2264     1.0  0.83003  0.15078  0.57447  1.0000
  C   C2265     1.0  0.83641  0.15651  0.58199  1.0000
  C   C2266     1.0  0.84577  0.16598  0.57463  1.0000
  C   C2267     1.0  0.84836  0.16996  0.55970  1.0000
  C   C2268     1.0  0.84132  0.16489  0.55226  1.0000
  H   H3850     1.0  0.82284  0.14352  0.58023  1.0000
  H   H3851     1.0  0.83413  0.15355  0.59356  1.0000
  H   H3852     1.0  0.85534  0.17741  0.55392  1.0000
  H   H3853     1.0  0.84271  0.16878  0.54083  1.0000
  C   C2269     1.0  0.85179  0.07135  0.53762  1.0000
  C   C2270     1.0  0.86272  0.06760  0.52596  1.0000
  C   C2271     1.0  0.86116  0.05813  0.51869  1.0000
  C   C2272     1.0  0.84841  0.05288  0.52270  1.0000
  C   C2273     1.0  0.83749  0.05667  0.53432  1.0000
  C   C2274     1.0  0.83936  0.06561  0.54197  1.0000
  H   H3854     1.0  0.87223  0.07220  0.52231  1.0000
  H   H3855     1.0  0.86958  0.05532  0.50969  1.0000
  H   H3856     1.0  0.82772  0.05246  0.53757  1.0000
  H   H3857     1.0  0.83127  0.06780  0.55141  1.0000
  H   H3858     1.0  0.71094  0.10387  0.66331  1.0000
  C   C2275     1.0  0.59818  0.01168  0.59496  1.0000
  C   C2276     1.0  0.79819  0.10260  0.51169  1.0000
  C   C2277     1.0  0.80432  0.08852  0.51797  1.0000
  C   C2278     1.0  0.80571  0.07715  0.51159  1.0000
  H   H3859     1.0  0.94053  0.03214  0.51647  1.0000
  H   H3860     1.0  0.80788  0.08632  0.52780  1.0000
  H   H3861     1.0  0.81046  0.06627  0.51651  1.0000
  C   C2279     1.0  0.80308  0.17643  0.52301  1.0000
  H   H3862     1.0  0.70134  0.02108  0.58049  1.0000
  H   H3863     1.0  0.98515  0.15607  0.52285  1.0000
  H   H3864     1.0  0.69304  0.03728  0.49964  1.0000
  H   H3865     1.0  0.95848  0.21341  0.62064  1.0000
  H   H3866     1.0  0.54161  0.11285  0.72274  1.0000
  H   H3867     1.0  0.91942  0.16402  0.53227  1.0000
  H   H3868     1.0  0.90788  0.07294  0.49108  1.0000
  S   S680      1.0  0.88645  0.03656  0.49179  1.0000
  C   C2280     1.0  0.98003  0.21722  0.61089  1.0000
  H   H3869     1.0  0.51789  0.12567  0.72897  1.0000
  H   H3870     1.0  0.97292  0.19818  0.62335  1.0000
  C   C2281     1.0  0.54680  0.11403  0.73081  1.0000
  S   S681      1.0  0.58465  0.01051  0.71447  1.0000
  H   H3871     1.0  0.95930  0.18216  0.63035  1.0000
  H   H3872     1.0  0.82655  0.14569  0.49552  1.0000
  H   H3873     1.0  0.71791  0.11757  0.61363  1.0000
  H   H3874     1.0  0.69819  0.00980  0.56564  1.0000
  S   S682      1.0  0.64542  0.01351  0.50378  1.0000
  H   H3875     1.0  0.62834  0.99395  0.72947  1.0000
  H   H3876     1.0  0.97793  0.16416  0.53823  1.0000
  H   H3877     1.0  0.97957  0.17501  0.52069  1.0000
  H   H3878     1.0  0.67437  0.99774  0.60931  1.0000
  C   C2282     1.0  0.78210  0.15820  0.52268  1.0000
  C   C2283     1.0  0.93080  0.16389  0.52608  1.0000
  H   H3879     1.0  0.54238  0.01340  0.58849  1.0000
  H   H3880     1.0  0.82370  0.17679  0.49710  1.0000
  H   H3881     1.0  0.84596  0.09720  0.51353  1.0000
  H   H3882     1.0  0.71005  0.08643  0.66354  1.0000
  C   C2284     1.0  0.71560  0.09522  0.65721  1.0000
  H   H3883     1.0  0.57159  0.99553  0.67815  1.0000
  H   H3884     1.0  0.79994  0.16932  0.53368  1.0000
  N   N160      1.0  0.71169  0.09065  0.63424  1.0000
  C   C2285     1.0  0.98103  0.18507  0.58586  1.0000
  H   H3885     1.0  0.79398  0.18611  0.52264  1.0000
  H   H3886     1.0  0.88328  0.12092  0.57118  1.0000
  H   H3887     1.0  0.98038  0.22026  0.62066  1.0000
  C   C2286     1.0  0.64100  0.99734  0.48797  1.0000
  C   C2287     1.0  0.71807  0.10810  0.60976  1.0000
  C   C2288     1.0  0.70012  0.08232  0.64265  1.0000
  H   H3888     1.0  0.83079  0.99215  0.49669  1.0000
  H   H3889     1.0  0.72654  0.07613  0.62123  1.0000
  H   H3890     1.0  0.55506  0.02371  0.49625  1.0000
  H   H3891     1.0  0.81372  0.17112  0.48839  1.0000
  H   H3892     1.0  0.89274  0.14161  0.58546  1.0000
  H   H3893     1.0  0.93528  0.03515  0.54694  1.0000
  S   S683      1.0  0.86952  0.01239  0.49162  1.0000
  S   S684      1.0  0.93330  0.08214  0.48989  1.0000
  C   C2289     1.0  0.99294  0.09970  0.52435  1.0000
  C   C2290     1.0  0.52388  0.99667  0.58964  1.0000
  C   C2291     1.0  0.63131  0.00898  0.67354  1.0000
  H   H3894     1.0  0.69057  0.01443  0.50289  1.0000
  Fe  Fe340     1.0  0.59732  0.02514  0.71652  1.0000
  H   H3895     1.0  0.55487  0.00819  0.60001  1.0000
  C   C2292     1.0  0.91503  0.06402  0.49658  1.0000
  H   H3896     1.0  0.88580  0.11787  0.49927  1.0000
  H   H3897     1.0  0.72939  0.10177  0.60743  1.0000
  H   H3898     1.0  0.85176  0.22229  0.49097  1.0000
  H   H3899     1.0  0.93839  0.14153  0.53538  1.0000
  H   H3900     1.0  0.83424  0.07335  0.49318  1.0000
  H   H3901     1.0  0.90673  0.13268  0.60294  1.0000
  C   C2293     1.0  0.53772  0.99609  0.60768  1.0000
  S   S685      1.0  0.87935  0.01147  0.52098  1.0000
  H   H3902     1.0  0.55149  0.08194  0.73528  1.0000
  H   H3903     1.0  0.51816  0.00797  0.68385  1.0000
  H   H3904     1.0  0.65250  0.99417  0.64607  1.0000
  C   C2294     1.0  0.68353  0.03708  0.49579  1.0000
  C   C2295     1.0  0.87057  0.22990  0.49073  1.0000
  H   H3905     1.0  0.59994  0.01839  0.60083  1.0000
  H   H3906     1.0  0.96811  0.17261  0.61598  1.0000
  S   S686      1.0  0.67037  0.00255  0.53036  1.0000
  C   C2296     1.0  0.95825  0.18020  0.62033  1.0000
  S   S687      1.0  0.63706  0.99805  0.54634  1.0000
  H   H3907     1.0  0.61268  0.00118  0.66258  1.0000
  H   H3908     1.0  0.78113  0.16050  0.53319  1.0000
  Fe  Fe341     1.0  0.59585  0.04888  0.73109  1.0000
  H   H3909     1.0  0.88772  0.22429  0.51041  1.0000
  C   C2297     1.0  0.54320  0.01000  0.59984  1.0000
  H   H3910     1.0  0.51316  0.02148  0.66913  1.0000
  C   C2298     1.0  0.96538  0.13840  0.53765  1.0000
  S   S688      1.0  0.61935  0.04974  0.72131  1.0000
  H   H3911     1.0  0.83859  0.00663  0.49666  1.0000
  C   C2299     1.0  0.79548  0.09389  0.49226  1.0000
  N   N161      1.0  0.96682  0.20252  0.60294  1.0000
  C   C2300     1.0  0.89554  0.13891  0.60652  1.0000
  C   C2301     1.0  0.95481  0.19431  0.60921  1.0000
  C   C2302     1.0  0.96217  0.21578  0.59190  1.0000
  C   C2303     1.0  0.98112  0.19342  0.59674  1.0000
  H   H3912     1.0  0.82803  0.10581  0.49013  1.0000
  H   H3913     1.0  0.94898  0.17478  0.62334  1.0000
  C   C2304     1.0  0.95472  0.21408  0.58094  1.0000
  H   H3914     1.0  0.71474  0.99724  0.56595  1.0000
  H   H3915     1.0  0.97716  0.14224  0.49523  1.0000
  H   H3916     1.0  0.90161  0.23369  0.50778  1.0000
  H   H3917     1.0  0.95135  0.19145  0.60093  1.0000
  H   H3918     1.0  0.94480  0.20119  0.61446  1.0000
  H   H3919     1.0  0.95430  0.22424  0.59725  1.0000
  H   H3920     1.0  0.97164  0.22060  0.58558  1.0000
  C   C2305     1.0  0.92025  0.14131  0.48866  1.0000
  H   H3921     1.0  0.80196  0.19903  0.49975  1.0000
  N   N162      1.0  0.52346  0.99544  0.60518  1.0000
  H   H3922     1.0  0.75346  0.09496  0.53231  1.0000
  C   C2306     1.0  0.73020  0.06695  0.64221  1.0000
  S   S689      1.0  0.51771  0.00019  0.65157  1.0000
  H   H3923     1.0  0.80741  0.14633  0.49906  1.0000
  H   H3924     1.0  0.85595  0.07705  0.49377  1.0000
  H   H3925     1.0  0.95271  0.22452  0.57318  1.0000
  H   H3926     1.0  0.94384  0.21157  0.58606  1.0000
  H   H3927     1.0  0.96144  0.20604  0.57467  1.0000
  C   C2307     1.0  0.83829  0.10519  0.49323  1.0000
  H   H3928     1.0  0.86367  0.23662  0.49844  1.0000
  H   H3929     1.0  0.52203  0.00819  0.58396  1.0000
  N   N163      1.0  0.87871  0.12752  0.59929  1.0000
  C   C2308     1.0  0.86893  0.13086  0.58899  1.0000
  C   C2309     1.0  0.89062  0.11437  0.59738  1.0000
  C   C2310     1.0  0.88568  0.14007  0.59640  1.0000
  C   C2311     1.0  0.87652  0.13148  0.57309  1.0000
  C   C2312     1.0  0.88549  0.10056  0.59907  1.0000
  H   H3930     1.0  0.86172  0.12309  0.59212  1.0000
  H   H3931     1.0  0.89811  0.11636  0.58671  1.0000
  H   H3932     1.0  0.89763  0.11184  0.60521  1.0000
  H   H3933     1.0  0.86799  0.13472  0.56675  1.0000
  H   H3934     1.0  0.88326  0.13963  0.56882  1.0000
  H   H3935     1.0  0.89525  0.09185  0.59682  1.0000
  H   H3936     1.0  0.87874  0.10178  0.59140  1.0000
  H   H3937     1.0  0.87946  0.09692  0.61016  1.0000
  C   C2313     1.0  0.51212  0.00788  0.61029  1.0000
  C   C2314     1.0  0.56322  0.10683  0.72711  1.0000
  H   H3938     1.0  0.56649  0.10672  0.71552  1.0000
  H   H3939     1.0  0.66282  0.99837  0.65623  1.0000
  H   H3940     1.0  0.81860  0.19079  0.51464  1.0000
  Fe  Fe342     1.0  0.64792  0.01138  0.52608  1.0000
  H   H3941     1.0  0.58566  0.00008  0.61357  1.0000
  H   H3942     1.0  0.63006  0.99508  0.70048  1.0000
  H   H3943     1.0  0.68430  0.09916  0.65308  1.0000
  S   S690      1.0  0.95721  0.10472  0.49499  1.0000
  C   C2315     1.0  0.81239  0.17679  0.49697  1.0000
  N   N164      1.0  0.61843  0.04340  0.61299  1.0000
  C   C2316     1.0  0.61145  0.04797  0.60026  1.0000
  C   C2317     1.0  0.60688  0.03970  0.62626  1.0000
  C   C2318     1.0  0.63078  0.03040  0.61191  1.0000
  C   C2319     1.0  0.62453  0.05554  0.61348  1.0000
  C   C2320     1.0  0.62170  0.05096  0.58540  1.0000
  C   C2321     1.0  0.59548  0.05254  0.63135  1.0000
  C   C2322     1.0  0.62699  0.01727  0.60969  1.0000
  C   C2323     1.0  0.63159  0.05303  0.62626  1.0000
  H   H3944     1.0  0.60569  0.03983  0.60018  1.0000
  H   H3945     1.0  0.60285  0.05796  0.60089  1.0000
  H   H3946     1.0  0.61177  0.03309  0.63546  1.0000
  H   H3947     1.0  0.60061  0.03274  0.62462  1.0000
  H   H3948     1.0  0.64018  0.03307  0.60313  1.0000
  H   H3949     1.0  0.63520  0.02671  0.62178  1.0000
  H   H3950     1.0  0.63333  0.05778  0.60381  1.0000
  H   H3951     1.0  0.61628  0.06589  0.61288  1.0000
  H   H3952     1.0  0.61519  0.05398  0.57708  1.0000
  H   H3953     1.0  0.62675  0.06012  0.58381  1.0000
  H   H3954     1.0  0.63016  0.04129  0.58321  1.0000
  H   H3955     1.0  0.58992  0.05965  0.62282  1.0000
  H   H3956     1.0  0.58694  0.04839  0.64033  1.0000
  H   H3957     1.0  0.60036  0.05890  0.63551  1.0000
  H   H3958     1.0  0.61769  0.01382  0.61806  1.0000
  H   H3959     1.0  0.63652  0.00807  0.61023  1.0000
  H   H3960     1.0  0.62471  0.01933  0.59894  1.0000
  H   H3961     1.0  0.64339  0.04791  0.62363  1.0000
  H   H3962     1.0  0.62629  0.04641  0.63620  1.0000
  H   H3963     1.0  0.63043  0.06352  0.62884  1.0000
  N   N165      1.0  0.76773  0.06882  0.54944  1.0000
  C   C2324     1.0  0.77316  0.06173  0.56306  1.0000
  C   C2325     1.0  0.75147  0.06995  0.55317  1.0000
  C   C2326     1.0  0.77074  0.08372  0.54451  1.0000
  C   C2327     1.0  0.78918  0.06146  0.56231  1.0000
  C   C2328     1.0  0.74649  0.05569  0.56028  1.0000
  H   H3964     1.0  0.76640  0.06705  0.57192  1.0000
  H   H3965     1.0  0.77210  0.05033  0.56676  1.0000
  H   H3966     1.0  0.74653  0.07485  0.54375  1.0000
  H   H3967     1.0  0.74597  0.07739  0.56058  1.0000
  H   H3968     1.0  0.76592  0.08968  0.55326  1.0000
  H   H3969     1.0  0.79257  0.05392  0.57197  1.0000
  H   H3970     1.0  0.79678  0.05783  0.55278  1.0000
  H   H3971     1.0  0.79035  0.07216  0.56254  1.0000
  H   H3972     1.0  0.74735  0.05215  0.57167  1.0000
  H   H3973     1.0  0.73479  0.05735  0.56031  1.0000
  H   H3974     1.0  0.75272  0.04703  0.55453  1.0000
  H   H3975     1.0  0.93815  0.15386  0.54540  1.0000
  H   H3976     1.0  0.62910  0.00189  0.64973  1.0000
  H   H3977     1.0  0.95492  0.15735  0.50614  1.0000
  C   C2329     1.0  0.70737  0.09907  0.62033  1.0000
  C   C2330     1.0  0.96051  0.14811  0.51341  1.0000
  H   H3978     1.0  0.89842  0.18711  0.49306  1.0000
  N   N166      1.0  0.95735  0.15099  0.52818  1.0000
  H   H3979     1.0  0.72316  0.05926  0.64421  1.0000
  H   H3980     1.0  0.90486  0.22038  0.49776  1.0000
  C   C2331     1.0  0.81657  0.18134  0.52337  1.0000
  H   H3981     1.0  0.69945  0.07494  0.63644  1.0000
  H   H3982     1.0  0.79036  0.16562  0.50001  1.0000
  H   H3983     1.0  0.95605  0.13882  0.51386  1.0000
  H   H3984     1.0  0.87449  0.21939  0.49768  1.0000
  C   C2332     1.0  0.97680  0.16471  0.52731  1.0000
  C   C2333     1.0  0.96902  0.20747  0.61504  1.0000
  H   H3985     1.0  0.63971  0.00846  0.67932  1.0000
  H   H3986     1.0  0.98905  0.17463  0.58726  1.0000
  H   H3987     1.0  0.99127  0.21168  0.60655  1.0000
  H   H3988     1.0  0.78762  0.14680  0.52277  1.0000
  C   C2334     1.0  0.72617  0.08040  0.63055  1.0000
  H   H3989     1.0  0.66413  0.00421  0.70390  1.0000
  H   H3990     1.0  0.56636  0.09560  0.73289  1.0000
  H   H3991     1.0  0.70336  0.11037  0.64214  1.0000
  C   C2335     1.0  0.62426  0.99537  0.66005  1.0000
  C   C2336     1.0  0.68459  0.09125  0.64703  1.0000
  H   H3992     1.0  0.51200  0.00766  0.62156  1.0000
  H   H3993     1.0  0.77686  0.06013  0.51628  1.0000
  H   H3994     1.0  0.68453  0.01863  0.59357  1.0000
  H   H3995     1.0  0.85208  0.13500  0.62984  1.0000
  H   H3996     1.0  0.77089  0.15950  0.52134  1.0000
  H   H3997     1.0  0.71464  0.11223  0.59937  1.0000
  H   H3998     1.0  0.54482  0.99696  0.57398  1.0000
  C   C2337     1.0  0.81415  0.15405  0.51469  1.0000
  H   H3999     1.0  0.93272  0.17472  0.52470  1.0000
  H   H4000     1.0  0.76068  0.07168  0.52338  1.0000
  H   H4001     1.0  0.67618  0.00680  0.58263  1.0000
  C   C2338     1.0  0.79390  0.10525  0.49874  1.0000
  C   C2339     1.0  0.76535  0.09336  0.53115  1.0000
  C   C2340     1.0  0.56332  0.01364  0.49489  1.0000
  H   H4002     1.0  0.89618  0.14987  0.60657  1.0000
  H   H4003     1.0  0.67954  0.09664  0.63770  1.0000
  C   C2341     1.0  0.96085  0.16507  0.52747  1.0000
  C   C2342     1.0  0.78998  0.16846  0.51016  1.0000
  C   C2343     1.0  0.89004  0.24103  0.49046  1.0000
  H   H4004     1.0  0.76750  0.10418  0.52942  1.0000
  S   S691      1.0  0.84697  0.19143  0.49389  1.0000
  H   H4005     1.0  0.82518  0.15458  0.51513  1.0000
  H   H4006     1.0  0.85141  0.14403  0.61175  1.0000
  C   C2344     1.0  0.85892  0.13834  0.61906  1.0000
  H   H4007     1.0  0.81463  0.18461  0.53363  1.0000
  C   C2345     1.0  0.80115  0.07977  0.49882  1.0000
  H   H4008     1.0  0.90534  0.16125  0.49168  1.0000
  C   C2346     1.0  0.98784  0.10577  0.54742  1.0000
  C   C2347     1.0  0.86952  0.12491  0.61431  1.0000
  N   N167      1.0  0.87501  0.13277  0.52500  1.0000
  C   C2348     1.0  0.87995  0.14089  0.53281  1.0000
  C   C2349     1.0  0.86348  0.12539  0.53553  1.0000
  C   C2350     1.0  0.86859  0.14269  0.51277  1.0000
  C   C2351     1.0  0.88797  0.12215  0.51895  1.0000
  C   C2352     1.0  0.89065  0.15048  0.52357  1.0000
  C   C2353     1.0  0.86907  0.11196  0.54644  1.0000
  C   C2354     1.0  0.85609  0.15521  0.51676  1.0000
  C   C2355     1.0  0.88486  0.11259  0.51081  1.0000
  H   H4009     1.0  0.87047  0.14783  0.53867  1.0000
  H   H4010     1.0  0.88550  0.13332  0.54120  1.0000
  H   H4011     1.0  0.85695  0.12216  0.52996  1.0000
  H   H4012     1.0  0.85532  0.13289  0.54188  1.0000
  H   H4013     1.0  0.87706  0.14731  0.50413  1.0000
  H   H4014     1.0  0.86425  0.13670  0.50760  1.0000
  H   H4015     1.0  0.89623  0.12783  0.51109  1.0000
  H   H4016     1.0  0.89390  0.11519  0.52733  1.0000
  H   H4017     1.0  0.88617  0.15873  0.51491  1.0000
  H   H4018     1.0  0.89277  0.15641  0.53042  1.0000
  H   H4019     1.0  0.90137  0.14408  0.51908  1.0000
  H   H4020     1.0  0.85958  0.10856  0.55461  1.0000
  H   H4021     1.0  0.87489  0.10285  0.54119  1.0000
  H   H4022     1.0  0.87624  0.11396  0.55212  1.0000
  H   H4023     1.0  0.85175  0.16135  0.50717  1.0000
  H   H4024     1.0  0.85988  0.16277  0.52041  1.0000
  H   H4025     1.0  0.84695  0.15137  0.52497  1.0000
  H   H4026     1.0  0.83632  0.08560  0.51041  1.0000
  H   H4027     1.0  0.87400  0.10994  0.51515  1.0000
  C   C2356     1.0  0.58990  0.00138  0.60217  1.0000
  N   N168      1.0  0.89848  0.05357  0.55060  1.0000
  C   C2357     1.0  0.88535  0.04718  0.55347  1.0000
  C   C2358     1.0  0.89721  0.05930  0.56349  1.0000
  C   C2359     1.0  0.91187  0.04156  0.54907  1.0000
  C   C2360     1.0  0.89858  0.06513  0.53703  1.0000
  C   C2361     1.0  0.88544  0.03870  0.54262  1.0000
  C   C2362     1.0  0.88332  0.07087  0.56713  1.0000
  C   C2363     1.0  0.92669  0.04521  0.54700  1.0000
  C   C2364     1.0  0.90767  0.07641  0.53457  1.0000
  H   H4028     1.0  0.88387  0.03978  0.56424  1.0000
  H   H4029     1.0  0.87514  0.05570  0.55371  1.0000
  H   H4030     1.0  0.90653  0.06401  0.56244  1.0000
  H   H4031     1.0  0.89755  0.05036  0.57318  1.0000
  H   H4032     1.0  0.91083  0.03245  0.55858  1.0000
  H   H4033     1.0  0.91297  0.03711  0.53968  1.0000
  H   H4034     1.0  0.90238  0.06024  0.52754  1.0000
  H   H4035     1.0  0.88727  0.07139  0.53670  1.0000
  H   H4036     1.0  0.88825  0.04459  0.53136  1.0000
  H   H4037     1.0  0.89298  0.02799  0.54409  1.0000
  H   H4038     1.0  0.87437  0.03673  0.54442  1.0000
  H   H4039     1.0  0.87349  0.06622  0.57160  1.0000
  H   H4040     1.0  0.88445  0.07568  0.57544  1.0000
  H   H4041     1.0  0.88153  0.07970  0.55773  1.0000
  C   C2365     1.0  0.97660  0.14500  0.50545  1.0000
  H   H4042     1.0  0.92965  0.05243  0.53645  1.0000
  H   H4043     1.0  0.91420  0.24199  0.57367  1.0000
  H   H4044     1.0  0.91342  0.07856  0.52313  1.0000
  H   H4045     1.0  0.91609  0.07340  0.54086  1.0000
  H   H4046     1.0  0.90043  0.08681  0.53649  1.0000
  H   H4047     1.0  0.87753  0.15048  0.59608  1.0000
  C   C2366     1.0  0.87598  0.18837  0.49342  1.0000
  S   S692      1.0  0.65598  0.00837  0.56270  1.0000
  C   C2367     1.0  0.93719  0.05445  0.50548  1.0000
  C   C2368     1.0  0.76830  0.06134  0.52618  1.0000
  C   C2369     1.0  0.89638  0.22904  0.50217  1.0000
  H   H4048     1.0  0.97092  0.13174  0.55861  1.0000
  Fe  Fe343     1.0  0.57077  0.99765  0.64861  1.0000
  H   H4049     1.0  0.76274  0.05236  0.52852  1.0000
  H   H4050     1.0  0.82655  0.17271  0.52278  1.0000
  H   H4051     1.0  0.69672  0.10681  0.62226  1.0000
  H   H4052     1.0  0.72980  0.06951  0.65240  1.0000
  H   H4053     1.0  0.96294  0.12822  0.53737  1.0000
  Fe  Fe344     1.0  0.88350  0.99687  0.50609  1.0000
  H   H4054     1.0  0.73534  0.08604  0.62716  1.0000
  H   H4055     1.0  0.57223  0.99481  0.70286  1.0000
  H   H4056     1.0  0.53724  0.01888  0.60540  1.0000
  S   S693      1.0  0.72837  0.00737  0.60910  1.0000
  H   H4057     1.0  0.74155  0.06122  0.63833  1.0000
  H   H4058     1.0  0.67758  0.08384  0.65421  1.0000
  C   C2370     1.0  0.63340  0.02084  0.65982  1.0000
  H   H4059     1.0  0.96103  0.14998  0.55503  1.0000
  C   C2371     1.0  0.70216  0.99887  0.59296  1.0000
  H   H4060     1.0  0.60619  0.00577  0.56138  1.0000
  H   H4061     1.0  0.78918  0.11611  0.49379  1.0000
  H   H4062     1.0  0.70286  0.07508  0.65267  1.0000
  S   S694      1.0  0.80200  0.06520  0.49164  1.0000
  H   H4063     1.0  0.82681  0.10209  0.51548  1.0000
  H   H4064     1.0  0.90071  0.04964  0.50177  1.0000
  H   H4065     1.0  0.67260  0.01981  0.49994  1.0000
  H   H4066     1.0  0.86479  0.14599  0.61996  1.0000
  N   N169      1.0  0.80490  0.16895  0.51117  1.0000
  H   H4067     1.0  0.77776  0.04827  0.54369  1.0000
  H   H4068     1.0  0.93125  0.16197  0.51555  1.0000
  H   H4069     1.0  0.98129  0.15462  0.50248  1.0000
  C   C2372     1.0  0.71298  0.10116  0.64190  1.0000
  H   H4070     1.0  0.86271  0.11715  0.61563  1.0000
  H   H4071     1.0  0.71341  0.02015  0.48938  1.0000
  H   H4072     1.0  0.80989  0.14816  0.52570  1.0000
  H   H4073     1.0  0.94734  0.05586  0.50660  1.0000
  H   H4074     1.0  0.89127  0.13402  0.61780  1.0000
  Fe  Fe345     1.0  0.62343  0.02560  0.72682  1.0000
  H   H4075     1.0  0.77156  0.08931  0.52139  1.0000
  C   C2373     1.0  0.82893  0.00395  0.49518  1.0000
  C   C2374     1.0  0.83703  0.09687  0.50895  1.0000
  H   H4076     1.0  0.86141  0.14143  0.58941  1.0000
  C   C2375     1.0  0.92055  0.23656  0.59394  1.0000
  C   C2376     1.0  0.68382  0.02159  0.49523  1.0000
  H   H4077     1.0  0.72745  0.09160  0.65700  1.0000
  C   C2377     1.0  0.63795  0.00037  0.50154  1.0000
  C   C2378     1.0  0.70276  0.99803  0.56846  1.0000
  C   C2379     1.0  0.80449  0.19241  0.49175  1.0000
  N   N170      1.0  0.63162  0.99421  0.67187  1.0000
  H   H4078     1.0  0.67154  0.99583  0.68888  1.0000
  H   H4079     1.0  0.98427  0.19116  0.57472  1.0000
  H   H4080     1.0  0.68912  0.99862  0.55412  1.0000
  H   H4081     1.0  0.83797  0.11646  0.49321  1.0000
  H   H4082     1.0  0.79434  0.19277  0.48867  1.0000
  H   H4083     1.0  0.70315  0.99755  0.48985  1.0000
  C   C2380     1.0  0.72060  0.99443  0.62286  1.0000
  C   C2381     1.0  0.68067  0.99524  0.58691  1.0000
  H   H4084     1.0  0.64737  0.06040  0.73410  1.0000
  C   C2382     1.0  0.66646  0.99392  0.70047  1.0000
  C   C2383     1.0  0.58727  0.99277  0.59469  1.0000
  C   C2384     1.0  0.00007  0.11188  0.54293  1.0000
  H   H4085     1.0  0.67628  0.99568  0.50091  1.0000
  H   H4086     1.0  0.58983  0.99446  0.49231  1.0000
  H   H4087     1.0  0.69925  0.99387  0.60457  1.0000
  H   H4088     1.0  0.66089  0.99348  0.60330  1.0000
  C   C2385     1.0  0.59293  0.99451  0.57993  1.0000
  C   C2386     1.0  0.62876  0.99315  0.51302  1.0000
  H   H4089     1.0  0.00010  0.06340  0.54540  1.0000
  H   H4090     1.0  0.61121  0.99264  0.68740  1.0000
  H   H4091     1.0  0.51475  0.99258  0.58875  1.0000
  H   H4092     1.0  0.69767  0.99263  0.68060  1.0000
  C   C2387     1.0  0.68308  0.99243  0.49093  1.0000
  H   H4093     1.0  0.55697  0.99225  0.73010  1.0000
  Fe  Fe346     1.0  0.53879  0.12516  0.80127  1.0000
  S   S695      1.0  0.53959  0.12842  0.82227  1.0000
  S   S696      1.0  0.51728  0.13032  0.79478  1.0000
  Fe  Fe347     1.0  0.57153  0.11484  0.79297  1.0000
  S   S697      1.0  0.57533  0.11734  0.81345  1.0000
  Fe  Fe348     1.0  0.55585  0.10748  0.82392  1.0000
  S   S698      1.0  0.55276  0.09203  0.84533  1.0000
  Fe  Fe349     1.0  0.55876  0.13832  0.81065  1.0000
  S   S699      1.0  0.55692  0.15972  0.81613  1.0000
  S   S700      1.0  0.55334  0.10336  0.80388  1.0000
  S   S701      1.0  0.55666  0.13681  0.78913  1.0000
  Fe  Fe350     1.0  0.56483  0.18662  0.88118  1.0000
  S   S702      1.0  0.55784  0.21074  0.87428  1.0000
  S   S703      1.0  0.57685  0.16984  0.86772  1.0000
  Fe  Fe351     1.0  0.55044  0.18704  0.91254  1.0000
  S   S704      1.0  0.54197  0.21081  0.90812  1.0000
  S   S705      1.0  0.54371  0.17356  0.93443  1.0000
  Fe  Fe352     1.0  0.53632  0.20784  0.88909  1.0000
  H   H4094     1.0  0.57383  0.24194  0.95413  1.0000
  Fe  Fe353     1.0  0.56429  0.21168  0.89411  1.0000
  H   H4095     1.0  0.50519  0.13381  0.74284  1.0000
  S   S706      1.0  0.54287  0.18394  0.89472  1.0000
  S   S707      1.0  0.57317  0.18778  0.89977  1.0000
  H   H4096     1.0  0.55875  0.07681  0.82288  1.0000
  H   H4097     1.0  0.57467  0.22361  0.95541  1.0000
  C   C2388     1.0  0.53297  0.23506  0.95505  1.0000
  S   S708      1.0  0.52754  0.08835  0.94909  1.0000
  Fe  Fe354     1.0  0.52047  0.10819  0.93320  1.0000
  S   S709      1.0  0.53694  0.11982  0.91742  1.0000
  C   C2389     1.0  0.50673  0.03594  0.79353  1.0000
  S   S710      1.0  0.51054  0.01837  0.87048  1.0000
  H   H4098     1.0  0.55871  0.08884  0.98013  1.0000
  C   C2390     1.0  0.55816  0.23897  0.94414  1.0000
  C   C2391     1.0  0.64457  0.02427  0.77036  1.0000
  C   C2392     1.0  0.51284  0.19755  0.80844  1.0000
  H   H4099     1.0  0.52188  0.23004  0.97745  1.0000
  H   H4100     1.0  0.56406  0.21141  0.94160  1.0000
  C   C2393     1.0  0.51963  0.10327  0.79093  1.0000
  C   C2394     1.0  0.54557  0.14061  0.87640  1.0000
  H   H4101     1.0  0.55936  0.11545  0.76568  1.0000
  H   H4102     1.0  0.53240  0.15092  0.89431  1.0000
  C   C2395     1.0  0.53297  0.09583  0.74694  1.0000
  H   H4103     1.0  0.53801  0.17807  0.79772  1.0000
  H   H4104     1.0  0.54380  0.99941  0.74421  1.0000
  H   H4105     1.0  0.52897  0.12128  0.89142  1.0000
  C   C2396     1.0  0.50484  0.19124  0.85848  1.0000
  H   H4106     1.0  0.55970  0.11724  0.84602  1.0000
  C   C2397     1.0  0.61302  0.05680  0.77664  1.0000
  H   H4107     1.0  0.52811  0.18366  0.85349  1.0000
  H   H4108     1.0  0.52728  0.15722  0.98715  1.0000
  C   C2398     1.0  0.53664  0.15520  0.97805  1.0000
  H   H4109     1.0  0.56526  0.12771  0.85427  1.0000
  S   S711      1.0  0.60039  0.02481  0.73801  1.0000
  C   C2399     1.0  0.51650  0.02169  0.82135  1.0000
  H   H4110     1.0  0.52249  0.01227  0.92827  1.0000
  H   H4111     1.0  0.51951  0.07972  0.88854  1.0000
  H   H4112     1.0  0.61964  0.07719  0.77319  1.0000
  H   H4113     1.0  0.54701  0.05609  0.77614  1.0000
  H   H4114     1.0  0.53631  0.15474  0.85391  1.0000
  C   C2400     1.0  0.54623  0.16547  0.97706  1.0000
  H   H4115     1.0  0.55682  0.11578  0.96397  1.0000
  N   N171      1.0  0.51446  0.18537  0.80152  1.0000
  H   H4116     1.0  0.56003  0.23378  0.96683  1.0000
  N   N172      1.0  0.54730  0.23034  0.94512  1.0000
  H   H4117     1.0  0.52252  0.05621  0.77736  1.0000
  C   C2401     1.0  0.58437  0.22839  0.90773  1.0000
  C   C2402     1.0  0.56362  0.12123  0.96694  1.0000
  H   H4118     1.0  0.54877  0.15677  0.88515  1.0000
  H   H4119     1.0  0.53373  0.16320  0.87679  1.0000
  C   C2403     1.0  0.59453  0.21555  0.92863  1.0000
  C   C2404     1.0  0.58706  0.21593  0.91830  1.0000
  H   H4120     1.0  0.57395  0.12083  0.95863  1.0000
  C   C2405     1.0  0.51129  0.11726  0.79052  1.0000
  H   H4121     1.0  0.59648  0.20586  0.93680  1.0000
  H   H4122     1.0  0.58337  0.20656  0.91852  1.0000
  C   C2406     1.0  0.54278  0.15765  0.93084  1.0000
  C   C2407     1.0  0.53196  0.15027  0.93922  1.0000
  C   C2408     1.0  0.53048  0.13826  0.93548  1.0000
  C   C2409     1.0  0.53966  0.13375  0.92325  1.0000
  C   C2410     1.0  0.55075  0.14089  0.91516  1.0000
  C   C2411     1.0  0.55228  0.15285  0.91892  1.0000
  H   H4123     1.0  0.52444  0.15411  0.94829  1.0000
  H   H4124     1.0  0.52206  0.13273  0.94190  1.0000
  H   H4125     1.0  0.55804  0.13735  0.90582  1.0000
  H   H4126     1.0  0.56076  0.15845  0.91244  1.0000
  H   H4127     1.0  0.60402  0.06304  0.77123  1.0000
  H   H4128     1.0  0.54153  0.12593  0.76475  1.0000
  C   C2412     1.0  0.51194  0.04291  0.97749  1.0000
  H   H4129     1.0  0.51680  0.05639  0.81056  1.0000
  H   H4130     1.0  0.53657  0.11790  0.86181  1.0000
  H   H4131     1.0  0.54880  0.04155  0.79122  1.0000
  C   C2413     1.0  0.52793  0.04667  0.78453  1.0000
  H   H4132     1.0  0.52417  0.23068  0.95392  1.0000
  C   C2414     1.0  0.53943  0.15361  0.88355  1.0000
  C   C2415     1.0  0.51014  0.20745  0.87469  1.0000
  H   H4133     1.0  0.55594  0.12569  0.74861  1.0000
  C   C2416     1.0  0.57661  0.08483  0.77500  1.0000
  C   C2417     1.0  0.57475  0.07444  0.76903  1.0000
  C   C2418     1.0  0.58287  0.07251  0.75542  1.0000
  H   H4134     1.0  0.57053  0.08590  0.78560  1.0000
  H   H4135     1.0  0.56703  0.06780  0.77507  1.0000
  C   C2419     1.0  0.56279  0.16231  0.83042  1.0000
  C   C2420     1.0  0.57392  0.15236  0.83645  1.0000
  C   C2421     1.0  0.57815  0.15484  0.84780  1.0000
  C   C2422     1.0  0.57124  0.16722  0.85335  1.0000
  C   C2423     1.0  0.56023  0.17721  0.84723  1.0000
  C   C2424     1.0  0.55621  0.17486  0.83572  1.0000
  H   H4136     1.0  0.57941  0.14285  0.83225  1.0000
  H   H4137     1.0  0.58685  0.14713  0.85231  1.0000
  H   H4138     1.0  0.55503  0.18692  0.85116  1.0000
  H   H4139     1.0  0.54797  0.18288  0.83091  1.0000
  H   H4140     1.0  0.51968  0.11810  0.76079  1.0000
  C   C2425     1.0  0.63179  0.05830  0.75452  1.0000
  H   H4141     1.0  0.52416  0.01325  0.82729  1.0000
  H   H4142     1.0  0.55182  0.13600  0.84332  1.0000
  H   H4143     1.0  0.64344  0.04405  0.77616  1.0000
  N   N173      1.0  0.53495  0.13587  0.87123  1.0000
  C   C2426     1.0  0.51070  0.15939  0.80850  1.0000
  C   C2427     1.0  0.54562  0.07838  0.84391  1.0000
  C   C2428     1.0  0.53478  0.07323  0.85508  1.0000
  C   C2429     1.0  0.52806  0.06321  0.85360  1.0000
  C   C2430     1.0  0.53190  0.05868  0.84073  1.0000
  C   C2431     1.0  0.54298  0.06357  0.82965  1.0000
  C   C2432     1.0  0.54998  0.07328  0.83132  1.0000
  H   H4144     1.0  0.53112  0.07746  0.86459  1.0000
  H   H4145     1.0  0.51963  0.05934  0.86223  1.0000
  H   H4146     1.0  0.54607  0.05996  0.81973  1.0000
  S   S712      1.0  0.58899  0.10675  0.77468  1.0000
  H   H4147     1.0  0.51865  0.13910  0.89052  1.0000
  C   C2433     1.0  0.52511  0.19614  0.81593  1.0000
  H   H4148     1.0  0.64668  0.02504  0.75874  1.0000
  H   H4149     1.0  0.50379  0.17428  0.82225  1.0000
  H   H4150     1.0  0.53279  0.19780  0.86780  1.0000
  H   H4151     1.0  0.53259  0.03818  0.77818  1.0000
  C   C2434     1.0  0.52808  0.14846  0.86087  1.0000
  C   C2435     1.0  0.51663  0.04651  0.93206  1.0000
  H   H4152     1.0  0.52279  0.16779  0.81777  1.0000
  H   H4153     1.0  0.53866  0.07288  0.74832  1.0000
  H   H4154     1.0  0.59923  0.07967  0.73725  1.0000
  C   C2436     1.0  0.61713  0.04004  0.76154  1.0000
  H   H4155     1.0  0.54980  0.19308  0.95377  1.0000
  H   H4156     1.0  0.50409  0.18293  0.89704  1.0000
  C   C2437     1.0  0.64468  0.99374  0.74020  1.0000
  S   S713      1.0  0.57418  0.22964  0.89506  1.0000
  C   C2438     1.0  0.52370  0.13081  0.88413  1.0000
  H   H4157     1.0  0.51019  0.02879  0.82877  1.0000
  H   H4158     1.0  0.54135  0.10077  0.76755  1.0000
  H   H4159     1.0  0.50647  0.05262  0.97057  1.0000
  C   C2439     1.0  0.59478  0.09150  0.75379  1.0000
  C   C2440     1.0  0.50839  0.03044  0.91771  1.0000
  H   H4160     1.0  0.50940  0.01605  0.81911  1.0000
  H   H4161     1.0  0.62487  0.03316  0.75445  1.0000
  H   H4162     1.0  0.52656  0.18594  0.82403  1.0000
  H   H4163     1.0  0.54885  0.11458  0.87263  1.0000
  H   H4164     1.0  0.51284  0.02670  0.78844  1.0000
  C   C2441     1.0  0.54354  0.12321  0.86466  1.0000
  C   C2442     1.0  0.53279  0.23185  0.97114  1.0000
  C   C2443     1.0  0.60769  0.03042  0.77314  1.0000
  C   C2444     1.0  0.55518  0.99329  0.74124  1.0000
  C   C2445     1.0  0.50324  0.03117  0.98091  1.0000
  H   H4165     1.0  0.52261  0.03914  0.97044  1.0000
  C   C2446     1.0  0.50956  0.05434  0.80491  1.0000
  H   H4166     1.0  0.60789  0.04975  0.78648  1.0000
  C   C2447     1.0  0.55371  0.21448  0.94939  1.0000
  H   H4167     1.0  0.53746  0.05897  0.79359  1.0000
  C   C2448     1.0  0.58651  0.09354  0.76738  1.0000
  H   H4168     1.0  0.53009  0.02640  0.94046  1.0000
  S   S714      1.0  0.52228  0.04776  0.83797  1.0000
  H   H4169     1.0  0.52986  0.10014  0.79424  1.0000
  C   C2449     1.0  0.52052  0.14525  0.85079  1.0000
  C   C2450     1.0  0.51907  0.19046  0.85925  1.0000
  C   C2451     1.0  0.64417  0.05164  0.74326  1.0000
  C   C2452     1.0  0.59296  0.08103  0.74779  1.0000
  H   H4170     1.0  0.50395  0.19951  0.78474  1.0000
  C   C2453     1.0  0.58944  0.24040  0.90749  1.0000
  C   C2454     1.0  0.55599  0.13705  0.96713  1.0000
  C   C2455     1.0  0.53253  0.13158  0.98024  1.0000
  H   H4171     1.0  0.63944  0.01502  0.77625  1.0000
  H   H4172     1.0  0.56237  0.00007  0.74138  1.0000
  H   H4173     1.0  0.62343  0.06599  0.74882  1.0000
  H   H4174     1.0  0.53616  0.09105  0.97239  1.0000
  H   H4175     1.0  0.51528  0.06821  0.97842  1.0000
  H   H4176     1.0  0.51973  0.15609  0.79969  1.0000
  H   H4177     1.0  0.55694  0.21151  0.95978  1.0000
  H   H4178     1.0  0.61336  0.02368  0.78172  1.0000
  C   C2456     1.0  0.52172  0.19844  0.86740  1.0000
  H   H4179     1.0  0.52171  0.08277  0.78638  1.0000
  H   H4180     1.0  0.62990  0.03435  0.78681  1.0000
  H   H4181     1.0  0.55577  0.16509  0.96789  1.0000
  H   H4182     1.0  0.55094  0.13159  0.88409  1.0000
  C   C2457     1.0  0.54721  0.10596  0.75694  1.0000
  H   H4183     1.0  0.62771  0.06263  0.78635  1.0000
  H   H4184     1.0  0.55405  0.22766  0.92318  1.0000
  H   H4185     1.0  0.55092  0.07869  0.75438  1.0000
  C   C2458     1.0  0.59955  0.22755  0.92846  1.0000
  H   H4186     1.0  0.56641  0.11509  0.97732  1.0000
  C   C2459     1.0  0.63560  0.03812  0.77555  1.0000
  H   H4187     1.0  0.51734  0.17161  0.91590  1.0000
  H   H4188     1.0  0.56462  0.14280  0.96572  1.0000
  C   C2460     1.0  0.51494  0.09339  0.78656  1.0000
  Fe  Fe355     1.0  0.51325  0.07874  0.94218  1.0000
  H   H4189     1.0  0.52486  0.09367  0.75721  1.0000
  N   N174      1.0  0.54761  0.06571  0.89707  1.0000
  C   C2461     1.0  0.54118  0.05488  0.89427  1.0000
  C   C2462     1.0  0.53506  0.07755  0.90167  1.0000
  C   C2463     1.0  0.55553  0.05816  0.90906  1.0000
  C   C2464     1.0  0.55800  0.07102  0.88348  1.0000
  C   C2465     1.0  0.55196  0.04101  0.89077  1.0000
  C   C2466     1.0  0.52596  0.08625  0.89048  1.0000
  C   C2467     1.0  0.55790  0.06760  0.91776  1.0000
  C   C2468     1.0  0.56449  0.08360  0.88313  1.0000
  H   H4190     1.0  0.53261  0.05147  0.90365  1.0000
  H   H4191     1.0  0.53566  0.05961  0.88518  1.0000
  H   H4192     1.0  0.53863  0.08551  0.90498  1.0000
  H   H4193     1.0  0.52745  0.07301  0.91142  1.0000
  H   H4194     1.0  0.54952  0.05029  0.91714  1.0000
  H   H4195     1.0  0.56646  0.05172  0.90492  1.0000
  H   H4196     1.0  0.56756  0.06221  0.88097  1.0000
  H   H4197     1.0  0.55307  0.07392  0.87401  1.0000
  H   H4198     1.0  0.55759  0.03484  0.89955  1.0000
  H   H4199     1.0  0.54570  0.03390  0.88942  1.0000
  H   H4200     1.0  0.56001  0.04320  0.88053  1.0000
  C   C2469     1.0  0.50775  0.18050  0.91793  1.0000
  C   C2470     1.0  0.50629  0.09722  0.83229  1.0000
  H   H4201     1.0  0.53276  0.09110  0.88031  1.0000
  H   H4202     1.0  0.54747  0.07203  0.92467  1.0000
  H   H4203     1.0  0.56317  0.07645  0.91102  1.0000
  H   H4204     1.0  0.56510  0.06081  0.92510  1.0000
  H   H4205     1.0  0.57482  0.07957  0.88694  1.0000
  H   H4206     1.0  0.55702  0.09149  0.88924  1.0000
  H   H4207     1.0  0.56691  0.08982  0.87189  1.0000
  C   C2471     1.0  0.53344  0.19527  0.77970  1.0000
  Fe  Fe356     1.0  0.50554  0.04056  0.85726  1.0000
  H   H4208     1.0  0.55190  0.14171  0.95710  1.0000
  H   H4209     1.0  0.52933  0.13476  0.96973  1.0000
  H   H4210     1.0  0.59715  0.03699  0.77786  1.0000
  C   C2472     1.0  0.55568  0.12645  0.85132  1.0000
  S   S715      1.0  0.57972  0.05952  0.74841  1.0000
  C   C2473     1.0  0.53546  0.09170  0.98315  1.0000
  H   H4211     1.0  0.54485  0.19185  0.77384  1.0000
  H   H4212     1.0  0.51189  0.20804  0.80057  1.0000
  H   H4213     1.0  0.55450  0.14385  0.86734  1.0000
  H   H4214     1.0  0.50331  0.13656  0.87656  1.0000
  H   H4215     1.0  0.50762  0.06429  0.79660  1.0000
  C   C2474     1.0  0.51812  0.02374  0.92673  1.0000
  H   H4216     1.0  0.65543  0.02138  0.77307  1.0000
  C   C2475     1.0  0.54387  0.20435  0.95051  1.0000
  H   H4217     1.0  0.52507  0.15024  0.83955  1.0000
  H   H4218     1.0  0.53004  0.17383  0.78609  1.0000
  C   C2476     1.0  0.50666  0.05336  0.92321  1.0000
  Fe  Fe357     1.0  0.50722  0.09655  0.96428  1.0000
  N   N175      1.0  0.62470  0.04800  0.76702  1.0000
  C   C2477     1.0  0.54095  0.05104  0.78672  1.0000
  H   H4219     1.0  0.53316  0.20451  0.78397  1.0000
  H   H4220     1.0  0.64095  0.04431  0.73878  1.0000
  C   C2478     1.0  0.55115  0.11914  0.75894  1.0000
  H   H4221     1.0  0.51789  0.09525  0.89471  1.0000
  H   H4222     1.0  0.53274  0.02156  0.80172  1.0000
  C   C2479     1.0  0.54444  0.23309  0.93036  1.0000
  C   C2480     1.0  0.52545  0.02979  0.80772  1.0000
  H   H4223     1.0  0.51977  0.15622  0.86680  1.0000
  C   C2481     1.0  0.53716  0.05608  0.97504  1.0000
  C   C2482     1.0  0.52179  0.05895  0.98486  1.0000
  H   H4224     1.0  0.53269  0.03399  0.81160  1.0000
  H   H4225     1.0  0.53520  0.22846  0.93076  1.0000
  H   H4226     1.0  0.51424  0.11885  0.87454  1.0000
  S   S716      1.0  0.63204  0.23726  0.96184  1.0000
  H   H4227     1.0  0.50506  0.15427  0.91993  1.0000
  C   C2483     1.0  0.52236  0.03174  0.93370  1.0000
  H   H4228     1.0  0.52654  0.19874  0.77172  1.0000
  H   H4229     1.0  0.65403  0.04606  0.74762  1.0000
  C   C2484     1.0  0.61786  0.06758  0.78186  1.0000
  S   S717      1.0  0.52321  0.05580  0.94063  1.0000
  H   H4230     1.0  0.51206  0.19035  0.91546  1.0000
  H   H4231     1.0  0.60893  0.07164  0.79045  1.0000
  S   S718      1.0  0.51361  0.21706  0.88523  1.0000
  H   H4232     1.0  0.56823  0.14402  0.98537  1.0000
  H   H4233     1.0  0.53960  0.17663  0.97526  1.0000
  C   C2485     1.0  0.51564  0.10564  0.83533  1.0000
  H   H4234     1.0  0.52671  0.10340  0.82841  1.0000
  H   H4235     1.0  0.53712  0.11985  0.98191  1.0000
  N   N176      1.0  0.51706  0.04172  0.79798  1.0000
  H   H4236     1.0  0.56656  0.23880  0.93395  1.0000
  H   H4237     1.0  0.52141  0.13383  0.85133  1.0000
  H   H4238     1.0  0.52215  0.20497  0.82170  1.0000
  H   H4239     1.0  0.53472  0.24111  0.97394  1.0000
  H   H4240     1.0  0.55759  0.09810  0.75470  1.0000
  H   H4241     1.0  0.63679  0.06497  0.75820  1.0000
  H   H4242     1.0  0.50424  0.18143  0.78660  1.0000
  H   H4243     1.0  0.54146  0.20513  0.94008  1.0000
  H   H4244     1.0  0.52711  0.09755  0.73833  1.0000
  H   H4245     1.0  0.60987  0.04777  0.75463  1.0000
  H   H4246     1.0  0.51055  0.14999  0.81770  1.0000
  H   H4247     1.0  0.51206  0.08570  0.83385  1.0000
  S   S719      1.0  0.50806  0.09793  0.92476  1.0000
  H   H4248     1.0  0.60503  0.02310  0.76812  1.0000
  H   H4249     1.0  0.54370  0.04514  0.97814  1.0000
  H   H4250     1.0  0.51126  0.11741  0.83254  1.0000
  N   N177      1.0  0.54378  0.13943  0.98000  1.0000
  H   H4251     1.0  0.53360  0.20613  0.95870  1.0000
  C   C2486     1.0  0.52922  0.18240  0.79160  1.0000
  C   C2487     1.0  0.59708  0.23996  0.91774  1.0000
  C   C2488     1.0  0.51081  0.12687  0.88128  1.0000
  S   S720      1.0  0.60816  0.22667  0.94226  1.0000
  C   C2489     1.0  0.54440  0.08170  0.74615  1.0000
  S   S721      1.0  0.64187  0.01251  0.73732  1.0000
  H   H4252     1.0  0.50465  0.05012  0.77233  1.0000
  H   H4253     1.0  0.50892  0.02069  0.98651  1.0000
  H   H4254     1.0  0.53647  0.05787  0.96373  1.0000
  N   N178      1.0  0.53839  0.10899  0.74581  1.0000
  H   H4255     1.0  0.50871  0.15027  0.85304  1.0000
  C   C2490     1.0  0.51295  0.17199  0.81311  1.0000
  C   C2491     1.0  0.51331  0.12388  0.74067  1.0000
  H   H4256     1.0  0.53213  0.15897  0.96821  1.0000
  H   H4257     1.0  0.51614  0.23901  0.89991  1.0000
  H   H4258     1.0  0.50718  0.11518  0.74416  1.0000
  H   H4259     1.0  0.54053  0.22197  0.97492  1.0000
  C   C2492     1.0  0.52513  0.12071  0.74928  1.0000
  H   H4260     1.0  0.50641  0.15791  0.90118  1.0000
  H   H4261     1.0  0.50676  0.10073  0.82066  1.0000
  H   H4262     1.0  0.54351  0.06340  0.97577  1.0000
  H   H4263     1.0  0.60253  0.09815  0.74783  1.0000
  H   H4264     1.0  0.53567  0.19693  0.80825  1.0000
  H   H4265     1.0  0.52824  0.13110  0.74759  1.0000
  H   H4266     1.0  0.51700  0.10230  0.84652  1.0000
  C   C2493     1.0  0.56695  0.23413  0.95595  1.0000
  S   S722      1.0  0.50344  0.01945  0.90961  1.0000
  H   H4267     1.0  0.50425  0.12205  0.89168  1.0000
  H   H4268     1.0  0.70211  0.24196  0.93386  1.0000
  Fe  Fe358     1.0  0.73540  0.34253  0.07305  1.0000
  S   S723      1.0  0.71191  0.35270  0.07233  1.0000
  S   S724      1.0  0.74860  0.34344  0.08833  1.0000
  Fe  Fe359     1.0  0.74018  0.32910  0.04731  1.0000
  S   S725      1.0  0.71741  0.33840  0.04425  1.0000
  S   S726      1.0  0.75749  0.31516  0.03357  1.0000
  Fe  Fe360     1.0  0.72023  0.35824  0.04857  1.0000
  S   S727      1.0  0.71165  0.37974  0.03556  1.0000
  Fe  Fe361     1.0  0.71075  0.33192  0.06816  1.0000
  S   S728      1.0  0.68979  0.32393  0.07667  1.0000
  S   S729      1.0  0.74380  0.34974  0.04935  1.0000
  S   S730      1.0  0.73349  0.32099  0.07111  1.0000
  C   C2494     1.0  0.88388  0.42287  0.12331  1.0000
  H   H4269     1.0  0.84185  0.44721  0.19492  1.0000
  C   C2495     1.0  0.58343  0.26721  0.05584  1.0000
  C   C2496     1.0  0.85914  0.43425  0.13387  1.0000
  S   S731      1.0  0.55204  0.31838  0.00581  1.0000
  S   S732      1.0  0.96308  0.47306  0.14768  1.0000
  H   H4270     1.0  0.87633  0.41632  0.15202  1.0000
  C   C2497     1.0  0.68943  0.28094  0.06842  1.0000
  H   H4271     1.0  0.97677  0.47354  0.16913  1.0000
  H   H4272     1.0  0.96329  0.36852  0.19687  1.0000
  S   S733      1.0  0.66794  0.45072  0.05284  1.0000
  Fe  Fe362     1.0  0.61764  0.41962  0.99992  1.0000
  H   H4273     1.0  0.95804  0.45048  0.18821  1.0000
  S   S734      1.0  0.59390  0.42762  0.99937  1.0000
  Fe  Fe363     1.0  0.64088  0.40089  0.01590  1.0000
  S   S735      1.0  0.65908  0.40777  0.99807  1.0000
  S   S736      1.0  0.64615  0.38453  0.03558  1.0000
  Fe  Fe364     1.0  0.64491  0.42981  0.99740  1.0000
  S   S737      1.0  0.65573  0.44781  0.99504  1.0000
  C   C2498     1.0  0.70075  0.29075  0.02662  1.0000
  S   S738      1.0  0.62732  0.42316  0.01620  1.0000
  S   S739      1.0  0.62942  0.39664  0.00146  1.0000
  S   S740      1.0  0.82396  0.46068  0.14342  1.0000
  Fe  Fe365     1.0  0.79941  0.40477  0.10060  1.0000
  S   S741      1.0  0.77650  0.41736  0.10383  1.0000
  S   S742      1.0  0.81260  0.40746  0.07810  1.0000
  Fe  Fe366     1.0  0.79766  0.39292  0.13248  1.0000
  S   S743      1.0  0.77396  0.40411  0.13818  1.0000
  S   S744      1.0  0.81266  0.38045  0.14783  1.0000
  Fe  Fe367     1.0  0.77129  0.39725  0.11935  1.0000
  S   S745      1.0  0.75065  0.39338  0.11608  1.0000
  Fe  Fe368     1.0  0.78116  0.42304  0.12198  1.0000
  S   S746      1.0  0.77442  0.44605  0.12452  1.0000
  S   S747      1.0  0.79435  0.38425  0.11512  1.0000
  S   S748      1.0  0.80475  0.41226  0.11723  1.0000
  S   S749      1.0  0.90266  0.40880  0.16530  1.0000
  Fe  Fe369     1.0  0.95728  0.45316  0.14709  1.0000
  H   H4274     1.0  0.72113  0.28812  0.01095  1.0000
  S   S750      1.0  0.94958  0.43948  0.16853  1.0000
  C   C2499     1.0  0.58107  0.39125  0.00173  1.0000
  C   C2500     1.0  0.72334  0.26435  0.03465  1.0000
  H   H4275     1.0  0.65819  0.34968  0.99944  1.0000
  H   H4276     1.0  0.90486  0.45086  0.98823  1.0000
  H   H4277     1.0  0.71366  0.26390  0.99675  1.0000
  S   S751      1.0  0.63908  0.24924  0.05227  1.0000
  S   S752      1.0  0.96367  0.45410  0.09465  1.0000
  Fe  Fe370     1.0  0.66950  0.25930  0.06317  1.0000
  S   S753      1.0  0.97720  0.44659  0.13066  1.0000
  Fe  Fe371     1.0  0.89880  0.44659  0.04949  1.0000
  S   S754      1.0  0.90275  0.43095  0.06994  1.0000
  S   S755      1.0  0.91557  0.44577  0.02884  1.0000
  Fe  Fe372     1.0  0.86952  0.46200  0.06354  1.0000
  S   S756      1.0  0.87041  0.44760  0.08508  1.0000
  C   C2501     1.0  0.57198  0.28173  0.01185  1.0000
  Fe  Fe373     1.0  0.89341  0.44990  0.08010  1.0000
  S   S757      1.0  0.89922  0.45182  0.09949  1.0000
  Fe  Fe374     1.0  0.87956  0.42978  0.07343  1.0000
  S   S758      1.0  0.87410  0.40848  0.08469  1.0000
  S   S759      1.0  0.89193  0.46586  0.05934  1.0000
  S   S760      1.0  0.87617  0.44388  0.05212  1.0000
  H   H4278     1.0  0.58164  0.25848  0.05213  1.0000
  C   C2502     1.0  0.91377  0.43528  0.01820  1.0000
  C   C2503     1.0  0.90021  0.43577  0.01579  1.0000
  C   C2504     1.0  0.89928  0.42748  0.00684  1.0000
  H   H4279     1.0  0.53046  0.35315  0.00552  1.0000
  N   N179      1.0  0.63631  0.49175  0.02577  1.0000
  C   C2505     1.0  0.92635  0.42668  0.01155  1.0000
  H   H4280     1.0  0.89048  0.44259  0.02071  1.0000
  C   C2506     1.0  0.80537  0.35897  0.23603  1.0000
  H   H4281     1.0  0.93751  0.48670  0.08900  1.0000
  H   H4282     1.0  0.93685  0.42635  0.01333  1.0000
  C   C2507     1.0  0.94662  0.45105  0.09571  1.0000
  C   C2508     1.0  0.93770  0.44680  0.10907  1.0000
  C   C2509     1.0  0.92324  0.44655  0.11012  1.0000
  C   C2510     1.0  0.91783  0.45008  0.09774  1.0000
  C   C2511     1.0  0.92699  0.45332  0.08426  1.0000
  C   C2512     1.0  0.94141  0.45391  0.08326  1.0000
  H   H4283     1.0  0.94196  0.44376  0.11861  1.0000
  H   H4284     1.0  0.91624  0.44377  0.12054  1.0000
  H   H4285     1.0  0.92281  0.45600  0.07467  1.0000
  H   H4286     1.0  0.94836  0.45705  0.07289  1.0000
  C   C2513     1.0  0.67632  0.29041  0.07275  1.0000
  H   H4287     1.0  0.64483  0.30453  0.05501  1.0000
  C   C2514     1.0  0.91564  0.41752  0.16611  1.0000
  C   C2515     1.0  0.91556  0.42064  0.17894  1.0000
  C   C2516     1.0  0.92611  0.42724  0.17965  1.0000
  C   C2517     1.0  0.93666  0.43103  0.16742  1.0000
  C   C2518     1.0  0.93658  0.42834  0.15442  1.0000
  C   C2519     1.0  0.92613  0.42146  0.15380  1.0000
  H   H4288     1.0  0.90745  0.41797  0.18836  1.0000
  H   H4289     1.0  0.92594  0.42967  0.18961  1.0000
  H   H4290     1.0  0.94473  0.43128  0.14492  1.0000
  H   H4291     1.0  0.92622  0.41919  0.14378  1.0000
  C   C2520     1.0  0.81841  0.38959  0.15745  1.0000
  C   C2521     1.0  0.81008  0.40272  0.16057  1.0000
  C   C2522     1.0  0.81442  0.40941  0.16889  1.0000
  H   H4292     1.0  0.80002  0.40749  0.15695  1.0000
  H   H4293     1.0  0.80766  0.41941  0.17148  1.0000
  C   C2523     1.0  0.83029  0.40657  0.07922  1.0000
  C   C2524     1.0  0.83922  0.41440  0.06809  1.0000
  C   C2525     1.0  0.85272  0.41507  0.06975  1.0000
  C   C2526     1.0  0.85748  0.40748  0.08231  1.0000
  C   C2527     1.0  0.84881  0.39916  0.09317  1.0000
  C   C2528     1.0  0.83510  0.39888  0.09171  1.0000
  H   H4294     1.0  0.83548  0.42032  0.05842  1.0000
  H   H4295     1.0  0.85933  0.42158  0.06137  1.0000
  H   H4296     1.0  0.85250  0.39321  0.10286  1.0000
  H   H4297     1.0  0.82828  0.39267  0.10028  1.0000
  C   C2529     1.0  0.80902  0.45709  0.13968  1.0000
  C   C2530     1.0  0.79792  0.46809  0.13465  1.0000
  C   C2531     1.0  0.78686  0.46468  0.13057  1.0000
  C   C2532     1.0  0.78701  0.45031  0.13140  1.0000
  C   C2533     1.0  0.79776  0.43940  0.13701  1.0000
  C   C2534     1.0  0.80871  0.44276  0.14113  1.0000
  H   H4298     1.0  0.80777  0.45422  0.22141  1.0000
  H   H4299     1.0  0.77847  0.47320  0.12639  1.0000
  H   H4300     1.0  0.79768  0.42832  0.13816  1.0000
  H   H4301     1.0  0.81713  0.43422  0.14522  1.0000
  H   H4302     1.0  0.88919  0.44474  0.17235  1.0000
  H   H4303     1.0  0.72992  0.25054  0.99336  1.0000
  H   H4304     1.0  0.95817  0.48851  0.18327  1.0000
  H   H4305     1.0  0.84764  0.47441  0.09140  1.0000
  C   C2535     1.0  0.79866  0.47651  0.09396  1.0000
  C   C2536     1.0  0.66604  0.44888  0.03651  1.0000
  C   C2537     1.0  0.65731  0.43983  0.03669  1.0000
  C   C2538     1.0  0.65471  0.43895  0.02389  1.0000
  C   C2539     1.0  0.66054  0.44736  0.01086  1.0000
  C   C2540     1.0  0.66962  0.45614  0.01061  1.0000
  C   C2541     1.0  0.67250  0.45677  0.02341  1.0000
  H   H4306     1.0  0.65220  0.43375  0.04674  1.0000
  H   H4307     1.0  0.64785  0.43205  0.02421  1.0000
  H   H4308     1.0  0.67430  0.46254  0.00053  1.0000
  H   H4309     1.0  0.67955  0.46350  0.02312  1.0000
  C   C2542     1.0  0.89442  0.41115  0.11570  1.0000
  H   H4310     1.0  0.83981  0.41717  0.13677  1.0000
  C   C2543     1.0  0.58909  0.40051  0.00279  1.0000
  C   C2544     1.0  0.58385  0.41545  0.99943  1.0000
  H   H4311     1.0  0.84442  0.40403  0.12629  1.0000
  C   C2545     1.0  0.86485  0.44441  0.13913  1.0000
  C   C2546     1.0  0.91193  0.41877  0.00034  1.0000
  H   H4312     1.0  0.59929  0.39611  0.00613  1.0000
  Fe  Fe375     1.0  0.66005  0.25471  0.03844  1.0000
  S   S761      1.0  0.64913  0.25432  0.07917  1.0000
  H   H4313     1.0  0.71289  0.27749  0.06335  1.0000
  S   S762      1.0  0.68972  0.26401  0.06581  1.0000
  H   H4314     1.0  0.73145  0.28432  0.02983  1.0000
  H   H4315     1.0  0.56014  0.28605  0.01538  1.0000
  H   H4316     1.0  0.80455  0.36632  0.19972  1.0000
  H   H4317     1.0  0.91722  0.41260  0.21571  1.0000
  Fe  Fe376     1.0  0.67931  0.46786  0.05166  1.0000
  C   C2547     1.0  0.61554  0.29708  0.04785  1.0000
  C   C2548     1.0  0.60453  0.30965  0.04752  1.0000
  C   C2549     1.0  0.60440  0.32036  0.03484  1.0000
  C   C2550     1.0  0.61550  0.31859  0.02265  1.0000
  C   C2551     1.0  0.62637  0.30601  0.02300  1.0000
  C   C2552     1.0  0.62612  0.29512  0.03542  1.0000
  H   H4318     1.0  0.59623  0.31118  0.05710  1.0000
  H   H4319     1.0  0.59599  0.33014  0.03461  1.0000
  H   H4320     1.0  0.63490  0.30455  0.01360  1.0000
  C   C2553     1.0  0.74884  0.35753  0.09595  1.0000
  C   C2554     1.0  0.73874  0.37069  0.09454  1.0000
  C   C2555     1.0  0.73939  0.38155  0.10079  1.0000
  C   C2556     1.0  0.75039  0.37953  0.10814  1.0000
  C   C2557     1.0  0.76064  0.36646  0.10933  1.0000
  C   C2558     1.0  0.75974  0.35548  0.10343  1.0000
  H   H4321     1.0  0.73037  0.37238  0.08880  1.0000
  H   H4322     1.0  0.73135  0.39157  0.09987  1.0000
  H   H4323     1.0  0.76907  0.36466  0.11508  1.0000
  H   H4324     1.0  0.76755  0.34531  0.10467  1.0000
  C   C2559     1.0  0.69303  0.38156  0.03672  1.0000
  C   C2560     1.0  0.68529  0.39400  0.02910  1.0000
  C   C2561     1.0  0.67053  0.39539  0.02965  1.0000
  C   C2562     1.0  0.66358  0.38413  0.03735  1.0000
  C   C2563     1.0  0.67111  0.37196  0.04555  1.0000
  C   C2564     1.0  0.68584  0.37067  0.04523  1.0000
  H   H4325     1.0  0.69068  0.40260  0.02273  1.0000
  H   H4326     1.0  0.66452  0.40522  0.02411  1.0000
  H   H4327     1.0  0.66571  0.36336  0.05183  1.0000
  H   H4328     1.0  0.69161  0.36114  0.05144  1.0000
  C   C2565     1.0  0.68983  0.30745  0.07324  1.0000
  C   C2566     1.0  0.67656  0.30350  0.07544  1.0000
  C   C2567     1.0  0.70937  0.24264  0.02822  1.0000
  H   H4329     1.0  0.66644  0.31056  0.07931  1.0000
  H   H4330     1.0  0.66605  0.28742  0.07452  1.0000
  C   C2568     1.0  0.74953  0.29743  0.99941  1.0000
  C   C2569     1.0  0.76155  0.29098  0.00569  1.0000
  C   C2570     1.0  0.76370  0.29648  0.01622  1.0000
  C   C2571     1.0  0.75364  0.30823  0.02093  1.0000
  C   C2572     1.0  0.74133  0.31446  0.01501  1.0000
  H   H4331     1.0  0.97748  0.44866  0.16944  1.0000
  H   H4332     1.0  0.76939  0.28182  0.00225  1.0000
  H   H4333     1.0  0.77321  0.29159  0.02077  1.0000
  H   H4334     1.0  0.80483  0.47103  0.18505  1.0000
  H   H4335     1.0  0.81387  0.42796  0.22767  1.0000
  N   N180      1.0  0.68354  0.40607  0.07430  1.0000
  C   C2573     1.0  0.68721  0.41762  0.07888  1.0000
  C   C2574     1.0  0.69436  0.40347  0.06064  1.0000
  C   C2575     1.0  0.68452  0.39221  0.08546  1.0000
  C   C2576     1.0  0.66814  0.41104  0.07217  1.0000
  C   C2577     1.0  0.67866  0.42059  0.09368  1.0000
  C   C2578     1.0  0.69250  0.41538  0.04711  1.0000
  C   C2579     1.0  0.69935  0.38595  0.08975  1.0000
  C   C2580     1.0  0.66267  0.40080  0.06676  1.0000
  H   H4336     1.0  0.69903  0.41522  0.07881  1.0000
  H   H4337     1.0  0.68528  0.42805  0.07106  1.0000
  H   H4338     1.0  0.69431  0.39318  0.05839  1.0000
  H   H4339     1.0  0.70572  0.40204  0.06169  1.0000
  H   H4340     1.0  0.67589  0.39335  0.09535  1.0000
  H   H4341     1.0  0.68232  0.38368  0.08163  1.0000
  H   H4342     1.0  0.66030  0.41265  0.08238  1.0000
  H   H4343     1.0  0.66638  0.42186  0.06499  1.0000
  H   H4344     1.0  0.68250  0.42920  0.09569  1.0000
  H   H4345     1.0  0.66682  0.42464  0.09413  1.0000
  H   H4346     1.0  0.68055  0.41107  0.10250  1.0000
  H   H4347     1.0  0.70145  0.41251  0.03798  1.0000
  H   H4348     1.0  0.68214  0.41644  0.04407  1.0000
  H   H4349     1.0  0.69318  0.42591  0.04828  1.0000
  H   H4350     1.0  0.69875  0.37582  0.09802  1.0000
  H   H4351     1.0  0.70235  0.39327  0.09445  1.0000
  H   H4352     1.0  0.70814  0.38310  0.08053  1.0000
  H   H4353     1.0  0.65654  0.39385  0.07585  1.0000
  H   H4354     1.0  0.67148  0.39376  0.06061  1.0000
  H   H4355     1.0  0.65540  0.40716  0.05935  1.0000
  N   N181      1.0  0.57994  0.28627  0.03256  1.0000
  C   C2581     1.0  0.58629  0.29855  0.02250  1.0000
  C   C2582     1.0  0.56456  0.29223  0.03984  1.0000
  C   C2583     1.0  0.57956  0.27558  0.02460  1.0000
  C   C2584     1.0  0.58936  0.27877  0.04330  1.0000
  H   H4356     1.0  0.60972  0.28827  0.01912  1.0000
  C   C2585     1.0  0.56292  0.30265  0.04940  1.0000
  C   C2586     1.0  0.72822  0.35930  0.00553  1.0000
  C   C2587     1.0  0.96206  0.48175  0.19300  1.0000
  C   C2588     1.0  0.70270  0.33994  0.00836  1.0000
  H   H4357     1.0  0.81143  0.38756  0.23296  1.0000
  H   H4358     1.0  0.55897  0.28343  0.04640  1.0000
  H   H4359     1.0  0.55791  0.29831  0.03179  1.0000
  H   H4360     1.0  0.84812  0.48809  0.10838  1.0000
  H   H4361     1.0  0.57382  0.26718  0.03191  1.0000
  S   S763      1.0  0.55763  0.38589  0.99543  1.0000
  H   H4362     1.0  0.69734  0.26175  0.03561  1.0000
  C   C2589     1.0  0.70504  0.25918  0.02561  1.0000
  H   H4363     1.0  0.72169  0.41608  0.10830  1.0000
  H   H4364     1.0  0.70669  0.28402  0.00678  1.0000
  H   H4365     1.0  0.55122  0.30575  0.05460  1.0000
  H   H4366     1.0  0.56896  0.29776  0.05808  1.0000
  H   H4367     1.0  0.56630  0.31275  0.04302  1.0000
  C   C2590     1.0  0.98690  0.45495  0.20709  1.0000
  H   H4368     1.0  0.79802  0.47919  0.13361  1.0000
  C   C2591     1.0  0.73936  0.30918  0.00410  1.0000
  H   H4369     1.0  0.95253  0.48299  0.20214  1.0000
  H   H4370     1.0  0.82293  0.47876  0.18853  1.0000
  N   N182      1.0  0.71751  0.26672  0.02151  1.0000
  C   C2592     1.0  0.91556  0.37255  0.21219  1.0000
  H   H4371     1.0  0.99568  0.45060  0.16632  1.0000
  H   H4372     1.0  0.62103  0.48789  0.00714  1.0000
  H   H4373     1.0  0.90278  0.46568  0.14580  1.0000
  C   C2593     1.0  0.62796  0.25923  0.99663  1.0000
  H   H4374     1.0  0.98951  0.46822  0.17983  1.0000
  C   C2594     1.0  0.56772  0.39694  0.99753  1.0000
  S   S764      1.0  0.86480  0.42510  0.18417  1.0000
  H   H4375     1.0  0.62671  0.31049  0.06437  1.0000
  N   N183      1.0  0.81880  0.45469  0.08767  1.0000
  C   C2595     1.0  0.82341  0.45299  0.10138  1.0000
  C   C2596     1.0  0.81194  0.47037  0.08303  1.0000
  C   C2597     1.0  0.83242  0.45059  0.07666  1.0000
  C   C2598     1.0  0.80856  0.44484  0.09048  1.0000
  C   C2599     1.0  0.83236  0.43809  0.10722  1.0000
  C   C2600     1.0  0.82162  0.35935  0.22946  1.0000
  C   C2601     1.0  0.83071  0.45294  0.06127  1.0000
  C   C2602     1.0  0.79779  0.44881  0.08052  1.0000
  H   H4376     1.0  0.82988  0.46100  0.10018  1.0000
  H   H4377     1.0  0.81375  0.45519  0.11013  1.0000
  H   H4378     1.0  0.80836  0.47272  0.07290  1.0000
  H   H4379     1.0  0.51815  0.34160  0.00997  1.0000
  H   H4380     1.0  0.84071  0.45650  0.07617  1.0000
  H   H4381     1.0  0.83752  0.43903  0.07975  1.0000
  H   H4382     1.0  0.81483  0.43363  0.09021  1.0000
  H   H4383     1.0  0.80163  0.44426  0.10152  1.0000
  H   H4384     1.0  0.82693  0.42932  0.10840  1.0000
  H   H4385     1.0  0.84351  0.43592  0.10047  1.0000
  H   H4386     1.0  0.83358  0.43788  0.11799  1.0000
  H   H4387     1.0  0.60031  0.27331  0.03805  1.0000
  H   H4388     1.0  0.99194  0.46426  0.20159  1.0000
  S   S765      1.0  0.66904  0.48181  0.06763  1.0000
  H   H4389     1.0  0.84166  0.44975  0.05443  1.0000
  H   H4390     1.0  0.82649  0.46437  0.05654  1.0000
  H   H4391     1.0  0.82401  0.44595  0.06060  1.0000
  H   H4392     1.0  0.79656  0.43875  0.07865  1.0000
  H   H4393     1.0  0.80107  0.45559  0.06985  1.0000
  H   H4394     1.0  0.78673  0.45388  0.08592  1.0000
  N   N184      1.0  0.64872  0.33322  0.03944  1.0000
  C   C2603     1.0  0.64419  0.34931  0.03424  1.0000
  C   C2604     1.0  0.65963  0.33054  0.04849  1.0000
  C   C2605     1.0  0.63524  0.32784  0.04838  1.0000
  C   C2606     1.0  0.65515  0.32672  0.02647  1.0000
  C   C2607     1.0  0.63147  0.35467  0.02638  1.0000
  C   C2608     1.0  0.67430  0.33469  0.04055  1.0000
  C   C2609     1.0  0.63741  0.31355  0.05959  1.0000
  C   C2610     1.0  0.66162  0.31044  0.02912  1.0000
  H   H4395     1.0  0.64090  0.35478  0.04338  1.0000
  H   H4396     1.0  0.65340  0.35382  0.02671  1.0000
  H   H4397     1.0  0.66252  0.31908  0.05379  1.0000
  H   H4398     1.0  0.65483  0.33630  0.05743  1.0000
  H   H4399     1.0  0.62786  0.33583  0.05463  1.0000
  H   H4400     1.0  0.62880  0.32665  0.04137  1.0000
  H   H4401     1.0  0.64677  0.32854  0.02022  1.0000
  H   H4402     1.0  0.66367  0.33216  0.01878  1.0000
  H   H4403     1.0  0.63412  0.35085  0.01634  1.0000
  H   H4404     1.0  0.62120  0.35176  0.03327  1.0000
  H   H4405     1.0  0.62922  0.36660  0.02332  1.0000
  H   H4406     1.0  0.68047  0.32797  0.03269  1.0000
  H   H4407     1.0  0.67303  0.34623  0.03532  1.0000
  H   H4408     1.0  0.68111  0.33263  0.04843  1.0000
  H   H4409     1.0  0.64124  0.31468  0.06859  1.0000
  H   H4410     1.0  0.65306  0.30447  0.03086  1.0000
  H   H4411     1.0  0.67014  0.30799  0.01955  1.0000
  H   H4412     1.0  0.71947  0.45676  0.14186  1.0000
  H   H4413     1.0  0.84862  0.43282  0.14149  1.0000
  H   H4414     1.0  0.52218  0.47720  0.01696  1.0000
  S   S766      1.0  0.91114  0.40748  0.99000  1.0000
  N   N185      1.0  0.86936  0.41991  0.13233  1.0000
  H   H4415     1.0  0.72471  0.42683  0.14414  1.0000
  H   H4416     1.0  0.57327  0.27186  0.06289  1.0000
  H   H4417     1.0  0.93460  0.47527  0.19886  1.0000
  C   C2611     1.0  0.74877  0.45505  0.09562  1.0000
  H   H4418     1.0  0.87906  0.45754  0.15968  1.0000
  H   H4419     1.0  0.74049  0.42827  0.10491  1.0000
  H   H4420     1.0  0.87045  0.40308  0.12166  1.0000
  C   C2612     1.0  0.71232  0.46096  0.13409  1.0000
  H   H4421     1.0  0.85625  0.45433  0.14007  1.0000
  H   H4422     1.0  0.88206  0.43248  0.11450  1.0000
  Fe  Fe377     1.0  0.88453  0.40723  0.18493  1.0000
  H   H4423     1.0  0.83774  0.37313  0.16029  1.0000
  H   H4424     1.0  0.98726  0.44171  0.18374  1.0000
  H   H4425     1.0  0.88467  0.47345  0.99343  1.0000
  Fe  Fe378     1.0  0.87153  0.39152  0.21446  1.0000
  H   H4426     1.0  0.59163  0.26224  0.06258  1.0000
  C   C2613     1.0  0.53856  0.30544  0.99399  1.0000
  C   C2614     1.0  0.84962  0.48512  0.08743  1.0000
  N   N186      1.0  0.77962  0.37658  0.05840  1.0000
  C   C2615     1.0  0.77814  0.37775  0.07353  1.0000
  C   C2616     1.0  0.77393  0.36362  0.05938  1.0000
  C   C2617     1.0  0.77034  0.39013  0.05120  1.0000
  C   C2618     1.0  0.79548  0.37517  0.05094  1.0000
  C   C2619     1.0  0.78226  0.39099  0.07521  1.0000
  C   C2620     1.0  0.78263  0.34894  0.06613  1.0000
  C   C2621     1.0  0.76494  0.38929  0.03842  1.0000
  C   C2622     1.0  0.79990  0.37211  0.03580  1.0000
  H   H4427     1.0  0.76670  0.37801  0.07959  1.0000
  H   H4428     1.0  0.78495  0.36823  0.07940  1.0000
  H   H4429     1.0  0.77339  0.36259  0.04879  1.0000
  H   H4430     1.0  0.76241  0.36481  0.06559  1.0000
  H   H4431     1.0  0.76022  0.39387  0.05900  1.0000
  H   H4432     1.0  0.77621  0.39908  0.04741  1.0000
  H   H4433     1.0  0.79902  0.38524  0.04968  1.0000
  H   H4434     1.0  0.80267  0.36696  0.05762  1.0000
  H   H4435     1.0  0.79407  0.39077  0.07101  1.0000
  H   H4436     1.0  0.77572  0.40128  0.07024  1.0000
  H   H4437     1.0  0.77997  0.39083  0.08682  1.0000
  H   H4438     1.0  0.77778  0.34035  0.06550  1.0000
  H   H4439     1.0  0.79420  0.34676  0.06033  1.0000
  H   H4440     1.0  0.78189  0.34782  0.07766  1.0000
  H   H4441     1.0  0.77379  0.38485  0.03011  1.0000
  H   H4442     1.0  0.75979  0.40030  0.03326  1.0000
  H   H4443     1.0  0.75636  0.38292  0.04205  1.0000
  H   H4444     1.0  0.79865  0.38227  0.02753  1.0000
  H   H4445     1.0  0.79393  0.36488  0.03439  1.0000
  H   H4446     1.0  0.81153  0.36634  0.03377  1.0000
  N   N187      1.0  0.89927  0.39155  0.04794  1.0000
  C   C2623     1.0  0.88989  0.40644  0.04453  1.0000
  C   C2624     1.0  0.90976  0.39249  0.05601  1.0000
  C   C2625     1.0  0.88929  0.38191  0.05757  1.0000
  C   C2626     1.0  0.90676  0.38674  0.03408  1.0000
  C   C2627     1.0  0.87770  0.40811  0.03680  1.0000
  C   C2628     1.0  0.92029  0.40259  0.04776  1.0000
  C   C2629     1.0  0.89646  0.36613  0.06307  1.0000
  C   C2630     1.0  0.92080  0.37470  0.03414  1.0000
  H   H4447     1.0  0.88473  0.41063  0.05443  1.0000
  H   H4448     1.0  0.89664  0.41406  0.03757  1.0000
  H   H4449     1.0  0.91663  0.38190  0.05972  1.0000
  H   H4450     1.0  0.90364  0.39618  0.06608  1.0000
  H   H4451     1.0  0.88289  0.38635  0.06715  1.0000
  H   H4452     1.0  0.88114  0.38139  0.05202  1.0000
  H   H4453     1.0  0.89906  0.38317  0.03018  1.0000
  H   H4454     1.0  0.90993  0.39601  0.02552  1.0000
  H   H4455     1.0  0.87270  0.41973  0.03371  1.0000
  H   H4456     1.0  0.88191  0.40408  0.02679  1.0000
  H   H4457     1.0  0.86876  0.40293  0.04388  1.0000
  H   H4458     1.0  0.92884  0.40079  0.05378  1.0000
  H   H4459     1.0  0.92586  0.40073  0.03692  1.0000
  H   H4460     1.0  0.91461  0.41405  0.04688  1.0000
  H   H4461     1.0  0.88786  0.36063  0.07048  1.0000
  H   H4462     1.0  0.90458  0.36496  0.06935  1.0000
  H   H4463     1.0  0.90125  0.36035  0.05424  1.0000
  H   H4464     1.0  0.92060  0.36705  0.02798  1.0000
  H   H4465     1.0  0.92242  0.36828  0.04478  1.0000
  H   H4466     1.0  0.93056  0.37922  0.02833  1.0000
  H   H4467     1.0  0.93427  0.35935  0.22795  1.0000
  N   N188      1.0  0.82523  0.36852  0.21457  1.0000
  C   C2631     1.0  0.71227  0.36715  0.00519  1.0000
  H   H4468     1.0  0.74539  0.26884  0.02541  1.0000
  H   H4469     1.0  0.69818  0.26305  0.01751  1.0000
  H   H4470     1.0  0.59150  0.28665  0.04802  1.0000
  H   H4471     1.0  0.62584  0.30976  0.98988  1.0000
  C   C2632     1.0  0.67960  0.36898  0.00764  1.0000
  H   H4472     1.0  0.99426  0.44510  0.20383  1.0000
  H   H4473     1.0  0.60118  0.28826  0.00514  1.0000
  C   C2633     1.0  0.88338  0.48593  0.11161  1.0000
  H   H4474     1.0  0.70569  0.36363  0.01598  1.0000
  H   H4475     1.0  0.82170  0.39835  0.21779  1.0000
  H   H4476     1.0  0.81625  0.35167  0.19255  1.0000
  H   H4477     1.0  0.88209  0.47468  0.11623  1.0000
  H   H4478     1.0  0.81138  0.47561  0.22083  1.0000
  C   C2634     1.0  0.72552  0.26120  0.99620  1.0000
  S   S767      1.0  0.66713  0.25486  0.01490  1.0000
  H   H4479     1.0  0.92468  0.36614  0.20564  1.0000
  H   H4480     1.0  0.90954  0.39039  0.22192  1.0000
  C   C2635     1.0  0.99157  0.49176  0.14282  1.0000
  C   C2636     1.0  0.88789  0.44135  0.21723  1.0000
  S   S768      1.0  0.61260  0.26068  0.99013  1.0000
  C   C2637     1.0  0.93342  0.36874  0.23227  1.0000
  H   H4481     1.0  0.73850  0.26693  0.00687  1.0000
  H   H4482     1.0  0.87958  0.45985  0.98867  1.0000
  C   C2638     1.0  0.85176  0.49126  0.07276  1.0000
  H   H4483     1.0  0.69842  0.34507  0.01760  1.0000
  H   H4484     1.0  0.51177  0.36099  0.00523  1.0000
  C   C2639     1.0  0.84856  0.40827  0.13321  1.0000
  H   H4485     1.0  0.93132  0.48137  0.15787  1.0000
  H   H4486     1.0  0.94592  0.37316  0.19199  1.0000
  H   H4487     1.0  0.81655  0.38821  0.20072  1.0000
  C   C2640     1.0  0.89704  0.46526  0.18146  1.0000
  H   H4488     1.0  0.87828  0.39024  0.14049  1.0000
  H   H4489     1.0  0.88803  0.45938  0.18607  1.0000
  C   C2641     1.0  0.93087  0.39451  0.22828  1.0000
  C   C2642     1.0  0.81392  0.43374  0.21637  1.0000
  Fe  Fe379     1.0  0.95081  0.48416  0.13039  1.0000
  C   C2643     1.0  0.63800  0.26145  0.01532  1.0000
  H   H4490     1.0  0.79550  0.46262  0.20200  1.0000
  H   H4491     1.0  0.53260  0.30194  0.00479  1.0000
  C   C2644     1.0  0.83706  0.45860  0.17447  1.0000
  H   H4492     1.0  0.56622  0.43252  0.99305  1.0000
  H   H4493     1.0  0.85626  0.44038  0.12345  1.0000
  H   H4494     1.0  0.86105  0.42014  0.11432  1.0000
  H   H4495     1.0  0.70090  0.46304  0.14037  1.0000
  C   C2645     1.0  0.64213  0.25559  0.98850  1.0000
  C   C2646     1.0  0.87923  0.39549  0.14847  1.0000
  S   S769      1.0  0.94324  0.46468  0.13133  1.0000
  H   H4496     1.0  0.58755  0.30575  0.02857  1.0000
  H   H4497     1.0  0.85045  0.39945  0.14258  1.0000
  H   H4498     1.0  0.92788  0.46382  0.16199  1.0000
  C   C2647     1.0  0.65214  0.25744  0.00743  1.0000
  H   H4499     1.0  0.83929  0.37793  0.22098  1.0000
  C   C2648     1.0  0.92339  0.47467  0.16418  1.0000
  H   H4500     1.0  0.57879  0.30552  0.01553  1.0000
  C   C2649     1.0  0.97300  0.48881  0.19538  1.0000
  H   H4501     1.0  0.61520  0.26438  0.01659  1.0000
  H   H4502     1.0  0.65803  0.48612  0.01292  1.0000
  H   H4503     1.0  0.73355  0.32345  0.01875  1.0000
  Fe  Fe380     1.0  0.82396  0.48358  0.14242  1.0000
  H   H4504     1.0  0.70761  0.42932  0.11604  1.0000
  Fe  Fe381     1.0  0.59549  0.33920  0.99918  1.0000
  C   C2650     1.0  0.71398  0.45012  0.12499  1.0000
  C   C2651     1.0  0.87073  0.41125  0.14714  1.0000
  C   C2652     1.0  0.88096  0.46585  0.22854  1.0000
  H   H4505     1.0  0.93516  0.41139  0.99804  1.0000
  H   H4506     1.0  0.72806  0.25276  0.03841  1.0000
  S   S770      1.0  0.61628  0.33201  0.00695  1.0000
  H   H4507     1.0  0.71440  0.26723  0.04374  1.0000
  H   H4508     1.0  0.97521  0.48440  0.20626  1.0000
  C   C2653     1.0  0.85308  0.35980  0.21296  1.0000
  H   H4509     1.0  0.87367  0.47598  0.17070  1.0000
  S   S771      1.0  0.57243  0.34454  0.01160  1.0000
  H   H4510     1.0  0.72110  0.41748  0.12582  1.0000
  H   H4511     1.0  0.73057  0.35967  0.01567  1.0000
  H   H4512     1.0  0.94173  0.45909  0.21105  1.0000
  C   C2654     1.0  0.71198  0.28248  0.01575  1.0000
  H   H4513     1.0  0.60507  0.30423  0.00651  1.0000
  H   H4514     1.0  0.80895  0.43835  0.19030  1.0000
  H   H4515     1.0  0.88015  0.49081  0.17060  1.0000
  H   H4516     1.0  0.64204  0.46886  0.02658  1.0000
  Fe  Fe382     1.0  0.56749  0.33330  0.99747  1.0000
  H   H4517     1.0  0.68250  0.36847  0.01768  1.0000
  H   H4518     1.0  0.66722  0.30631  0.03813  1.0000
  S   S772      1.0  0.61626  0.28394  0.06378  1.0000
  H   H4519     1.0  0.63407  0.28517  0.03529  1.0000
  C   C2655     1.0  0.83126  0.38332  0.16262  1.0000
  Fe  Fe383     1.0  0.70488  0.48217  0.03878  1.0000
  C   C2656     1.0  0.82729  0.40324  0.17395  1.0000
  C   C2657     1.0  0.70290  0.29817  0.06852  1.0000
  H   H4520     1.0  0.72567  0.46419  0.10004  1.0000
  H   H4521     1.0  0.74180  0.42516  0.14751  1.0000
  C   C2658     1.0  0.88028  0.48909  0.14971  1.0000
  Fe  Fe384     1.0  0.98212  0.46746  0.13010  1.0000
  Fe  Fe385     1.0  0.63770  0.26778  0.06149  1.0000
  H   H4522     1.0  0.71318  0.30105  0.06694  1.0000
  C   C2659     1.0  0.62599  0.26200  0.01009  1.0000
  H   H4523     1.0  0.90625  0.47554  0.10786  1.0000
  H   H4524     1.0  0.89519  0.48675  0.18577  1.0000
  C   C2660     1.0  0.73521  0.27251  0.03302  1.0000
  H   H4525     1.0  0.92919  0.47773  0.10666  1.0000
  C   C2661     1.0  0.83582  0.39022  0.17065  1.0000
  S   S773      1.0  0.65791  0.27416  0.04652  1.0000
  C   C2662     1.0  0.70269  0.28484  0.06640  1.0000
  H   H4526     1.0  0.63009  0.47175  0.05405  1.0000
  C   C2663     1.0  0.73991  0.43832  0.12641  1.0000
  H   H4527     1.0  0.89094  0.39466  0.14785  1.0000
  Fe  Fe386     1.0  0.85216  0.40771  0.19314  1.0000
  S   S774      1.0  0.83136  0.41154  0.18548  1.0000
  C   C2664     1.0  0.73405  0.45802  0.10641  1.0000
  H   H4528     1.0  0.73520  0.46558  0.11219  1.0000
  S   S775      1.0  0.68338  0.48612  0.03292  1.0000
  H   H4529     1.0  0.74057  0.41533  0.13541  1.0000
  C   C2665     1.0  0.92540  0.41826  0.00288  1.0000
  H   H4530     1.0  0.87466  0.38906  0.15902  1.0000
  H   H4531     1.0  0.88432  0.47569  0.19905  1.0000
  H   H4532     1.0  0.79214  0.45006  0.18748  1.0000
  N   N189      1.0  0.72923  0.44500  0.11679  1.0000
  C   C2666     1.0  0.72924  0.43468  0.10817  1.0000
  H   H4533     1.0  0.70653  0.45519  0.11746  1.0000
  Fe  Fe387     1.0  0.69173  0.47808  0.07055  1.0000
  H   H4534     1.0  0.82236  0.42694  0.20962  1.0000
  H   H4535     1.0  0.89041  0.41018  0.10674  1.0000
  H   H4536     1.0  0.87453  0.44787  0.13143  1.0000
  H   H4537     1.0  0.89003  0.42547  0.12975  1.0000
  C   C2667     1.0  0.80391  0.44961  0.18606  1.0000
  H   H4538     1.0  0.67014  0.29893  0.99102  1.0000
  H   H4539     1.0  0.85984  0.41138  0.15463  1.0000
  S   S776      1.0  0.87204  0.38968  0.19224  1.0000
  H   H4540     1.0  0.88047  0.48106  0.14386  1.0000
  H   H4541     1.0  0.96344  0.46008  0.21473  1.0000
  H   H4542     1.0  0.80811  0.45247  0.17429  1.0000
  H   H4543     1.0  0.57311  0.27292  0.00654  1.0000
  H   H4544     1.0  0.75080  0.43401  0.12013  1.0000
  H   H4545     1.0  0.74212  0.44647  0.13074  1.0000
  H   H4546     1.0  0.71426  0.47150  0.12733  1.0000
  H   H4547     1.0  0.84574  0.38533  0.17449  1.0000
  S   S777      1.0  0.70163  0.46254  0.05613  1.0000
  H   H4548     1.0  0.89672  0.40057  0.12302  1.0000
  H   H4549     1.0  0.85896  0.46775  0.22693  1.0000
  C   C2668     1.0  0.80543  0.46081  0.19334  1.0000
  H   H4550     1.0  0.85922  0.48549  0.19888  1.0000
  H   H4551     1.0  0.70924  0.44114  0.13236  1.0000
  C   C2669     1.0  0.97984  0.46540  0.17865  1.0000
  H   H4552     1.0  0.86732  0.43961  0.14987  1.0000
  H   H4553     1.0  0.83115  0.43964  0.18888  1.0000
  H   H4554     1.0  0.91106  0.48407  0.14793  1.0000
  H   H4555     1.0  0.90502  0.41444  0.11080  1.0000
  H   H4556     1.0  0.73808  0.27029  0.04355  1.0000
  C   C2670     1.0  0.90775  0.47653  0.00027  1.0000
  C   C2671     1.0  0.81706  0.44862  0.21414  1.0000
  H   H4557     1.0  0.98326  0.48819  0.18711  1.0000
  C   C2672     1.0  0.73639  0.42568  0.13893  1.0000
  C   C2673     1.0  0.83237  0.45002  0.18983  1.0000
  H   H4558     1.0  0.82691  0.44701  0.21842  1.0000
  H   H4559     1.0  0.82765  0.46454  0.16960  1.0000
  H   H4560     1.0  0.84346  0.46627  0.17431  1.0000
  H   H4561     1.0  0.73529  0.24968  0.01446  1.0000
  N   N190      1.0  0.81904  0.45755  0.19904  1.0000
  S   S778      1.0  0.97049  0.48057  0.11261  1.0000
  H   H4562     1.0  0.95580  0.38284  0.21331  1.0000
  C   C2674     1.0  0.65421  0.25470  0.99389  1.0000
  C   C2675     1.0  0.86290  0.41290  0.12473  1.0000
  Fe  Fe388     1.0  0.86491  0.42411  0.20686  1.0000
  H   H4563     1.0  0.84419  0.45114  0.16761  1.0000
  H   H4564     1.0  0.64713  0.29282  0.99431  1.0000
  C   C2676     1.0  0.90110  0.46094  0.15751  1.0000
  H   H4565     1.0  0.90991  0.43966  0.21862  1.0000
  C   C2677     1.0  0.60139  0.29431  0.01284  1.0000
  H   H4566     1.0  0.66901  0.37680  0.00747  1.0000
  H   H4567     1.0  0.83175  0.36639  0.19254  1.0000
  H   H4568     1.0  0.89072  0.43206  0.21264  1.0000
  H   H4569     1.0  0.72571  0.44070  0.09800  1.0000
  H   H4570     1.0  0.85137  0.35105  0.22259  1.0000
  H   H4571     1.0  0.80244  0.40150  0.22042  1.0000
  H   H4572     1.0  0.80931  0.34862  0.21135  1.0000
  Fe  Fe389     1.0  0.90664  0.48717  0.22612  1.0000
  C   C2678     1.0  0.90864  0.48145  0.15986  1.0000
  S   S779      1.0  0.69571  0.47255  0.09277  1.0000
  H   H4573     1.0  0.74878  0.44810  0.08866  1.0000
  C   C2679     1.0  0.71929  0.42385  0.11521  1.0000
  N   N191      1.0  0.93269  0.38252  0.22095  1.0000
  C   C2680     1.0  0.87347  0.44925  0.21953  1.0000
  H   H4574     1.0  0.58515  0.37974  0.00423  1.0000
  C   C2681     1.0  0.94641  0.38249  0.20931  1.0000
  S   S780      1.0  0.88570  0.40750  0.20695  1.0000
  S   S781      1.0  0.85956  0.44439  0.21508  1.0000
  H   H4575     1.0  0.83496  0.34985  0.20515  1.0000
  H   H4576     1.0  0.70554  0.29131  0.03522  1.0000
  S   S782      1.0  0.85056  0.40815  0.21601  1.0000
  C   C2682     1.0  0.52076  0.35175  0.00281  1.0000
  C   C2683     1.0  0.83963  0.37244  0.21254  1.0000
  C   C2684     1.0  0.89876  0.44563  0.22067  1.0000
  C   C2685     1.0  0.57038  0.42101  0.99554  1.0000
  H   H4577     1.0  0.57699  0.29007  0.00354  1.0000
  H   H4578     1.0  0.94517  0.39256  0.20089  1.0000
  H   H4579     1.0  0.63627  0.26413  0.02547  1.0000
  H   H4580     1.0  0.95261  0.46816  0.17819  1.0000
  H   H4581     1.0  0.82786  0.34805  0.22983  1.0000
  C   C2686     1.0  0.94039  0.46381  0.19991  1.0000
  Fe  Fe390     1.0  0.96381  0.46008  0.11470  1.0000
  C   C2687     1.0  0.81241  0.39291  0.22148  1.0000
  C   C2688     1.0  0.69099  0.37394  0.99429  1.0000
  H   H4582     1.0  0.80297  0.43467  0.21462  1.0000
  H   H4583     1.0  0.92265  0.47421  0.17557  1.0000
  H   H4584     1.0  0.92055  0.39352  0.20431  1.0000
  C   C2689     1.0  0.82212  0.47151  0.19933  1.0000
  H   H4585     1.0  0.51528  0.32837  0.99499  1.0000
  H   H4586     1.0  0.71142  0.37875  0.00444  1.0000
  H   H4587     1.0  0.98653  0.45326  0.21867  1.0000
  H   H4588     1.0  0.69101  0.28603  0.03149  1.0000
  H   H4589     1.0  0.83289  0.46965  0.20210  1.0000
  N   N192      1.0  0.70647  0.36538  0.99343  1.0000
  C   C2690     1.0  0.81400  0.38237  0.21208  1.0000
  H   H4590     1.0  0.91173  0.45357  0.15890  1.0000
  C   C2691     1.0  0.95500  0.46200  0.18877  1.0000
  C   C2692     1.0  0.97131  0.45657  0.20520  1.0000
  H   H4591     1.0  0.85640  0.35551  0.20311  1.0000
  H   H4592     1.0  0.79854  0.36093  0.22828  1.0000
  H   H4593     1.0  0.75082  0.46542  0.08845  1.0000
  N   N193      1.0  0.96737  0.46633  0.19159  1.0000
  H   H4594     1.0  0.88882  0.42777  0.00501  1.0000
  C   C2693     1.0  0.92765  0.40995  0.21919  1.0000
  S   S783      1.0  0.72587  0.48410  0.02271  1.0000
  H   H4595     1.0  0.69701  0.30200  0.02097  1.0000
  H   H4596     1.0  0.75803  0.45034  0.10103  1.0000
  H   H4597     1.0  0.68524  0.47774  0.12118  1.0000
  H   H4598     1.0  0.73034  0.34783  0.00527  1.0000
  C   C2694     1.0  0.87005  0.46148  0.22525  1.0000
  H   H4599     1.0  0.84202  0.38027  0.20217  1.0000
  C   C2695     1.0  0.82706  0.36033  0.20330  1.0000
  H   H4600     1.0  0.62331  0.47548  0.03317  1.0000
  C   C2696     1.0  0.98525  0.45066  0.17449  1.0000
  H   H4601     1.0  0.69048  0.38547  0.99358  1.0000
  H   H4602     1.0  0.67759  0.35856  0.00771  1.0000
  C   C2697     1.0  0.00234  0.47906  0.14351  1.0000
  H   H4603     1.0  0.89390  0.44366  0.15406  1.0000
  H   H4604     1.0  0.90711  0.45676  0.18265  1.0000
  H   H4605     1.0  0.59072  0.26964  0.02049  1.0000
  C   C2698     1.0  0.81068  0.48041  0.20951  1.0000
  H   H4606     1.0  0.97034  0.44547  0.20592  1.0000
  H   H4607     1.0  0.79082  0.46937  0.09860  1.0000
  H   H4608     1.0  0.90654  0.37657  0.20639  1.0000
  C   C2699     1.0  0.66325  0.35493  0.98895  1.0000
  N   N194      1.0  0.89731  0.47241  0.16596  1.0000
  C   C2700     1.0  0.89002  0.45133  0.16127  1.0000
  H   H4609     1.0  0.64610  0.31940  0.99086  1.0000
  H   H4610     1.0  0.73001  0.31408  0.99936  1.0000
  H   H4611     1.0  0.79944  0.48189  0.20823  1.0000
  H   H4612     1.0  0.79276  0.48704  0.08860  1.0000
  C   C2701     1.0  0.89496  0.47549  0.19136  1.0000
  C   C2702     1.0  0.88249  0.48193  0.16499  1.0000
  H   H4613     1.0  0.93310  0.45817  0.19789  1.0000
  H   H4614     1.0  0.55198  0.41624  0.99151  1.0000
  H   H4615     1.0  0.82016  0.47704  0.08059  1.0000
  H   H4616     1.0  0.90363  0.47164  0.19756  1.0000
  C   C2703     1.0  0.72971  0.26086  0.01015  1.0000
  H   H4617     1.0  0.86247  0.36371  0.21342  1.0000
  H   H4618     1.0  0.81305  0.49127  0.20696  1.0000
  C   C2704     1.0  0.63290  0.47821  0.02468  1.0000
  C   C2705     1.0  0.56233  0.41181  0.99465  1.0000
  H   H4619     1.0  0.90065  0.46938  0.00777  1.0000
  Fe  Fe391     1.0  0.57007  0.36369  0.99332  1.0000
  H   H4620     1.0  0.90096  0.48680  0.99571  1.0000
  C   C2706     1.0  0.81332  0.35670  0.20192  1.0000
  H   H4621     1.0  0.93665  0.41200  0.20976  1.0000
  H   H4622     1.0  0.62547  0.46865  0.01170  1.0000
  H   H4623     1.0  0.94952  0.35977  0.20791  1.0000
  H   H4624     1.0  0.89392  0.48165  0.08337  1.0000
  C   C2707     1.0  0.89534  0.45790  0.22629  1.0000
  C   C2708     1.0  0.91949  0.38549  0.21471  1.0000
  H   H4625     1.0  0.91137  0.36550  0.22250  1.0000
  H   H4626     1.0  0.65063  0.37575  0.99145  1.0000
  H   H4627     1.0  0.80217  0.47851  0.10273  1.0000
  C   C2709     1.0  0.95130  0.37029  0.20114  1.0000
  S   S784      1.0  0.85137  0.48144  0.06084  1.0000
  H   H4628     1.0  0.71186  0.33093  0.01091  1.0000
  H   H4629     1.0  0.80299  0.38056  0.21359  1.0000
  C   C2710     1.0  0.63085  0.48288  0.05327  1.0000
  S   S785      1.0  0.87624  0.37253  0.23262  1.0000
  C   C2711     1.0  0.54922  0.31325  0.99156  1.0000
  H   H4630     1.0  0.73602  0.36466  0.99671  1.0000
  C   C2712     1.0  0.70754  0.34988  0.99369  1.0000
  H   H4631     1.0  0.66515  0.25160  0.98769  1.0000
  S   S786      1.0  0.90923  0.46313  0.23029  1.0000
  S   S787      1.0  0.84540  0.48835  0.14104  1.0000
  H   H4632     1.0  0.53387  0.48950  0.00896  1.0000
  H   H4633     1.0  0.65188  0.47981  0.03887  1.0000
  C   C2713     1.0  0.62953  0.47842  0.01042  1.0000
  C   C2714     1.0  0.68793  0.48748  0.11395  1.0000
  C   C2715     1.0  0.69304  0.48796  0.09928  1.0000
  H   H4634     1.0  0.50799  0.24348  0.06067  1.0000
  H   H4635     1.0  0.94082  0.39350  0.23210  1.0000
  H   H4636     1.0  0.87823  0.47540  0.23277  1.0000
  C   C2716     1.0  0.64159  0.48825  0.03943  1.0000
  H   H4637     1.0  0.69409  0.33499  0.00778  1.0000
  H   H4638     1.0  0.92657  0.41759  0.22586  1.0000
  H   H4639     1.0  0.63504  0.48248  0.06266  1.0000
  H   H4640     1.0  0.63954  0.47780  0.00172  1.0000
  H   H4641     1.0  0.92215  0.45756  0.99481  1.0000
  H   H4642     1.0  0.91373  0.47946  0.00659  1.0000
  H   H4643     1.0  0.91806  0.48284  0.08395  1.0000
  H   H4644     1.0  0.90079  0.48746  0.11963  1.0000
  H   H4645     1.0  0.51870  0.49059  0.00145  1.0000
  C   C2717     1.0  0.52234  0.48858  0.01148  1.0000
  C   C2718     1.0  0.93192  0.48800  0.10006  1.0000
  C   C2719     1.0  0.89957  0.48632  0.10928  1.0000
  H   H4646     1.0  0.95676  0.36416  0.23272  1.0000
  C   C2720     1.0  0.91887  0.46883  0.98894  1.0000
  H   H4647     1.0  0.93996  0.49033  0.10453  1.0000
  H   H4648     1.0  0.61986  0.49007  0.05423  1.0000
  H   H4649     1.0  0.87902  0.48957  0.10185  1.0000
  H   H4650     1.0  0.90328  0.48912  0.06612  1.0000
  C   C2721     1.0  0.89820  0.49126  0.07699  1.0000
  C   C2722     1.0  0.50645  0.33701  0.99085  1.0000
  H   H4651     1.0  0.67407  0.28145  0.98744  1.0000
  H   H4652     1.0  0.71897  0.34474  0.98919  1.0000
  H   H4653     1.0  0.82519  0.36319  0.23713  1.0000
  H   H4654     1.0  0.87926  0.39892  0.23707  1.0000
  Fe  Fe392     1.0  0.92046  0.37359  0.28989  1.0000
  S   S788      1.0  0.90963  0.38168  0.31013  1.0000
  S   S789      1.0  0.91158  0.38557  0.26999  1.0000
  Fe  Fe393     1.0  0.94776  0.35674  0.30145  1.0000
  S   S790      1.0  0.93897  0.36390  0.32216  1.0000
  S   S791      1.0  0.97014  0.34207  0.29987  1.0000
  Fe  Fe394     1.0  0.91819  0.35913  0.32161  1.0000
  S   S792      1.0  0.90616  0.34875  0.34323  1.0000
  Fe  Fe395     1.0  0.93139  0.38554  0.30891  1.0000
  S   S793      1.0  0.93515  0.40602  0.31122  1.0000
  S   S794      1.0  0.92733  0.35052  0.30149  1.0000
  S   S795      1.0  0.94186  0.37887  0.28814  1.0000
  H   H4655     1.0  0.89942  0.32990  0.37062  1.0000
  H   H4656     1.0  0.90865  0.30393  0.37977  1.0000
  S   S796      1.0  0.92051  0.30243  0.42401  1.0000
  H   H4657     1.0  0.96980  0.35344  0.32504  1.0000
  Fe  Fe396     1.0  0.97549  0.42660  0.36376  1.0000
  S   S797      1.0  0.95174  0.43684  0.37012  1.0000
  Fe  Fe397     1.0  0.97551  0.40373  0.39099  1.0000
  S   S798      1.0  0.95186  0.41201  0.39990  1.0000
  S   S799      1.0  0.98818  0.38337  0.40250  1.0000
  Fe  Fe398     1.0  0.94884  0.41411  0.37798  1.0000
  S   S800      1.0  0.93173  0.40449  0.37562  1.0000
  Fe  Fe399     1.0  0.95698  0.43377  0.39148  1.0000
  S   S801      1.0  0.94673  0.44879  0.40645  1.0000
  S   S802      1.0  0.97210  0.40420  0.36976  1.0000
  H   H4658     1.0  0.96553  0.45551  0.33683  1.0000
  H   H4659     1.0  0.96916  0.46364  0.29655  1.0000
  Fe  Fe400     1.0  0.97190  0.32633  0.47457  1.0000
  H   H4660     1.0  0.98180  0.27181  0.34903  1.0000
  Fe  Fe401     1.0  0.94450  0.34203  0.46404  1.0000
  C   C2723     1.0  0.87849  0.24909  0.47000  1.0000
  S   S803      1.0  0.93721  0.35676  0.44465  1.0000
  H   H4661     1.0  0.87837  0.44403  0.25747  1.0000
  C   C2724     1.0  0.90952  0.48152  0.40379  1.0000
  H   H4662     1.0  0.92968  0.47679  0.40989  1.0000
  S   S804      1.0  0.95713  0.34769  0.47637  1.0000
  S   S805      1.0  0.96043  0.32164  0.46062  1.0000
  H   H4663     1.0  0.98341  0.38560  0.43372  1.0000
  H   H4664     1.0  0.89876  0.24678  0.48377  1.0000
  C   C2725     1.0  0.97155  0.27553  0.35648  1.0000
  H   H4665     1.0  0.99900  0.24715  0.43568  1.0000
  H   H4666     1.0  0.99759  0.33480  0.30847  1.0000
  C   C2726     1.0  0.97904  0.39020  0.44346  1.0000
  H   H4667     1.0  0.96336  0.29354  0.44450  1.0000
  H   H4668     1.0  0.95541  0.27804  0.42765  1.0000
  H   H4669     1.0  0.97557  0.45434  0.39264  1.0000
  C   C2727     1.0  0.91362  0.44979  0.27056  1.0000
  C   C2728     1.0  0.96553  0.26164  0.46899  1.0000
  H   H4670     1.0  0.97010  0.48683  0.48494  1.0000
  C   C2729     1.0  0.95311  0.32359  0.34726  1.0000
  C   C2730     1.0  0.99716  0.24877  0.44660  1.0000
  H   H4671     1.0  0.96042  0.42119  0.42512  1.0000
  H   H4672     1.0  0.99134  0.46525  0.40010  1.0000
  C   C2731     1.0  0.96403  0.46373  0.43003  1.0000
  H   H4673     1.0  0.97099  0.40954  0.45769  1.0000
  H   H4674     1.0  0.97580  0.30591  0.35905  1.0000
  H   H4675     1.0  0.00150  0.26976  0.43920  1.0000
  H   H4676     1.0  0.95855  0.43245  0.45108  1.0000
  H   H4677     1.0  0.92040  0.44249  0.27798  1.0000
  C   C2732     1.0  0.90055  0.44417  0.27040  1.0000
  C   C2733     1.0  0.96545  0.28204  0.42183  1.0000
  C   C2734     1.0  0.96208  0.31508  0.33569  1.0000
  S   S806      1.0  0.90567  0.28079  0.40608  1.0000
  C   C2735     1.0  0.97534  0.37312  0.41256  1.0000
  C   C2736     1.0  0.96189  0.37615  0.40887  1.0000
  C   C2737     1.0  0.95028  0.37068  0.41857  1.0000
  C   C2738     1.0  0.95230  0.36167  0.43173  1.0000
  C   C2739     1.0  0.96620  0.35741  0.43477  1.0000
  C   C2740     1.0  0.97775  0.36316  0.42518  1.0000
  H   H4678     1.0  0.96021  0.38318  0.39876  1.0000
  H   H4679     1.0  0.93959  0.37393  0.41613  1.0000
  H   H4680     1.0  0.96792  0.35022  0.44481  1.0000
  H   H4681     1.0  0.98824  0.36055  0.42797  1.0000
  C   C2741     1.0  0.95907  0.45451  0.41220  1.0000
  C   C2742     1.0  0.97713  0.37753  0.45650  1.0000
  H   H4682     1.0  0.88200  0.34514  0.39771  1.0000
  H   H4683     1.0  0.89351  0.40361  0.25131  1.0000
  C   C2743     1.0  0.99321  0.37644  0.33331  1.0000
  C   C2744     1.0  0.95492  0.45797  0.42565  1.0000
  H   H4684     1.0  0.91724  0.33319  0.41391  1.0000
  H   H4685     1.0  0.98984  0.29267  0.35178  1.0000
  H   H4686     1.0  0.94455  0.45638  0.43262  1.0000
  C   C2745     1.0  0.92441  0.29947  0.44087  1.0000
  C   C2746     1.0  0.92465  0.28617  0.45058  1.0000
  C   C2747     1.0  0.92860  0.28395  0.46366  1.0000
  C   C2748     1.0  0.93258  0.29494  0.46689  1.0000
  C   C2749     1.0  0.93156  0.30842  0.45748  1.0000
  C   C2750     1.0  0.92754  0.31067  0.44451  1.0000
  H   H4687     1.0  0.92174  0.27764  0.44809  1.0000
  H   H4688     1.0  0.97068  0.25018  0.47260  1.0000
  H   H4689     1.0  0.93386  0.31721  0.46012  1.0000
  H   H4690     1.0  0.92704  0.32108  0.43725  1.0000
  C   C2751     1.0  0.93295  0.40642  0.32917  1.0000
  C   C2752     1.0  0.93843  0.41641  0.33246  1.0000
  C   C2753     1.0  0.93810  0.41589  0.34673  1.0000
  C   C2754     1.0  0.93165  0.40583  0.35777  1.0000
  C   C2755     1.0  0.92549  0.39635  0.35452  1.0000
  C   C2756     1.0  0.92638  0.39645  0.34021  1.0000
  H   H4691     1.0  0.94340  0.42420  0.32392  1.0000
  H   H4692     1.0  0.94279  0.42328  0.34922  1.0000
  H   H4693     1.0  0.92027  0.38875  0.36307  1.0000
  H   H4694     1.0  0.92191  0.38888  0.33775  1.0000
  C   C2757     1.0  0.89998  0.38144  0.26173  1.0000
  C   C2758     1.0  0.89894  0.36737  0.26296  1.0000
  C   C2759     1.0  0.89127  0.36464  0.25430  1.0000
  C   C2760     1.0  0.99258  0.26487  0.44685  1.0000
  H   H4695     1.0  0.94619  0.33352  0.34208  1.0000
  H   H4696     1.0  0.93635  0.41926  0.24671  1.0000
  H   H4697     1.0  0.90450  0.35856  0.27010  1.0000
  H   H4698     1.0  0.89089  0.35371  0.25490  1.0000
  C   C2761     1.0  0.97885  0.27288  0.42791  1.0000
  H   H4699     1.0  0.98804  0.29789  0.48106  1.0000
  C   C2762     1.0  0.91183  0.33001  0.34904  1.0000
  C   C2763     1.0  0.92117  0.32153  0.33964  1.0000
  C   C2764     1.0  0.92574  0.30664  0.34467  1.0000
  C   C2765     1.0  0.92153  0.30027  0.35922  1.0000
  C   C2766     1.0  0.91219  0.30877  0.36860  1.0000
  C   C2767     1.0  0.90707  0.32352  0.36343  1.0000
  H   H4700     1.0  0.92467  0.32638  0.32847  1.0000
  H   H4701     1.0  0.93259  0.30007  0.33726  1.0000
  H   H4702     1.0  0.93186  0.39947  0.43826  1.0000
  S   S807      1.0  0.93975  0.29168  0.48207  1.0000
  H   H4703     1.0  0.98877  0.27636  0.42065  1.0000
  H   H4704     1.0  0.96436  0.43949  0.30687  1.0000
  H   H4705     1.0  0.92188  0.39391  0.23804  1.0000
  Fe  Fe402     1.0  0.92511  0.27338  0.38939  1.0000
  C   C2768     1.0  0.97114  0.37167  0.35959  1.0000
  H   H4706     1.0  0.95479  0.28956  0.34548  1.0000
  H   H4707     1.0  0.99872  0.47888  0.31517  1.0000
  C   C2769     1.0  0.98126  0.46308  0.40730  1.0000
  C   C2770     1.0  0.96609  0.26537  0.45272  1.0000
  Fe  Fe403     1.0  0.94674  0.31163  0.48101  1.0000
  H   H4708     1.0  0.89704  0.43341  0.29949  1.0000
  S   S808      1.0  0.98918  0.43271  0.34182  1.0000
  H   H4709     1.0  0.87239  0.26933  0.47728  1.0000
  H   H4710     1.0  0.98801  0.39439  0.44449  1.0000
  H   H4711     1.0  0.98068  0.48709  0.32242  1.0000
  H   H4712     1.0  0.99251  0.27022  0.38240  1.0000
  H   H4713     1.0  0.97192  0.38109  0.46669  1.0000
  C   C2771     1.0  0.98389  0.35167  0.29606  1.0000
  H   H4714     1.0  0.88824  0.41892  0.30125  1.0000
  H   H4715     1.0  0.97003  0.26066  0.39245  1.0000
  H   H4716     1.0  0.99142  0.38440  0.27876  1.0000
  H   H4717     1.0  0.87186  0.42819  0.26044  1.0000
  S   S809      1.0  0.92832  0.28177  0.36541  1.0000
  H   H4718     1.0  0.96529  0.39371  0.34946  1.0000
  C   C2772     1.0  0.98227  0.36562  0.28762  1.0000
  H   H4719     1.0  0.89267  0.33885  0.41098  1.0000
  H   H4720     1.0  0.92896  0.27361  0.47105  1.0000
  H   H4721     1.0  0.94112  0.48582  0.35614  1.0000
  H   H4722     1.0  0.93286  0.40963  0.26489  1.0000
  C   C2773     1.0  0.96336  0.46131  0.30799  1.0000
  C   C2774     1.0  0.89279  0.39272  0.25236  1.0000
  H   H4723     1.0  0.99295  0.26581  0.45756  1.0000
  H   H4724     1.0  0.99459  0.36534  0.33992  1.0000
  Fe  Fe404     1.0  0.94239  0.25411  0.41127  1.0000
  H   H4725     1.0  0.89543  0.32885  0.39748  1.0000
  H   H4726     1.0  0.91138  0.41497  0.25544  1.0000
  H   H4727     1.0  0.94432  0.37212  0.24726  1.0000
  N   N195      1.0  0.96646  0.47040  0.31614  1.0000
  H   H4728     1.0  0.98463  0.39477  0.30137  1.0000
  H   H4729     1.0  0.98210  0.35231  0.33557  1.0000
  H   H4730     1.0  0.94593  0.42806  0.44373  1.0000
  H   H4731     1.0  0.92304  0.36929  0.24055  1.0000
  H   H4732     1.0  0.98748  0.45650  0.31832  1.0000
  H   H4733     1.0  0.99101  0.28702  0.33005  1.0000
  C   C2775     1.0  0.95180  0.42465  0.45250  1.0000
  H   H4734     1.0  0.91203  0.43326  0.24820  1.0000
  H   H4735     1.0  0.94066  0.45907  0.33166  1.0000
  H   H4736     1.0  0.95408  0.31333  0.33072  1.0000
  N   N196      1.0  0.96567  0.40213  0.44180  1.0000
  H   H4737     1.0  0.98802  0.37061  0.45759  1.0000
  H   H4738     1.0  0.98925  0.47033  0.33249  1.0000
  H   H4739     1.0  0.00225  0.48101  0.47398  1.0000
  H   H4740     1.0  0.98046  0.37340  0.36263  1.0000
  H   H4741     1.0  0.94595  0.35387  0.24732  1.0000
  N   N197      1.0  0.91951  0.34378  0.39134  1.0000
  C   C2776     1.0  0.90406  0.34867  0.38922  1.0000
  C   C2777     1.0  0.92805  0.35447  0.38108  1.0000
  C   C2778     1.0  0.91906  0.34364  0.40670  1.0000
  C   C2779     1.0  0.92552  0.32890  0.38841  1.0000
  C   C2780     1.0  0.92845  0.35670  0.36502  1.0000
  C   C2781     1.0  0.93235  0.34684  0.40968  1.0000
  C   C2782     1.0  0.94146  0.32206  0.38937  1.0000
  H   H4742     1.0  0.89956  0.36007  0.39021  1.0000
  H   H4743     1.0  0.90365  0.34848  0.37825  1.0000
  H   H4744     1.0  0.93958  0.35151  0.38204  1.0000
  H   H4745     1.0  0.92355  0.36523  0.38381  1.0000
  H   H4746     1.0  0.90962  0.35186  0.41086  1.0000
  H   H4747     1.0  0.91909  0.32120  0.39605  1.0000
  H   H4748     1.0  0.92447  0.32877  0.37767  1.0000
  H   H4749     1.0  0.93623  0.36361  0.35861  1.0000
  H   H4750     1.0  0.93220  0.34654  0.36127  1.0000
  H   H4751     1.0  0.91772  0.36245  0.36242  1.0000
  H   H4752     1.0  0.93112  0.34491  0.42145  1.0000
  H   H4753     1.0  0.93281  0.35831  0.40527  1.0000
  H   H4754     1.0  0.94286  0.34003  0.40549  1.0000
  H   H4755     1.0  0.94912  0.32851  0.38177  1.0000
  H   H4756     1.0  0.94447  0.31139  0.38656  1.0000
  H   H4757     1.0  0.94283  0.32001  0.40047  1.0000
  H   H4758     1.0  0.99306  0.41149  0.42494  1.0000
  H   H4759     1.0  0.88030  0.42842  0.28129  1.0000
  H   H4760     1.0  0.97299  0.37024  0.28275  1.0000
  H   H4761     1.0  0.96168  0.47365  0.33769  1.0000
  C   C2783     1.0  0.96115  0.40909  0.45448  1.0000
  Fe  Fe405     1.0  0.92229  0.28252  0.41665  1.0000
  C   C2784     1.0  0.88870  0.42502  0.27203  1.0000
  N   N198      1.0  0.90311  0.42832  0.27116  1.0000
  C   C2785     1.0  0.98208  0.30300  0.34870  1.0000
  H   H4762     1.0  0.96361  0.29736  0.31699  1.0000
  H   H4763     1.0  0.99785  0.39792  0.30912  1.0000
  C   C2786     1.0  0.96668  0.48990  0.47461  1.0000
  H   H4764     1.0  0.96739  0.28124  0.41054  1.0000
  S   S810      1.0  0.94143  0.27693  0.39913  1.0000
  C   C2787     1.0  0.94593  0.36470  0.24018  1.0000
  H   H4765     1.0  0.96475  0.26761  0.35843  1.0000
  N   N199      1.0  0.97761  0.38279  0.33212  1.0000
  C   C2788     1.0  0.97316  0.37429  0.32434  1.0000
  C   C2789     1.0  0.97598  0.39809  0.32344  1.0000
  H   H4766     1.0  0.98530  0.47649  0.46400  1.0000
  H   H4767     1.0  0.90441  0.41538  0.30751  1.0000
  C   C2790     1.0  0.93897  0.40566  0.43973  1.0000
  H   H4768     1.0  0.99288  0.33183  0.40147  1.0000
  H   H4769     1.0  0.95131  0.38708  0.45092  1.0000
  H   H4770     1.0  0.95756  0.39004  0.43203  1.0000
  H   H4771     1.0  0.90329  0.47819  0.41489  1.0000
  H   H4772     1.0  0.98107  0.37336  0.31407  1.0000
  H   H4773     1.0  0.97746  0.40543  0.32929  1.0000
  H   H4774     1.0  0.96471  0.40231  0.32171  1.0000
  H   H4775     1.0  0.96354  0.29359  0.42174  1.0000
  H   H4776     1.0  0.96921  0.48708  0.28737  1.0000
  H   H4777     1.0  0.96700  0.25519  0.44960  1.0000
  H   H4778     1.0  0.96247  0.35875  0.34163  1.0000
  H   H4779     1.0  0.95159  0.46406  0.30775  1.0000
  H   H4780     1.0  0.98598  0.30417  0.31927  1.0000
  C   C2791     1.0  0.97937  0.25586  0.39720  1.0000
  H   H4781     1.0  0.97284  0.40666  0.41873  1.0000
  C   C2792     1.0  0.97335  0.28946  0.32004  1.0000
  H   H4782     1.0  0.97091  0.37056  0.45494  1.0000
  H   H4783     1.0  0.91950  0.42021  0.28422  1.0000
  H   H4784     1.0  0.88981  0.41320  0.27386  1.0000
  H   H4785     1.0  0.80469  0.34815  0.24297  1.0000
  C   C2793     1.0  0.98521  0.29737  0.43566  1.0000
  C   C2794     1.0  0.99279  0.37359  0.28528  1.0000
  N   N200      1.0  0.97215  0.30105  0.34064  1.0000
  C   C2795     1.0  0.94341  0.46690  0.33593  1.0000
  C   C2796     1.0  0.88183  0.43219  0.25885  1.0000
  C   C2797     1.0  0.92280  0.48659  0.40439  1.0000
  N   N201      1.0  0.97806  0.27274  0.44326  1.0000
  C   C2798     1.0  0.99150  0.31414  0.34051  1.0000
  C   C2799     1.0  0.89880  0.42209  0.29882  1.0000
  H   H4786     1.0  0.98005  0.26183  0.42666  1.0000
  H   H4787     1.0  0.93368  0.42840  0.26058  1.0000
  H   H4788     1.0  0.97484  0.28770  0.45667  1.0000
  C   C2800     1.0  0.99622  0.34563  0.30202  1.0000
  C   C2801     1.0  0.97982  0.48807  0.46186  1.0000
  H   H4789     1.0  0.89113  0.44778  0.27887  1.0000
  H   H4790     1.0  0.94335  0.42576  0.46249  1.0000
  C   C2802     1.0  0.95384  0.39551  0.44114  1.0000
  H   H4791     1.0  0.96008  0.32702  0.35209  1.0000
  Fe  Fe406     1.0  0.90941  0.25758  0.41786  1.0000
  H   H4792     1.0  0.95402  0.48830  0.36419  1.0000
  C   C2803     1.0  0.86701  0.26174  0.47547  1.0000
  H   H4793     1.0  0.95507  0.40239  0.46395  1.0000
  C   C2804     1.0  0.97189  0.35885  0.33235  1.0000
  H   H4794     1.0  0.97018  0.27936  0.32674  1.0000
  H   H4795     1.0  0.98313  0.42791  0.41628  1.0000
  H   H4796     1.0  0.98876  0.34116  0.38427  1.0000
  C   C2805     1.0  0.95992  0.46640  0.33192  1.0000
  H   H4797     1.0  0.98094  0.42433  0.43526  1.0000
  C   C2806     1.0  0.89311  0.33976  0.39955  1.0000
  C   C2807     1.0  0.97239  0.45680  0.40312  1.0000
  C   C2808     1.0  0.98132  0.29549  0.32756  1.0000
  H   H4798     1.0  0.96174  0.37256  0.36890  1.0000
  C   C2809     1.0  0.90849  0.41918  0.28434  1.0000
  H   H4799     1.0  0.93339  0.40963  0.44966  1.0000
  H   H4800     1.0  0.95636  0.29488  0.36009  1.0000
  H   H4801     1.0  0.99167  0.39317  0.34497  1.0000
  C   C2810     1.0  0.93002  0.42028  0.25766  1.0000
  H   H4802     1.0  0.95531  0.27210  0.45108  1.0000
  C   C2811     1.0  0.99212  0.26117  0.39145  1.0000
  H   H4803     1.0  0.95276  0.47983  0.39294  1.0000
  C   C2812     1.0  0.93283  0.48582  0.37876  1.0000
  C   C2813     1.0  0.94699  0.49126  0.39219  1.0000
  H   H4804     1.0  0.92052  0.45215  0.25959  1.0000
  H   H4805     1.0  0.90950  0.45988  0.27455  1.0000
  H   H4806     1.0  0.93986  0.46391  0.34777  1.0000
  H   H4807     1.0  0.96247  0.37994  0.32144  1.0000
  H   H4808     1.0  0.95961  0.48260  0.47534  1.0000
  H   H4809     1.0  0.80040  0.36656  0.24329  1.0000
  C   C2814     1.0  0.97468  0.28781  0.44554  1.0000
  H   H4810     1.0  0.90986  0.40759  0.28468  1.0000
  C   C2815     1.0  0.96707  0.38329  0.34647  1.0000
  C   C2816     1.0  0.97705  0.46659  0.42075  1.0000
  S   S811      1.0  0.92459  0.26004  0.42971  1.0000
  C   C2817     1.0  0.96972  0.41234  0.42768  1.0000
  C   C2818     1.0  0.91359  0.42439  0.25774  1.0000
  H   H4811     1.0  0.96208  0.44116  0.32471  1.0000
  C   C2819     1.0  0.98274  0.46794  0.31408  1.0000
  H   H4812     1.0  0.98567  0.29865  0.42417  1.0000
  C   C2820     1.0  0.88447  0.37598  0.24460  1.0000
  S   S812      1.0  0.98104  0.42540  0.38451  1.0000
  C   C2821     1.0  0.99985  0.38520  0.33936  1.0000
  H   H4813     1.0  0.88914  0.42949  0.24882  1.0000
  C   C2822     1.0  0.96307  0.29069  0.35050  1.0000
  H   H4814     1.0  0.97551  0.48978  0.45216  1.0000
  H   H4815     1.0  0.95398  0.26281  0.47493  1.0000
  H   H4816     1.0  0.96820  0.32241  0.32702  1.0000
  H   H4817     1.0  0.85912  0.25834  0.48541  1.0000
  H   H4818     1.0  0.93969  0.41475  0.43031  1.0000
  H   H4819     1.0  0.98112  0.34920  0.39934  1.0000
  H   H4820     1.0  0.91306  0.47188  0.39907  1.0000
  H   H4821     1.0  0.98483  0.32508  0.33750  1.0000
  H   H4822     1.0  0.90195  0.48997  0.39790  1.0000
  H   H4823     1.0  0.94554  0.31761  0.35572  1.0000
  C   C2823     1.0  0.96767  0.44485  0.31345  1.0000
  H   H4824     1.0  0.96069  0.46652  0.44038  1.0000
  H   H4825     1.0  0.00097  0.36017  0.38244  1.0000
  C   C2824     1.0  0.88489  0.39005  0.24405  1.0000
  H   H4826     1.0  0.94838  0.48718  0.30968  1.0000
  H   H4827     1.0  0.97027  0.26856  0.47253  1.0000
  H   H4828     1.0  0.89708  0.45053  0.26035  1.0000
  H   H4829     1.0  0.95598  0.38301  0.34587  1.0000
  S   S813      1.0  0.99590  0.32490  0.46690  1.0000
  S   S814      1.0  0.98743  0.47542  0.42570  1.0000
  H   H4830     1.0  0.98085  0.28682  0.31001  1.0000
  H   H4831     1.0  0.99938  0.27323  0.47742  1.0000
  H   H4832     1.0  0.87454  0.24607  0.46209  1.0000
  H   H4833     1.0  0.97413  0.27514  0.36675  1.0000
  H   H4834     1.0  0.97370  0.36060  0.35798  1.0000
  H   H4835     1.0  0.93697  0.47784  0.33236  1.0000
  H   H4836     1.0  0.98928  0.24249  0.45404  1.0000
  C   C2825     1.0  0.98243  0.41932  0.42620  1.0000
  H   H4837     1.0  0.93738  0.47408  0.38218  1.0000
  H   H4838     1.0  0.99635  0.29329  0.43774  1.0000
  H   H4839     1.0  0.97962  0.44089  0.31231  1.0000
  H   H4840     1.0  0.98368  0.41222  0.30337  1.0000
  C   C2826     1.0  0.95978  0.48595  0.31050  1.0000
  S   S815      1.0  0.92980  0.33177  0.48356  1.0000
  H   H4841     1.0  0.00022  0.37518  0.32260  1.0000
  S   S816      1.0  0.92751  0.24981  0.40025  1.0000
  H   H4842     1.0  0.88794  0.25376  0.46328  1.0000
  H   H4843     1.0  0.98833  0.46968  0.30255  1.0000
  C   C2827     1.0  0.99113  0.34242  0.39402  1.0000
  C   C2828     1.0  0.98803  0.47654  0.32156  1.0000
  C   C2829     1.0  0.99766  0.29608  0.47267  1.0000
  H   H4844     1.0  0.92201  0.48646  0.37694  1.0000
  H   H4845     1.0  0.98133  0.30829  0.43792  1.0000
  H   H4846     1.0  0.86039  0.26756  0.46734  1.0000
  C   C2830     1.0  0.98623  0.40062  0.30853  1.0000
  H   H4847     1.0  0.99826  0.31471  0.34751  1.0000
  C   C2831     1.0  0.94228  0.49119  0.36398  1.0000
  C   C2832     1.0  0.97879  0.24423  0.40896  1.0000
  H   H4848     1.0  0.99917  0.31098  0.33079  1.0000
  H   H4849     1.0  0.94311  0.48957  0.41560  1.0000
  S   S817      1.0  0.89154  0.24704  0.43321  1.0000
  S   S818      1.0  0.93590  0.34067  0.51743  1.0000
  Fe  Fe407     1.0  0.97713  0.35231  0.57802  1.0000
  S   S819      1.0  0.96089  0.34511  0.59776  1.0000
  S   S820      1.0  0.97310  0.37357  0.56279  1.0000
  H   H4850     1.0  0.99450  0.29705  0.58394  1.0000
  S   S821      1.0  0.97083  0.35000  0.71078  1.0000
  S   S822      1.0  0.93862  0.29624  0.58741  1.0000
  C   C2833     1.0  0.95119  0.31239  0.66453  1.0000
  C   C2834     1.0  0.94723  0.30145  0.67620  1.0000
  C   C2835     1.0  0.94379  0.28947  0.67398  1.0000
  C   C2836     1.0  0.94463  0.28809  0.66009  1.0000
  C   C2837     1.0  0.95203  0.31099  0.65065  1.0000
  H   H4851     1.0  0.94640  0.30241  0.68694  1.0000
  H   H4852     1.0  0.94024  0.28131  0.68310  1.0000
  H   H4853     1.0  0.94961  0.29801  0.63769  1.0000
  H   H4854     1.0  0.92299  0.34321  0.63820  1.0000
  C   C2838     1.0  0.98398  0.38994  0.66128  1.0000
  C   C2839     1.0  0.99697  0.47817  0.63458  1.0000
  H   H4855     1.0  0.96522  0.29167  0.54069  1.0000
  H   H4856     1.0  0.96358  0.30366  0.55170  1.0000
  H   H4857     1.0  0.97579  0.41026  0.64783  1.0000
  H   H4858     1.0  0.97343  0.38720  0.66576  1.0000
  S   S823      1.0  0.95452  0.32834  0.66655  1.0000
  C   C2840     1.0  0.95352  0.33241  0.59484  1.0000
  C   C2841     1.0  0.94846  0.32201  0.60645  1.0000
  C   C2842     1.0  0.94356  0.31109  0.60416  1.0000
  C   C2843     1.0  0.94361  0.31061  0.59027  1.0000
  C   C2844     1.0  0.94826  0.32131  0.57868  1.0000
  C   C2845     1.0  0.95335  0.33215  0.58095  1.0000
  H   H4859     1.0  0.94877  0.32218  0.61714  1.0000
  H   H4860     1.0  0.93968  0.30306  0.61317  1.0000
  H   H4861     1.0  0.94827  0.32107  0.56792  1.0000
  H   H4862     1.0  0.95714  0.34029  0.57197  1.0000
  C   C2846     1.0  0.94760  0.34972  0.51999  1.0000
  C   C2847     1.0  0.95476  0.35865  0.50829  1.0000
  C   C2848     1.0  0.96941  0.36107  0.52299  1.0000
  C   C2849     1.0  0.96173  0.35278  0.53496  1.0000
  C   C2850     1.0  0.95074  0.34713  0.53347  1.0000
  H   H4863     1.0  0.96450  0.35042  0.54524  1.0000
  H   H4864     1.0  0.94510  0.34035  0.54260  1.0000
  H   H4865     1.0  0.95051  0.29509  0.52421  1.0000
  Fe  Fe408     1.0  0.97362  0.32719  0.71018  1.0000
  H   H4866     1.0  0.90063  0.29692  0.63930  1.0000
  S   S824      1.0  0.96000  0.31401  0.49486  1.0000
  C   C2851     1.0  0.98347  0.45689  0.63120  1.0000
  H   H4867     1.0  0.95181  0.36133  0.49811  1.0000
  S   S825      1.0  0.98890  0.31109  0.72302  1.0000
  C   C2852     1.0  0.90814  0.30441  0.63437  1.0000
  S   S826      1.0  0.93009  0.36606  0.72267  1.0000
  H   H4868     1.0  0.96769  0.40483  0.70630  1.0000
  H   H4869     1.0  0.96302  0.39181  0.60649  1.0000
  C   C2853     1.0  0.90682  0.30958  0.61863  1.0000
  C   C2854     1.0  0.99331  0.32399  0.52033  1.0000
  H   H4870     1.0  0.97481  0.32951  0.50969  1.0000
  H   H4871     1.0  0.90220  0.28691  0.66203  1.0000
  H   H4872     1.0  0.95496  0.31944  0.64155  1.0000
  H   H4873     1.0  0.88185  0.24908  0.49612  1.0000
  H   H4874     1.0  0.96346  0.37273  0.62813  1.0000
  Fe  Fe409     1.0  0.94807  0.35240  0.70893  1.0000
  H   H4875     1.0  0.90952  0.28427  0.55135  1.0000
  H   H4876     1.0  0.89523  0.31332  0.61786  1.0000
  Fe  Fe410     1.0  0.94313  0.26694  0.63674  1.0000
  H   H4877     1.0  0.98038  0.37568  0.72415  1.0000
  H   H4878     1.0  0.98146  0.31037  0.51587  1.0000
  C   C2855     1.0  0.88948  0.32472  0.64325  1.0000
  C   C2856     1.0  0.98530  0.40300  0.65129  1.0000
  H   H4879     1.0  0.99711  0.31501  0.52899  1.0000
  H   H4880     1.0  0.97157  0.28533  0.70183  1.0000
  S   S827      1.0  0.98113  0.33090  0.68643  1.0000
  H   H4881     1.0  0.92735  0.31775  0.63476  1.0000
  H   H4882     1.0  0.97881  0.45085  0.62643  1.0000
  C   C2857     1.0  0.99707  0.46125  0.62036  1.0000
  H   H4883     1.0  0.97988  0.28864  0.63705  1.0000
  S   S828      1.0  0.95899  0.27650  0.61817  1.0000
  H   H4884     1.0  0.91140  0.30036  0.61329  1.0000
  Fe  Fe411     1.0  0.95770  0.33472  0.68566  1.0000
  H   H4885     1.0  0.92168  0.32952  0.65419  1.0000
  H   H4886     1.0  0.91932  0.29762  0.63463  1.0000
  H   H4887     1.0  0.95863  0.39313  0.72096  1.0000
  Fe  Fe412     1.0  0.97661  0.35403  0.68701  1.0000
  C   C2858     1.0  0.99153  0.26778  0.70085  1.0000
  H   H4888     1.0  0.99471  0.34827  0.50268  1.0000
  H   H4889     1.0  0.92992  0.29467  0.51566  1.0000
  C   C2859     1.0  0.99911  0.40622  0.64518  1.0000
  H   H4890     1.0  0.92594  0.27923  0.52964  1.0000
  H   H4891     1.0  0.91805  0.30306  0.65794  1.0000
  C   C2860     1.0  0.91638  0.33532  0.64506  1.0000
  S   S829      1.0  0.98451  0.36655  0.52393  1.0000
  H   H4892     1.0  0.99624  0.32228  0.62830  1.0000
  C   C2861     1.0  0.95791  0.29642  0.54970  1.0000
  H   H4893     1.0  0.97011  0.35503  0.64690  1.0000
  S   S830      1.0  0.99010  0.33999  0.56109  1.0000
  H   H4894     1.0  0.97930  0.37901  0.70617  1.0000
  H   H4895     1.0  0.97595  0.29752  0.61448  1.0000
  H   H4896     1.0  0.97415  0.27407  0.71905  1.0000
  C   C2862     1.0  0.89732  0.29710  0.66578  1.0000
  C   C2863     1.0  0.97947  0.32112  0.51817  1.0000
  H   H4897     1.0  0.91297  0.31796  0.61240  1.0000
  S   S831      1.0  0.99668  0.35550  0.58284  1.0000
  H   H4898     1.0  0.97033  0.40212  0.72430  1.0000
  H   H4899     1.0  0.88500  0.32869  0.65336  1.0000
  C   C2864     1.0  0.98159  0.38382  0.71393  1.0000
  H   H4900     1.0  0.95656  0.28791  0.55960  1.0000
  C   C2865     1.0  0.98452  0.30053  0.59187  1.0000
  H   H4901     1.0  0.99628  0.35543  0.71657  1.0000
  H   H4902     1.0  0.88580  0.30097  0.66482  1.0000
  H   H4903     1.0  0.99287  0.30543  0.67265  1.0000
  N   N202      1.0  0.93365  0.29717  0.54348  1.0000
  C   C2866     1.0  0.97781  0.36065  0.64822  1.0000
  C   C2867     1.0  0.92114  0.30811  0.53799  1.0000
  H   H4904     1.0  0.98914  0.47324  0.64373  1.0000
  C   C2868     1.0  0.92855  0.28720  0.55742  1.0000
  H   H4905     1.0  0.98904  0.25710  0.65710  1.0000
  C   C2869     1.0  0.91156  0.31825  0.54790  1.0000
  H   H4906     1.0  0.99899  0.36488  0.63827  1.0000
  C   C2870     1.0  0.91790  0.27830  0.55757  1.0000
  S   S832      1.0  0.92674  0.26909  0.62379  1.0000
  H   H4907     1.0  0.93735  0.31060  0.55535  1.0000
  H   H4908     1.0  0.91367  0.30304  0.53557  1.0000
  S   S833      1.0  0.95029  0.32888  0.70984  1.0000
  C   C2871     1.0  0.88712  0.33819  0.63108  1.0000
  H   H4909     1.0  0.97177  0.37098  0.65121  1.0000
  H   H4910     1.0  0.93799  0.27912  0.56101  1.0000
  H   H4911     1.0  0.92379  0.29291  0.56637  1.0000
  H   H4912     1.0  0.87523  0.34269  0.63208  1.0000
  H   H4913     1.0  0.98253  0.35377  0.65742  1.0000
  C   C2872     1.0  0.99543  0.31954  0.73253  1.0000
  H   H4914     1.0  0.90218  0.32494  0.54317  1.0000
  H   H4915     1.0  0.90707  0.31230  0.55871  1.0000
  H   H4916     1.0  0.91755  0.32586  0.54867  1.0000
  H   H4917     1.0  0.90529  0.34132  0.64919  1.0000
  H   H4918     1.0  0.97484  0.46646  0.63349  1.0000
  C   C2873     1.0  0.98321  0.38836  0.62514  1.0000
  H   H4919     1.0  0.92387  0.26827  0.55383  1.0000
  H   H4920     1.0  0.97601  0.29554  0.59113  1.0000
  S   S834      1.0  0.00176  0.42096  0.63093  1.0000
  H   H4921     1.0  0.89187  0.34677  0.63183  1.0000
  C   C2874     1.0  0.91626  0.32485  0.63626  1.0000
  H   H4922     1.0  0.88207  0.31791  0.64351  1.0000
  Fe  Fe413     1.0  0.94365  0.27707  0.60501  1.0000
  C   C2875     1.0  0.94903  0.29883  0.64842  1.0000
  C   C2876     1.0  0.96570  0.36426  0.50975  1.0000
  N   N203      1.0  0.90489  0.31590  0.64271  1.0000
  H   H4923     1.0  0.97577  0.37975  0.59556  1.0000
  H   H4924     1.0  0.97768  0.31882  0.61736  1.0000
  H   H4925     1.0  0.92535  0.31497  0.52752  1.0000
  H   H4926     1.0  0.94249  0.27780  0.51631  1.0000
  S   S835      1.0  0.93827  0.27390  0.65788  1.0000
  H   H4927     1.0  0.90356  0.31638  0.66470  1.0000
  H   H4928     1.0  0.99477  0.35171  0.63214  1.0000
  C   C2877     1.0  0.97300  0.37109  0.61906  1.0000
  H   H4929     1.0  0.98456  0.39923  0.60183  1.0000
  Fe  Fe414     1.0  0.96865  0.25417  0.61505  1.0000
  C   C2878     1.0  0.90650  0.30847  0.65781  1.0000
  H   H4930     1.0  0.91538  0.33122  0.62534  1.0000
  H   H4931     1.0  0.91160  0.27531  0.56872  1.0000
  H   H4932     1.0  0.94561  0.31416  0.53676  1.0000
  H   H4933     1.0  0.97269  0.39027  0.63306  1.0000
  H   H4934     1.0  0.89742  0.29439  0.67735  1.0000
  H   H4935     1.0  0.94963  0.27866  0.53710  1.0000
  H   H4936     1.0  0.97098  0.32129  0.52824  1.0000
  H   H4937     1.0  0.96843  0.26759  0.70701  1.0000
  H   H4938     1.0  0.97492  0.35972  0.61833  1.0000
  C   C2879     1.0  0.94275  0.28885  0.53221  1.0000
  Fe  Fe415     1.0  0.98797  0.36175  0.54617  1.0000
  C   C2880     1.0  0.97559  0.27423  0.70757  1.0000
  Fe  Fe416     1.0  0.94414  0.33518  0.49574  1.0000
  Fe  Fe417     1.0  0.99381  0.37589  0.56623  1.0000
  C   C2881     1.0  0.96752  0.38047  0.60564  1.0000
  C   C2882     1.0  0.94313  0.30532  0.54620  1.0000
  C   C2883     1.0  0.93460  0.28497  0.52313  1.0000
  H   H4939     1.0  0.89152  0.33594  0.62026  1.0000
  C   C2884     1.0  0.99025  0.36252  0.63477  1.0000
  S   S836      1.0  0.95358  0.35855  0.68473  1.0000
  H   H4940     1.0  0.97208  0.40923  0.61423  1.0000
  H   H4941     1.0  0.95835  0.37651  0.60472  1.0000
  H   H4942     1.0  0.99161  0.38874  0.63045  1.0000
  N   N204      1.0  0.98629  0.37377  0.62183  1.0000
  H   H4943     1.0  0.99021  0.40772  0.69523  1.0000
  C   C2885     1.0  0.00036  0.39377  0.71846  1.0000
  C   C2886     1.0  0.98279  0.40158  0.61242  1.0000
  H   H4944     1.0  0.98597  0.44971  0.64129  1.0000
  H   H4945     1.0  0.92422  0.24637  0.59199  1.0000
  H   H4946     1.0  0.99391  0.40500  0.71807  1.0000
  C   C2887     1.0  0.96902  0.39689  0.71642  1.0000
  H   H4947     1.0  0.98187  0.30535  0.63952  1.0000
  N   N205      1.0  0.99675  0.38674  0.70873  1.0000
  H   H4948     1.0  0.97146  0.37089  0.50055  1.0000
  H   H4949     1.0  0.98999  0.48706  0.62820  1.0000
  H   H4950     1.0  0.99975  0.31327  0.49582  1.0000
  H   H4951     1.0  0.99291  0.46893  0.61110  1.0000
  C   C2888     1.0  0.00059  0.29478  0.62478  1.0000
  S   S837      1.0  0.99383  0.39632  0.57140  1.0000
  S   S838      1.0  0.99320  0.24801  0.61026  1.0000
  C   C2889     1.0  0.98696  0.29560  0.60729  1.0000
  S   S839      1.0  0.99616  0.36359  0.67683  1.0000
  C   C2890     1.0  0.99648  0.38038  0.66520  1.0000
  H   H4952     1.0  0.98917  0.29758  0.69896  1.0000
  C   C2891     1.0  0.99990  0.25167  0.62315  1.0000
  S   S840      1.0  0.95489  0.25556  0.59989  1.0000
  C   C2892     1.0  0.98908  0.31817  0.61094  1.0000
  C   C2893     1.0  0.99921  0.38584  0.73426  1.0000
  C   C2894     1.0  0.98765  0.29447  0.63785  1.0000
  H   H4953     1.0  0.98061  0.31232  0.58877  1.0000
  H   H4954     1.0  0.99119  0.40744  0.61172  1.0000
  C   C2895     1.0  0.99631  0.32657  0.61677  1.0000
  H   H4955     1.0  0.99682  0.37837  0.59912  1.0000
  C   C2896     1.0  0.99618  0.25595  0.64681  1.0000
  H   H4956     1.0  0.99299  0.39307  0.68723  1.0000
  H   H4957     1.0  0.98505  0.29012  0.67843  1.0000
  H   H4958     1.0  0.00112  0.45359  0.65443  1.0000
  C   C2897     1.0  0.99732  0.39698  0.69426  1.0000
  H   H4959     1.0  0.99290  0.28231  0.72041  1.0000
  C   C2898     1.0  0.99503  0.29376  0.67757  1.0000
  H   H4960     1.0  0.98961  0.33373  0.52491  1.0000
  H   H4961     1.0  0.98805  0.32443  0.59998  1.0000
  H   H4962     1.0  0.98997  0.33781  0.61561  1.0000
  C   C2899     1.0  0.99912  0.37160  0.60942  1.0000
  H   H4963     1.0  0.00227  0.41425  0.58394  1.0000
  H   H4964     1.0  0.99187  0.33823  0.49227  1.0000
  H   H4965     1.0  0.99410  0.25665  0.70733  1.0000
  H   H4966     1.0  0.99192  0.26644  0.69002  1.0000
  H   H4967     1.0  0.00162  0.36041  0.60795  1.0000
  H   H4968     1.0  0.99091  0.28370  0.60954  1.0000
  S   S841      1.0  0.95371  0.24414  0.63448  1.0000
  C   C2900     1.0  0.00040  0.33947  0.49691  1.0000
  H   H4969     1.0  0.97964  0.25215  0.63889  1.0000
  C   C2901     1.0  0.99081  0.25320  0.63647  1.0000
  H   H4970     1.0  0.99182  0.28852  0.64763  1.0000
  N   N206      1.0  0.99687  0.30282  0.61060  1.0000
  Fe  Fe418     1.0  0.93892  0.24724  0.61950  1.0000
  C   C2902     1.0  0.99864  0.29139  0.69231  1.0000
  H   H4971     1.0  0.00286  0.36052  0.72918  1.0000
  N   N207      1.0  0.00262  0.27596  0.70015  1.0000
  C   C2903     1.0  0.00313  0.27570  0.71518  1.0000
  C   C2904     1.0  0.93417  0.37024  0.73703  1.0000
  H   H4972     1.0  0.90724  0.48398  0.85748  1.0000
  H   H4973     1.0  0.98378  0.35697  0.77295  1.0000
  H   H4974     1.0  0.88410  0.38024  0.88688  1.0000
  Fe  Fe419     1.0  0.72589  0.32665  0.94700  1.0000
  S   S842      1.0  0.70388  0.32302  0.94812  1.0000
  S   S843      1.0  0.73620  0.34327  0.92954  1.0000
  Fe  Fe420     1.0  0.70096  0.32003  0.97183  1.0000
  H   H4975     1.0  0.96673  0.35733  0.78500  1.0000
  Fe  Fe421     1.0  0.71436  0.29950  0.95205  1.0000
  S   S844      1.0  0.71259  0.28484  0.93912  1.0000
  S   S845      1.0  0.72190  0.32587  0.97039  1.0000
  S   S846      1.0  0.73673  0.30334  0.94903  1.0000
  S   S847      1.0  0.62002  0.29454  0.92002  1.0000
  C   C2905     1.0  0.99930  0.43516  0.78661  1.0000
  S   S848      1.0  0.59662  0.34937  0.94695  1.0000
  S   S849      1.0  0.90075  0.44291  0.79622  1.0000
  Fe  Fe422     1.0  0.83620  0.37575  0.91824  1.0000
  S   S850      1.0  0.81377  0.38811  0.92616  1.0000
  S   S851      1.0  0.85520  0.37258  0.92808  1.0000
  Fe  Fe423     1.0  0.82771  0.36988  0.89395  1.0000
  S   S852      1.0  0.80440  0.38165  0.89985  1.0000
  S   S853      1.0  0.83424  0.36034  0.87458  1.0000
  Fe  Fe424     1.0  0.81432  0.39791  0.90298  1.0000
  S   S854      1.0  0.80590  0.42142  0.89508  1.0000
  Fe  Fe425     1.0  0.80576  0.37064  0.92253  1.0000
  S   S855      1.0  0.78745  0.36312  0.94040  1.0000
  S   S856      1.0  0.83750  0.38708  0.89522  1.0000
  S   S857      1.0  0.82833  0.35727  0.91646  1.0000
  Fe  Fe426     1.0  0.89602  0.39171  0.81253  1.0000
  S   S858      1.0  0.90354  0.40392  0.79009  1.0000
  S   S859      1.0  0.87625  0.38278  0.81613  1.0000
  Fe  Fe427     1.0  0.92127  0.39468  0.82259  1.0000
  S   S860      1.0  0.93106  0.40676  0.80109  1.0000
  S   S861      1.0  0.93023  0.39141  0.84193  1.0000
  Fe  Fe428     1.0  0.90802  0.41880  0.80080  1.0000
  H   H4976     1.0  0.87376  0.43075  0.91451  1.0000
  Fe  Fe429     1.0  0.92579  0.39074  0.79231  1.0000
  S   S862      1.0  0.94283  0.37883  0.77646  1.0000
  S   S863      1.0  0.89848  0.40774  0.82300  1.0000
  S   S864      1.0  0.91802  0.37748  0.81408  1.0000
  C   C2906     1.0  0.94000  0.45275  0.77623  1.0000
  H   H4977     1.0  0.63038  0.33851  0.97454  1.0000
  S   S865      1.0  0.59084  0.32603  0.98679  1.0000
  C   C2907     1.0  0.78484  0.32307  0.96563  1.0000
  H   H4978     1.0  0.53639  0.35941  0.95798  1.0000
  H   H4979     1.0  0.68641  0.30203  0.88296  1.0000
  H   H4980     1.0  0.90154  0.38450  0.92833  1.0000
  S   S866      1.0  0.63563  0.27099  0.95244  1.0000
  H   H4981     1.0  0.98333  0.34280  0.75489  1.0000
  H   H4982     1.0  0.68758  0.28528  0.91978  1.0000
  H   H4983     1.0  0.98632  0.47749  0.82492  1.0000
  Fe  Fe430     1.0  0.87605  0.42341  0.95706  1.0000
  S   S867      1.0  0.88667  0.43578  0.93613  1.0000
  S   S868      1.0  0.85350  0.42116  0.95845  1.0000
  H   H4984     1.0  0.55024  0.25405  0.91956  1.0000
  S   S869      1.0  0.91467  0.43010  0.95069  1.0000
  Fe  Fe431     1.0  0.89358  0.44624  0.94944  1.0000
  Fe  Fe432     1.0  0.00124  0.45099  0.84097  1.0000
  Fe  Fe433     1.0  0.90668  0.41869  0.93901  1.0000
  S   S870      1.0  0.92053  0.40931  0.92031  1.0000
  H   H4985     1.0  0.98138  0.45804  0.77203  1.0000
  S   S871      1.0  0.89559  0.40528  0.95892  1.0000
  H   H4986     1.0  0.65456  0.29867  0.95644  1.0000
  C   C2908     1.0  0.98299  0.33784  0.78945  1.0000
  Fe  Fe434     1.0  0.98974  0.42560  0.84144  1.0000
  S   S872      1.0  0.97992  0.44921  0.83825  1.0000
  S   S873      1.0  0.98825  0.41402  0.82574  1.0000
  H   H4987     1.0  0.62939  0.37246  0.98608  1.0000
  C   C2909     1.0  0.53522  0.30260  0.98242  1.0000
  Fe  Fe435     1.0  0.97363  0.44456  0.86222  1.0000
  S   S874      1.0  0.95160  0.45514  0.87353  1.0000
  C   C2910     1.0  0.62170  0.37551  0.97890  1.0000
  S   S875      1.0  0.98204  0.42066  0.86536  1.0000
  C   C2911     1.0  0.92773  0.42250  0.90655  1.0000
  C   C2912     1.0  0.93747  0.41862  0.89429  1.0000
  C   C2913     1.0  0.94450  0.42875  0.88389  1.0000
  C   C2914     1.0  0.94184  0.44275  0.88575  1.0000
  C   C2915     1.0  0.93156  0.44681  0.89768  1.0000
  C   C2916     1.0  0.92453  0.43668  0.90811  1.0000
  H   H4988     1.0  0.93979  0.40771  0.89295  1.0000
  H   H4989     1.0  0.95185  0.42573  0.87438  1.0000
  H   H4990     1.0  0.92932  0.45766  0.89912  1.0000
  H   H4991     1.0  0.91693  0.43978  0.91751  1.0000
  H   H4992     1.0  0.97857  0.38533  0.79343  1.0000
  H   H4993     1.0  0.65495  0.29394  0.90356  1.0000
  H   H4994     1.0  0.00268  0.42799  0.79643  1.0000
  H   H4995     1.0  0.87010  0.39343  0.87963  1.0000
  H   H4996     1.0  0.60142  0.40487  0.97480  1.0000
  C   C2917     1.0  0.94654  0.39734  0.83752  1.0000
  C   C2918     1.0  0.94967  0.40328  0.84717  1.0000
  C   C2919     1.0  0.96235  0.40864  0.84352  1.0000
  C   C2920     1.0  0.97213  0.40772  0.83036  1.0000
  C   C2921     1.0  0.96906  0.40167  0.82076  1.0000
  C   C2922     1.0  0.95623  0.39657  0.82429  1.0000
  H   H4997     1.0  0.94219  0.40393  0.85739  1.0000
  H   H4998     1.0  0.96459  0.41336  0.85094  1.0000
  H   H4999     1.0  0.97660  0.40095  0.81059  1.0000
  H   H5000     1.0  0.95393  0.39188  0.81687  1.0000
  C   C2923     1.0  0.93932  0.37607  0.76112  1.0000
  C   C2924     1.0  0.94918  0.36550  0.75426  1.0000
  H   H5001     1.0  0.95671  0.35160  0.80889  1.0000
  H   H5002     1.0  0.99500  0.33394  0.78775  1.0000
  H   H5003     1.0  0.57163  0.27678  0.95665  1.0000
  C   C2925     1.0  0.92696  0.38391  0.75578  1.0000
  H   H5004     1.0  0.85034  0.42467  0.90584  1.0000
  N   N208      1.0  0.78702  0.31147  0.95767  1.0000
  H   H5005     1.0  0.50680  0.32341  0.97666  1.0000
  H   H5006     1.0  0.91934  0.39218  0.76091  1.0000
  H   H5007     1.0  0.87445  0.37544  0.78961  1.0000
  C   C2926     1.0  0.91220  0.46686  0.78840  1.0000
  C   C2927     1.0  0.92357  0.47428  0.78280  1.0000
  S   S876      1.0  0.63579  0.25397  0.92825  1.0000
  H   H5008     1.0  0.90142  0.47238  0.79301  1.0000
  H   H5009     1.0  0.92343  0.38957  0.88555  1.0000
  H   H5010     1.0  0.88895  0.38513  0.78337  1.0000
  C   C2928     1.0  0.88448  0.47565  0.91969  1.0000
  H   H5011     1.0  0.00069  0.37057  0.80602  1.0000
  H   H5012     1.0  0.88366  0.46461  0.92215  1.0000
  H   H5013     1.0  0.67619  0.29661  0.97278  1.0000
  C   C2929     1.0  0.85421  0.38597  0.93690  1.0000
  C   C2930     1.0  0.84335  0.39861  0.93598  1.0000
  C   C2931     1.0  0.84307  0.40934  0.94274  1.0000
  C   C2932     1.0  0.85381  0.40758  0.95022  1.0000
  C   C2933     1.0  0.86471  0.39499  0.95106  1.0000
  C   C2934     1.0  0.86484  0.38416  0.94453  1.0000
  H   H5014     1.0  0.83521  0.40018  0.93003  1.0000
  H   H5015     1.0  0.83464  0.41910  0.94198  1.0000
  H   H5016     1.0  0.87284  0.39340  0.95707  1.0000
  H   H5017     1.0  0.87319  0.37436  0.94540  1.0000
  C   C2935     1.0  0.84609  0.36734  0.85882  1.0000
  C   C2936     1.0  0.85689  0.37410  0.85883  1.0000
  C   C2937     1.0  0.86653  0.37879  0.84585  1.0000
  C   C2938     1.0  0.86508  0.37696  0.83290  1.0000
  C   C2939     1.0  0.85415  0.37042  0.83301  1.0000
  C   C2940     1.0  0.84484  0.36551  0.84587  1.0000
  H   H5018     1.0  0.85809  0.37529  0.86885  1.0000
  H   H5019     1.0  0.87507  0.38369  0.84586  1.0000
  H   H5020     1.0  0.85294  0.36898  0.82309  1.0000
  H   H5021     1.0  0.83660  0.36023  0.84578  1.0000
  C   C2941     1.0  0.81815  0.43075  0.89616  1.0000
  C   C2942     1.0  0.81595  0.44563  0.89100  1.0000
  C   C2943     1.0  0.82637  0.45291  0.89084  1.0000
  C   C2944     1.0  0.83901  0.44532  0.89578  1.0000
  C   C2945     1.0  0.84087  0.43053  0.90152  1.0000
  C   C2946     1.0  0.83047  0.42327  0.90169  1.0000
  H   H5022     1.0  0.80632  0.45150  0.88691  1.0000
  H   H5023     1.0  0.82465  0.46436  0.88677  1.0000
  H   H5024     1.0  0.90893  0.38347  0.88299  1.0000
  H   H5025     1.0  0.83201  0.41188  0.90612  1.0000
  H   H5026     1.0  0.88816  0.39630  0.87359  1.0000
  C   C2947     1.0  0.61349  0.30947  0.92791  1.0000
  C   C2948     1.0  0.61375  0.32317  0.91918  1.0000
  C   C2949     1.0  0.60855  0.33529  0.92519  1.0000
  C   C2950     1.0  0.60289  0.33382  0.93993  1.0000
  C   C2951     1.0  0.60245  0.32010  0.94867  1.0000
  C   C2952     1.0  0.60785  0.30790  0.94268  1.0000
  H   H5027     1.0  0.61803  0.32443  0.90776  1.0000
  H   H5028     1.0  0.60887  0.34586  0.91838  1.0000
  H   H5029     1.0  0.59787  0.31887  0.95999  1.0000
  H   H5030     1.0  0.60748  0.29733  0.94946  1.0000
  H   H5031     1.0  0.92714  0.34162  0.79164  1.0000
  H   H5032     1.0  0.89176  0.42818  0.90345  1.0000
  Fe  Fe436     1.0  0.61894  0.24318  0.94480  1.0000
  H   H5033     1.0  0.66430  0.28666  0.88025  1.0000
  S   S877      1.0  0.86722  0.48660  0.87019  1.0000
  S   S878      1.0  0.74789  0.29041  0.98570  1.0000
  H   H5034     1.0  0.87635  0.42855  0.89683  1.0000
  H   H5035     1.0  0.90879  0.36842  0.92192  1.0000
  H   H5036     1.0  0.62530  0.38011  0.94364  1.0000
  H   H5037     1.0  0.68965  0.34802  0.95973  1.0000
  C   C2953     1.0  0.77292  0.35843  0.93698  1.0000
  C   C2954     1.0  0.76132  0.35509  0.94844  1.0000
  C   C2955     1.0  0.74998  0.35043  0.94628  1.0000
  C   C2956     1.0  0.75008  0.34931  0.93259  1.0000
  C   C2957     1.0  0.76138  0.35320  0.92106  1.0000
  C   C2958     1.0  0.77286  0.35761  0.92325  1.0000
  H   H5038     1.0  0.76124  0.35588  0.95905  1.0000
  H   H5039     1.0  0.74121  0.34766  0.95519  1.0000
  H   H5040     1.0  0.76144  0.35245  0.91043  1.0000
  H   H5041     1.0  0.78175  0.36016  0.91437  1.0000
  C   C2959     1.0  0.70101  0.27276  0.94315  1.0000
  H   H5042     1.0  0.95070  0.44731  0.77134  1.0000
  H   H5043     1.0  0.87625  0.48116  0.90047  1.0000
  C   C2960     1.0  0.68265  0.25475  0.94446  1.0000
  C   C2961     1.0  0.67692  0.26703  0.95033  1.0000
  C   C2962     1.0  0.68613  0.27601  0.94971  1.0000
  H   H5044     1.0  0.98493  0.44360  0.80999  1.0000
  H   H5045     1.0  0.52381  0.25084  0.88454  1.0000
  H   H5046     1.0  0.66543  0.26967  0.95515  1.0000
  H   H5047     1.0  0.68166  0.28574  0.95364  1.0000
  Fe  Fe437     1.0  0.58706  0.34658  0.97057  1.0000
  H   H5048     1.0  0.95872  0.35934  0.75836  1.0000
  C   C2963     1.0  0.67960  0.27061  0.90575  1.0000
  H   H5049     1.0  0.51879  0.36893  0.95377  1.0000
  C   C2964     1.0  0.66807  0.26500  0.90240  1.0000
  C   C2965     1.0  0.65849  0.29073  0.92444  1.0000
  H   H5050     1.0  0.67981  0.26611  0.91721  1.0000
  H   H5051     1.0  0.78860  0.27463  0.97224  1.0000
  H   H5052     1.0  0.54417  0.28427  0.92426  1.0000
  H   H5053     1.0  0.72716  0.36573  0.97805  1.0000
  H   H5054     1.0  0.67147  0.26308  0.89138  1.0000
  H   H5055     1.0  0.65700  0.27191  0.90404  1.0000
  H   H5056     1.0  0.66689  0.25460  0.91004  1.0000
  S   S879      1.0  0.99399  0.44896  0.86460  1.0000
  H   H5057     1.0  0.61310  0.42303  0.96020  1.0000
  N   N209      1.0  0.64633  0.30900  0.97441  1.0000
  H   H5058     1.0  0.86887  0.35329  0.79774  1.0000
  H   H5059     1.0  0.63556  0.32892  0.95199  1.0000
  C   C2966     1.0  0.93745  0.46724  0.77658  1.0000
  C   C2967     1.0  0.64241  0.33643  0.97254  1.0000
  H   H5060     1.0  0.94223  0.40835  0.93906  1.0000
  H   H5061     1.0  0.98262  0.48227  0.76395  1.0000
  N   N210      1.0  0.61467  0.39540  0.95717  1.0000
  H   H5062     1.0  0.77891  0.28474  0.95876  1.0000
  C   C2968     1.0  0.62066  0.40739  0.94606  1.0000
  H   H5063     1.0  0.91505  0.38429  0.91167  1.0000
  C   C2969     1.0  0.62262  0.41939  0.95192  1.0000
  C   C2970     1.0  0.94974  0.39770  0.93875  1.0000
  H   H5064     1.0  0.77139  0.31654  0.98714  1.0000
  H   H5065     1.0  0.61388  0.41270  0.93806  1.0000
  H   H5066     1.0  0.60112  0.24915  0.91735  1.0000
  H   H5067     1.0  0.89840  0.33334  0.79183  1.0000
  H   H5068     1.0  0.52794  0.33647  0.96701  1.0000
  H   H5069     1.0  0.62420  0.42886  0.94301  1.0000
  C   C2971     1.0  0.51943  0.34662  0.96629  1.0000
  N   N211      1.0  0.91196  0.45580  0.83246  1.0000
  C   C2972     1.0  0.89777  0.45453  0.83026  1.0000
  C   C2973     1.0  0.92418  0.44676  0.82354  1.0000
  C   C2974     1.0  0.91288  0.47143  0.82719  1.0000
  C   C2975     1.0  0.91174  0.45076  0.84825  1.0000
  C   C2976     1.0  0.88376  0.46391  0.83760  1.0000
  C   C2977     1.0  0.92430  0.43063  0.82718  1.0000
  C   C2978     1.0  0.92822  0.47471  0.82271  1.0000
  C   C2979     1.0  0.92593  0.44905  0.85299  1.0000
  H   H5070     1.0  0.89780  0.45731  0.81863  1.0000
  H   H5071     1.0  0.89625  0.44330  0.83422  1.0000
  H   H5072     1.0  0.93506  0.44752  0.82405  1.0000
  H   H5073     1.0  0.92391  0.45087  0.81203  1.0000
  H   H5074     1.0  0.90813  0.47637  0.81753  1.0000
  H   H5075     1.0  0.90621  0.47776  0.83533  1.0000
  H   H5076     1.0  0.90336  0.45839  0.85429  1.0000
  H   H5077     1.0  0.90798  0.44049  0.85285  1.0000
  H   H5078     1.0  0.88382  0.47550  0.83415  1.0000
  H   H5079     1.0  0.87425  0.46263  0.83449  1.0000
  H   H5080     1.0  0.88174  0.46060  0.84945  1.0000
  H   H5081     1.0  0.93459  0.42504  0.82099  1.0000
  H   H5082     1.0  0.92393  0.42568  0.83867  1.0000
  H   H5083     1.0  0.91533  0.42859  0.82386  1.0000
  H   H5084     1.0  0.62955  0.29685  0.96388  1.0000
  H   H5085     1.0  0.93427  0.47163  0.81240  1.0000
  H   H5086     1.0  0.96140  0.46618  0.79845  1.0000
  H   H5087     1.0  0.92666  0.45929  0.85484  1.0000
  H   H5088     1.0  0.93600  0.44481  0.84566  1.0000
  H   H5089     1.0  0.92594  0.44088  0.86322  1.0000
  H   H5090     1.0  0.97877  0.42769  0.79446  1.0000
  H   H5091     1.0  0.76914  0.33538  0.98051  1.0000
  Fe  Fe438     1.0  0.84842  0.47752  0.88466  1.0000
  H   H5092     1.0  0.53819  0.24939  0.91215  1.0000
  N   N212      1.0  0.98271  0.36279  0.79263  1.0000
  H   H5093     1.0  0.63154  0.40300  0.93966  1.0000
  H   H5094     1.0  0.92711  0.48649  0.82080  1.0000
  H   H5095     1.0  0.55898  0.27877  0.94622  1.0000
  H   H5096     1.0  0.80670  0.48571  0.95858  1.0000
  C   C2980     1.0  0.80200  0.31048  0.94790  1.0000
  C   C2981     1.0  0.99105  0.46012  0.77406  1.0000
  H   H5097     1.0  0.76478  0.31243  0.95703  1.0000
  C   C2982     1.0  0.98753  0.42885  0.78461  1.0000
  H   H5098     1.0  0.95332  0.39951  0.91609  1.0000
  H   H5099     1.0  0.97808  0.36632  0.81408  1.0000
  C   C2983     1.0  0.84659  0.45705  0.96595  1.0000
  H   H5100     1.0  0.81473  0.32198  0.92863  1.0000
  H   H5101     1.0  0.99370  0.37887  0.76673  1.0000
  H   H5102     1.0  0.59212  0.39075  0.94576  1.0000
  H   H5103     1.0  0.85334  0.46367  0.96724  1.0000
  H   H5104     1.0  0.77228  0.32707  0.94554  1.0000
  C   C2984     1.0  0.58889  0.41266  0.95874  1.0000
  C   C2985     1.0  0.99091  0.33554  0.74853  1.0000
  C   C2986     1.0  0.69757  0.25138  0.93841  1.0000
  C   C2987     1.0  0.54076  0.24898  0.92244  1.0000
  C   C2988     1.0  0.62540  0.38841  0.96676  1.0000
  C   C2989     1.0  0.92873  0.44527  0.78208  1.0000
  H   H5105     1.0  0.78476  0.33372  0.95811  1.0000
  H   H5106     1.0  0.93076  0.43416  0.78159  1.0000
  H   H5107     1.0  0.97780  0.33390  0.80077  1.0000
  H   H5108     1.0  0.95310  0.37041  0.80911  1.0000
  H   H5109     1.0  0.80653  0.33215  0.94210  1.0000
  C   C2990     1.0  0.95965  0.35959  0.81278  1.0000
  H   H5110     1.0  0.66485  0.29401  0.93009  1.0000
  H   H5111     1.0  0.64385  0.25312  0.97821  1.0000
  H   H5112     1.0  0.83652  0.44849  0.94229  1.0000
  Fe  Fe439     1.0  0.64735  0.25034  0.94596  1.0000
  C   C2991     1.0  0.90422  0.48809  0.86738  1.0000
  H   H5113     1.0  0.94228  0.44239  0.96229  1.0000
  H   H5114     1.0  0.56531  0.32360  0.97563  1.0000
  H   H5115     1.0  0.74149  0.42583  0.94465  1.0000
  H   H5116     1.0  0.55270  0.25047  0.94382  1.0000
  C   C2992     1.0  0.96142  0.42246  0.91979  1.0000
  H   H5117     1.0  0.52684  0.29676  0.98434  1.0000
  H   H5118     1.0  0.99959  0.43636  0.89206  1.0000
  H   H5119     1.0  0.93603  0.46778  0.96299  1.0000
  C   C2993     1.0  0.96714  0.45473  0.79954  1.0000
  H   H5120     1.0  0.96587  0.45071  0.79082  1.0000
  H   H5121     1.0  0.89726  0.48121  0.87558  1.0000
  H   H5122     1.0  0.62651  0.39626  0.97220  1.0000
  H   H5123     1.0  0.71801  0.25787  0.93234  1.0000
  H   H5124     1.0  0.66346  0.30664  0.90513  1.0000
  H   H5125     1.0  0.99743  0.39379  0.74080  1.0000
  H   H5126     1.0  0.97414  0.33110  0.74136  1.0000
  H   H5127     1.0  0.96067  0.44538  0.91285  1.0000
  H   H5128     1.0  0.82646  0.45909  0.95995  1.0000
  H   H5129     1.0  0.66130  0.32051  0.97610  1.0000
  C   C2994     1.0  0.65332  0.29481  0.98296  1.0000
  H   H5130     1.0  0.98165  0.38389  0.90374  1.0000
  H   H5131     1.0  0.87768  0.33770  0.80907  1.0000
  Fe  Fe440     1.0  0.62288  0.27377  0.93619  1.0000
  H   H5132     1.0  0.91500  0.39861  0.87093  1.0000
  H   H5133     1.0  0.92150  0.48548  0.78303  1.0000
  C   C2995     1.0  0.51445  0.25034  0.89394  1.0000
  Fe  Fe441     1.0  0.64663  0.40548  0.98362  1.0000
  H   H5134     1.0  0.96633  0.38601  0.92456  1.0000
  Fe  Fe442     1.0  0.73104  0.30229  0.97264  1.0000
  C   C2996     1.0  0.80468  0.32447  0.93693  1.0000
  H   H5135     1.0  0.85522  0.48199  0.94790  1.0000
  H   H5136     1.0  0.58807  0.42307  0.96132  1.0000
  C   C2997     1.0  0.97863  0.35432  0.78457  1.0000
  C   C2998     1.0  0.88637  0.46803  0.98465  1.0000
  H   H5137     1.0  0.99822  0.48020  0.77080  1.0000
  C   C2999     1.0  0.65286  0.30946  0.95869  1.0000
  C   C3000     1.0  0.78655  0.29756  0.96866  1.0000
  H   H5138     1.0  0.90256  0.45611  0.97055  1.0000
  C   C3001     1.0  0.66367  0.29492  0.90806  1.0000
  C   C3002     1.0  0.64394  0.32009  0.94791  1.0000
  S   S880      1.0  0.65920  0.39536  0.96494  1.0000
  H   H5139     1.0  0.99664  0.38855  0.90756  1.0000
  H   H5140     1.0  0.98316  0.46249  0.80427  1.0000
  H   H5141     1.0  0.90512  0.35586  0.74944  1.0000
  C   C3003     1.0  0.60364  0.38874  0.93975  1.0000
  H   H5142     1.0  0.91094  0.33832  0.80540  1.0000
  H   H5143     1.0  0.66393  0.31183  0.95571  1.0000
  H   H5144     1.0  0.70101  0.34923  0.98650  1.0000
  H   H5145     1.0  0.73501  0.43891  0.93020  1.0000
  H   H5146     1.0  0.74551  0.38746  0.95874  1.0000
  H   H5147     1.0  0.85350  0.44922  0.95947  1.0000
  H   H5148     1.0  0.62395  0.32004  0.97283  1.0000
  C   C3004     1.0  0.78841  0.28408  0.96307  1.0000
  H   H5149     1.0  0.96873  0.43612  0.89872  1.0000
  H   H5150     1.0  0.92068  0.35077  0.80588  1.0000
  H   H5151     1.0  0.91917  0.34004  0.75001  1.0000
  H   H5152     1.0  0.88174  0.35432  0.80706  1.0000
  H   H5153     1.0  0.65151  0.32520  0.93855  1.0000
  H   H5154     1.0  0.93474  0.46947  0.83092  1.0000
  H   H5155     1.0  0.96106  0.44889  0.80965  1.0000
  N   N213      1.0  0.57620  0.29437  0.92028  1.0000
  C   C3005     1.0  0.58151  0.30812  0.91313  1.0000
  C   C3006     1.0  0.58727  0.28247  0.91402  1.0000
  C   C3007     1.0  0.57585  0.29141  0.93604  1.0000
  C   C3008     1.0  0.56119  0.29643  0.91773  1.0000
  C   C3009     1.0  0.57333  0.32131  0.91968  1.0000
  C   C3010     1.0  0.58995  0.28450  0.89766  1.0000
  C   C3011     1.0  0.57068  0.27783  0.94554  1.0000
  C   C3012     1.0  0.55593  0.28274  0.91892  1.0000
  H   H5156     1.0  0.59320  0.30652  0.91307  1.0000
  H   H5157     1.0  0.58092  0.31144  0.90165  1.0000
  H   H5158     1.0  0.58443  0.27190  0.91886  1.0000
  H   H5159     1.0  0.59803  0.28110  0.91657  1.0000
  H   H5160     1.0  0.58683  0.29085  0.93763  1.0000
  H   H5161     1.0  0.56841  0.30032  0.94087  1.0000
  H   H5162     1.0  0.55286  0.30275  0.92512  1.0000
  H   H5163     1.0  0.56054  0.30303  0.90677  1.0000
  H   H5164     1.0  0.56132  0.32291  0.92175  1.0000
  H   H5165     1.0  0.57664  0.32051  0.92970  1.0000
  H   H5166     1.0  0.57643  0.33112  0.91212  1.0000
  H   H5167     1.0  0.70086  0.38053  0.96428  1.0000
  H   H5168     1.0  0.57968  0.28714  0.89395  1.0000
  H   H5169     1.0  0.59630  0.29289  0.89192  1.0000
  C   C3013     1.0  0.98298  0.45279  0.80085  1.0000
  H   H5170     1.0  0.94271  0.38994  0.94095  1.0000
  C   C3014     1.0  0.66494  0.37675  0.97064  1.0000
  H   H5171     1.0  0.99256  0.41780  0.78286  1.0000
  H   H5172     1.0  0.97498  0.40438  0.93985  1.0000
  C   C3015     1.0  0.99381  0.41010  0.92485  1.0000
  N   N214      1.0  0.83667  0.42269  0.84974  1.0000
  C   C3016     1.0  0.83025  0.41102  0.84852  1.0000
  C   C3017     1.0  0.84570  0.42786  0.83513  1.0000
  C   C3018     1.0  0.82415  0.43481  0.85371  1.0000
  C   C3019     1.0  0.84541  0.41652  0.86122  1.0000
  C   C3020     1.0  0.81907  0.40530  0.86179  1.0000
  C   C3021     1.0  0.85831  0.41634  0.82907  1.0000
  C   C3022     1.0  0.82807  0.44858  0.85422  1.0000
  C   C3023     1.0  0.85734  0.42422  0.86072  1.0000
  H   H5173     1.0  0.82482  0.41471  0.83929  1.0000
  H   H5174     1.0  0.83896  0.40143  0.84629  1.0000
  H   H5175     1.0  0.85057  0.43675  0.83478  1.0000
  H   H5176     1.0  0.83865  0.43255  0.82718  1.0000
  H   H5177     1.0  0.81672  0.43804  0.84615  1.0000
  H   H5178     1.0  0.81740  0.43133  0.86452  1.0000
  H   H5179     1.0  0.83801  0.41602  0.87204  1.0000
  H   H5180     1.0  0.85108  0.40516  0.86092  1.0000
  H   H5181     1.0  0.80850  0.41319  0.86316  1.0000
  H   H5182     1.0  0.81686  0.39547  0.86037  1.0000
  H   H5183     1.0  0.82317  0.40220  0.87172  1.0000
  H   H5184     1.0  0.86548  0.42164  0.81944  1.0000
  H   H5185     1.0  0.86513  0.41012  0.83686  1.0000
  H   H5186     1.0  0.85421  0.40891  0.82550  1.0000
  H   H5187     1.0  0.83410  0.45381  0.84376  1.0000
  H   H5188     1.0  0.83406  0.44661  0.86272  1.0000
  H   H5189     1.0  0.81781  0.45652  0.85711  1.0000
  H   H5190     1.0  0.85674  0.42509  0.87175  1.0000
  H   H5191     1.0  0.85659  0.43523  0.85409  1.0000
  H   H5192     1.0  0.86836  0.41765  0.85718  1.0000
  N   N215      1.0  0.76237  0.40774  0.92643  1.0000
  C   C3024     1.0  0.76438  0.39747  0.91703  1.0000
  C   C3025     1.0  0.75985  0.39943  0.94179  1.0000
  C   C3026     1.0  0.77622  0.41329  0.92247  1.0000
  C   C3027     1.0  0.74953  0.41986  0.92358  1.0000
  C   C3028     1.0  0.76808  0.40365  0.90070  1.0000
  H   H5193     1.0  0.64733  0.33960  0.96099  1.0000
  C   C3029     1.0  0.78082  0.41686  0.93443  1.0000
  C   C3030     1.0  0.97689  0.37854  0.78712  1.0000
  H   H5194     1.0  0.77323  0.38788  0.91947  1.0000
  S   S881      1.0  0.53801  0.30509  0.95361  1.0000
  H   H5195     1.0  0.81052  0.30711  0.95432  1.0000
  H   H5196     1.0  0.97515  0.38378  0.76470  1.0000
  H   H5197     1.0  0.78582  0.40526  0.91825  1.0000
  H   H5198     1.0  0.77577  0.42302  0.91356  1.0000
  H   H5199     1.0  0.75186  0.42620  0.91238  1.0000
  H   H5200     1.0  0.70915  0.28736  0.89041  1.0000
  H   H5201     1.0  0.88217  0.47583  0.97552  1.0000
  H   H5202     1.0  0.75865  0.41159  0.89701  1.0000
  H   H5203     1.0  0.93791  0.44415  0.98038  1.0000
  H   H5204     1.0  0.75442  0.39329  0.91908  1.0000
  S   S882      1.0  0.83276  0.48979  0.87057  1.0000
  H   H5205     1.0  0.51515  0.25748  0.90036  1.0000
  H   H5206     1.0  0.77212  0.42425  0.94033  1.0000
  H   H5207     1.0  0.79024  0.42212  0.92953  1.0000
  H   H5208     1.0  0.78463  0.40690  0.94213  1.0000
  C   C3031     1.0  0.77497  0.31528  0.94967  1.0000
  H   H5209     1.0  0.61330  0.29994  0.97734  1.0000
  Fe  Fe443     1.0  0.51674  0.29877  0.95738  1.0000
  N   N216      1.0  0.88915  0.39893  0.90205  1.0000
  C   C3032     1.0  0.88318  0.40854  0.91271  1.0000
  C   C3033     1.0  0.89296  0.38368  0.91040  1.0000
  C   C3034     1.0  0.87687  0.40025  0.89506  1.0000
  C   C3035     1.0  0.90206  0.40386  0.89129  1.0000
  C   C3036     1.0  0.88119  0.42487  0.90633  1.0000
  C   C3037     1.0  0.90531  0.38027  0.91842  1.0000
  C   C3038     1.0  0.88030  0.39198  0.88316  1.0000
  C   C3039     1.0  0.91273  0.39309  0.88242  1.0000
  H   H5210     1.0  0.87249  0.40651  0.91956  1.0000
  H   H5211     1.0  0.89034  0.40627  0.92028  1.0000
  H   H5212     1.0  0.89599  0.37577  0.90360  1.0000
  H   H5213     1.0  0.88321  0.38077  0.91846  1.0000
  H   H5214     1.0  0.86742  0.39669  0.90330  1.0000
  H   H5215     1.0  0.87257  0.41160  0.89014  1.0000
  H   H5216     1.0  0.89827  0.41388  0.88360  1.0000
  H   H5217     1.0  0.90877  0.40688  0.89685  1.0000
  C   C3040     1.0  0.77809  0.30882  0.93641  1.0000
  H   H5218     1.0  0.97881  0.43485  0.91189  1.0000
  C   C3041     1.0  0.70566  0.28331  0.90210  1.0000
  H   H5219     1.0  0.91440  0.36697  0.78347  1.0000
  C   C3042     1.0  0.88237  0.37967  0.78015  1.0000
  C   C3043     1.0  0.52658  0.35839  0.95521  1.0000
  H   H5220     1.0  0.69147  0.28403  0.88077  1.0000
  C   C3044     1.0  0.70661  0.26039  0.93759  1.0000
  H   H5221     1.0  0.92357  0.47572  0.87492  1.0000
  H   H5222     1.0  0.59662  0.27432  0.89456  1.0000
  H   H5223     1.0  0.67476  0.29756  0.86599  1.0000
  C   C3045     1.0  0.62538  0.29771  0.97520  1.0000
  C   C3046     1.0  0.68087  0.35399  0.96654  1.0000
  C   C3047     1.0  0.91481  0.45230  0.78817  1.0000
  H   H5224     1.0  0.57738  0.26785  0.94217  1.0000
  C   C3048     1.0  0.88033  0.48503  0.90735  1.0000
  H   H5225     1.0  0.59090  0.41405  0.94704  1.0000
  H   H5226     1.0  0.81850  0.47336  0.93869  1.0000
  H   H5227     1.0  0.77070  0.39475  0.89508  1.0000
  S   S883      1.0  0.60526  0.26342  0.95170  1.0000
  C   C3049     1.0  0.87933  0.34779  0.80108  1.0000
  C   C3050     1.0  0.92446  0.38105  0.74372  1.0000
  H   H5228     1.0  0.63650  0.38470  0.96033  1.0000
  H   H5229     1.0  0.87596  0.38813  0.77296  1.0000
  H   H5230     1.0  0.58752  0.25004  0.89928  1.0000
  C   C3051     1.0  0.74620  0.39289  0.94727  1.0000
  C   C3052     1.0  0.90917  0.34560  0.75663  1.0000
  H   H5231     1.0  0.69029  0.26496  0.90019  1.0000
  S   S884      1.0  0.95181  0.47627  0.76906  1.0000
  N   N217      1.0  0.91388  0.46919  0.97584  1.0000
  C   C3053     1.0  0.64942  0.32087  0.97899  1.0000
  H   H5232     1.0  0.79412  0.32111  0.97083  1.0000
  S   S885      1.0  0.63407  0.42833  0.98099  1.0000
  N   N218      1.0  0.90082  0.35494  0.78014  1.0000
  C   C3054     1.0  0.91707  0.34657  0.79859  1.0000
  H   H5233     1.0  0.96485  0.38093  0.78874  1.0000
  H   H5234     1.0  0.98292  0.43500  0.77516  1.0000
  S   S886      1.0  0.85290  0.45388  0.89440  1.0000
  C   C3055     1.0  0.77067  0.32513  0.97731  1.0000
  H   H5235     1.0  0.75886  0.40618  0.94931  1.0000
  N   N219      1.0  0.67850  0.28663  0.90184  1.0000
  H   H5236     1.0  0.68082  0.37418  0.95106  1.0000
  H   H5237     1.0  0.89960  0.37394  0.76294  1.0000
  S   S887      1.0  0.70973  0.29622  0.97595  1.0000
  C   C3056     1.0  0.67591  0.36882  0.96165  1.0000
  C   C3057     1.0  0.97622  0.35899  0.80848  1.0000
  H   H5238     1.0  0.63864  0.31425  0.94357  1.0000
  H   H5239     1.0  0.98296  0.39593  0.76926  1.0000
  C   C3058     1.0  0.63013  0.30984  0.97829  1.0000
  C   C3059     1.0  0.68945  0.28963  0.90804  1.0000
  H   H5240     1.0  0.85884  0.46259  0.93733  1.0000
  H   H5241     1.0  0.74680  0.38450  0.94168  1.0000
  H   H5242     1.0  0.55953  0.31852  0.95529  1.0000
  C   C3060     1.0  0.90753  0.35910  0.78984  1.0000
  H   H5243     1.0  0.92164  0.35469  0.76492  1.0000
  H   H5244     1.0  0.89926  0.36488  0.79763  1.0000
  H   H5245     1.0  0.99364  0.39344  0.88987  1.0000
  C   C3061     1.0  0.91324  0.34809  0.76947  1.0000
  H   H5246     1.0  0.91902  0.33742  0.77473  1.0000
  S   S888      1.0  0.56322  0.35292  0.98014  1.0000
  H   H5247     1.0  0.57784  0.41031  0.96326  1.0000
  C   C3062     1.0  0.59995  0.40059  0.96626  1.0000
  H   H5248     1.0  0.62308  0.36587  0.97478  1.0000
  C   C3063     1.0  0.94655  0.36249  0.74239  1.0000
  S   S889      1.0  0.51563  0.28078  0.94851  1.0000
  H   H5249     1.0  0.95622  0.35697  0.82465  1.0000
  C   C3064     1.0  0.89215  0.36816  0.77189  1.0000
  H   H5250     1.0  0.90116  0.33869  0.76001  1.0000
  H   H5251     1.0  0.97933  0.33284  0.78282  1.0000
  H   H5252     1.0  0.55661  0.28123  0.90812  1.0000
  H   H5253     1.0  0.99860  0.41238  0.91327  1.0000
  H   H5254     1.0  0.70822  0.27139  0.90479  1.0000
  Fe  Fe444     1.0  0.90161  0.41833  0.97056  1.0000
  S   S890      1.0  0.88112  0.43547  0.97038  1.0000
  H   H5255     1.0  0.79876  0.28185  0.95513  1.0000
  C   C3065     1.0  0.92682  0.46234  0.96563  1.0000
  H   H5256     1.0  0.95561  0.39441  0.94755  1.0000
  C   C3066     1.0  0.93323  0.44619  0.97091  1.0000
  C   C3067     1.0  0.89158  0.34409  0.78814  1.0000
  H   H5257     1.0  0.88504  0.36513  0.76679  1.0000
  H   H5258     1.0  0.76084  0.32571  0.97358  1.0000
  C   C3068     1.0  0.55697  0.31767  0.97761  1.0000
  H   H5259     1.0  0.78609  0.29847  0.93656  1.0000
  C   C3069     1.0  0.71105  0.37235  0.96560  1.0000
  Fe  Fe445     1.0  0.61961  0.25833  0.96730  1.0000
  C   C3070     1.0  0.67002  0.29549  0.87770  1.0000
  H   H5260     1.0  0.51155  0.34463  0.96139  1.0000
  H   H5261     1.0  0.88610  0.34203  0.78080  1.0000
  H   H5262     1.0  0.83670  0.45778  0.92396  1.0000
  C   C3071     1.0  0.84415  0.48686  0.94565  1.0000
  S   S891      1.0  0.68072  0.32870  0.98680  1.0000
  H   H5263     1.0  0.76776  0.30691  0.93556  1.0000
  H   H5264     1.0  0.95094  0.42405  0.91669  1.0000
  C   C3072     1.0  0.96022  0.39736  0.92395  1.0000
  H   H5265     1.0  0.60501  0.37966  0.93469  1.0000
  C   C3073     1.0  0.74474  0.43083  0.93315  1.0000
  H   H5266     1.0  0.56150  0.27269  0.92514  1.0000
  H   H5267     1.0  0.61092  0.37472  0.95779  1.0000
  H   H5268     1.0  0.85050  0.47350  0.92365  1.0000
  H   H5269     1.0  0.68824  0.30143  0.90652  1.0000
  S   S892      1.0  0.67180  0.24377  0.94323  1.0000
  H   H5270     1.0  0.66196  0.30546  0.87985  1.0000
  H   H5271     1.0  0.77774  0.40854  0.89720  1.0000
  H   H5272     1.0  0.76947  0.39049  0.94345  1.0000
  C   C3074     1.0  0.98799  0.47644  0.77302  1.0000
  H   H5273     1.0  0.73987  0.41557  0.92453  1.0000
  C   C3075     1.0  0.98799  0.39224  0.90135  1.0000
  H   H5274     1.0  0.92390  0.46351  0.95525  1.0000
  C   C3076     1.0  0.68234  0.29195  0.88578  1.0000
  C   C3077     1.0  0.61421  0.38421  0.94986  1.0000
  H   H5275     1.0  0.65302  0.28563  0.97879  1.0000
  H   H5276     1.0  0.95834  0.42399  0.93098  1.0000
  C   C3078     1.0  0.88934  0.48072  0.92886  1.0000
  C   C3079     1.0  0.96803  0.43526  0.91023  1.0000
  H   H5277     1.0  0.93827  0.47987  0.85178  1.0000
  C   C3080     1.0  0.82351  0.48194  0.93914  1.0000
  N   N220      1.0  0.97050  0.40751  0.91903  1.0000
  C   C3081     1.0  0.98089  0.40269  0.92895  1.0000
  S   S893      1.0  0.89355  0.46971  0.94497  1.0000
  H   H5278     1.0  0.96997  0.40996  0.89696  1.0000
  H   H5279     1.0  0.80466  0.30204  0.94176  1.0000
  H   H5280     1.0  0.98516  0.41479  0.89883  1.0000
  C   C3082     1.0  0.84306  0.45407  0.93245  1.0000
  H   H5281     1.0  0.52855  0.36115  0.98084  1.0000
  C   C3083     1.0  0.97815  0.40688  0.90373  1.0000
  H   H5282     1.0  0.82684  0.47312  0.96723  1.0000
  H   H5283     1.0  0.77590  0.29831  0.97644  1.0000
  H   H5284     1.0  0.98173  0.34804  0.81345  1.0000
  H   H5285     1.0  0.98536  0.39087  0.93081  1.0000
  N   N221      1.0  0.83726  0.47546  0.94470  1.0000
  C   C3084     1.0  0.84797  0.46667  0.93454  1.0000
  H   H5286     1.0  0.99074  0.42010  0.92891  1.0000
  H   H5287     1.0  0.63256  0.41589  0.95634  1.0000
  C   C3085     1.0  0.55374  0.31471  0.96607  1.0000
  H   H5288     1.0  0.65882  0.27907  0.92822  1.0000
  C   C3086     1.0  0.99911  0.35932  0.79045  1.0000
  C   C3087     1.0  0.83350  0.46630  0.95952  1.0000
  H   H5289     1.0  0.85281  0.44570  0.92931  1.0000
  H   H5290     1.0  0.79494  0.29526  0.97505  1.0000
  C   C3088     1.0  0.54268  0.30740  0.96843  1.0000
  H   H5291     1.0  0.60581  0.39806  0.93092  1.0000
  C   C3089     1.0  0.67446  0.34705  0.98020  1.0000
  C   C3090     1.0  0.71563  0.37184  0.97938  1.0000
  H   H5292     1.0  0.75330  0.43680  0.93140  1.0000
  H   H5293     1.0  0.59451  0.39146  0.97189  1.0000
  N   N222      1.0  0.99500  0.45068  0.78779  1.0000
  H   H5294     1.0  0.71964  0.37561  0.95616  1.0000
  H   H5295     1.0  0.73599  0.40119  0.94664  1.0000
  H   H5296     1.0  0.79561  0.32987  0.93138  1.0000
  C   C3091     1.0  0.99341  0.48275  0.81579  1.0000
  H   H5297     1.0  0.70993  0.36176  0.96501  1.0000
  C   C3092     1.0  0.98572  0.32901  0.74077  1.0000
  H   H5298     1.0  0.78135  0.31672  0.92640  1.0000
  H   H5299     1.0  0.71246  0.28661  0.90731  1.0000
  H   H5300     1.0  0.64697  0.29643  0.92756  1.0000
  H   H5301     1.0  0.95389  0.35387  0.73769  1.0000
  H   H5302     1.0  0.84252  0.45069  0.97675  1.0000
  H   H5303     1.0  0.53037  0.35531  0.94467  1.0000
  H   H5304     1.0  0.92516  0.43945  0.97333  1.0000
  H   H5305     1.0  0.98064  0.47957  0.78283  1.0000
  H   H5306     1.0  0.71585  0.38305  0.97918  1.0000
  C   C3093     1.0  0.66937  0.29300  0.98344  1.0000
  Fe  Fe446     1.0  0.00292  0.42542  0.86578  1.0000
  H   H5307     1.0  0.64480  0.34370  0.97783  1.0000
  C   C3094     1.0  0.90838  0.48431  0.96804  1.0000
  H   H5308     1.0  0.53112  0.25539  0.92856  1.0000
  H   H5309     1.0  0.00290  0.40268  0.92962  1.0000
  C   C3095     1.0  0.65879  0.36977  0.98433  1.0000
  H   H5310     1.0  0.90543  0.48413  0.95811  1.0000
  H   H5311     1.0  0.62884  0.28724  0.98232  1.0000
  H   H5312     1.0  0.00306  0.34833  0.79663  1.0000
  C   C3096     1.0  0.90239  0.46047  0.97972  1.0000
  H   H5313     1.0  0.52889  0.24688  0.95194  1.0000
  S   S894      1.0  0.59348  0.35927  0.98210  1.0000
  H   H5314     1.0  0.94900  0.48511  0.86830  1.0000
  H   H5315     1.0  0.93436  0.48243  0.89247  1.0000
  C   C3097     1.0  0.98252  0.38450  0.77103  1.0000
  C   C3098     1.0  0.91761  0.48718  0.87306  1.0000
  H   H5316     1.0  0.91323  0.48939  0.88393  1.0000
  H   H5317     1.0  0.82590  0.48808  0.92788  1.0000
  H   H5318     1.0  0.91489  0.38713  0.73962  1.0000
  H   H5319     1.0  0.53428  0.34216  0.98539  1.0000
  N   N223      1.0  0.51260  0.34960  0.98103  1.0000
  H   H5320     1.0  0.89813  0.48975  0.97436  1.0000
  H   H5321     1.0  0.68680  0.37372  0.98516  1.0000
  C   C3099     1.0  0.93401  0.49174  0.84972  1.0000
  H   H5322     1.0  0.99994  0.45769  0.76469  1.0000
  H   H5323     1.0  0.98977  0.38069  0.73875  1.0000
  H   H5324     1.0  0.92910  0.47281  0.98609  1.0000
  H   H5325     1.0  0.50588  0.37299  0.97575  1.0000
  H   H5326     1.0  0.61066  0.37810  0.98573  1.0000
  H   H5327     1.0  0.83782  0.49199  0.95479  1.0000
  H   H5328     1.0  0.92876  0.49118  0.95552  1.0000
  C   C3100     1.0  0.81144  0.49182  0.94794  1.0000
  C   C3101     1.0  0.52461  0.35117  0.98683  1.0000
  H   H5329     1.0  0.73040  0.26917  0.98719  1.0000
  C   C3102     1.0  0.87308  0.56104  0.21821  1.0000
  H   H5330     1.0  0.61947  0.59531  0.13484  1.0000
  H   H5331     1.0  0.89846  0.52002  0.08635  1.0000
  S   S895      1.0  0.84376  0.49497  0.17662  1.0000
  H   H5332     1.0  0.58895  0.67503  0.05310  1.0000
  H   H5333     1.0  0.88844  0.49563  0.14359  1.0000
  H   H5334     1.0  0.59431  0.62043  0.00429  1.0000
  H   H5335     1.0  0.61366  0.65623  0.01339  1.0000
  S   S896      1.0  0.59110  0.71523  0.14577  1.0000
  H   H5336     1.0  0.71316  0.54063  0.03749  1.0000
  H   H5337     1.0  0.69561  0.60849  0.98991  1.0000
  Fe  Fe447     1.0  0.73470  0.54372  0.09154  1.0000
  S   S897      1.0  0.71860  0.54707  0.11198  1.0000
  S   S898      1.0  0.75762  0.53058  0.09119  1.0000
  Fe  Fe448     1.0  0.71227  0.55922  0.07332  1.0000
  S   S899      1.0  0.69446  0.56368  0.09224  1.0000
  S   S900      1.0  0.70485  0.56633  0.05259  1.0000
  Fe  Fe449     1.0  0.71137  0.56929  0.09940  1.0000
  S   S901      1.0  0.70603  0.58965  0.10712  1.0000
  Fe  Fe450     1.0  0.70324  0.54114  0.10285  1.0000
  S   S902      1.0  0.68788  0.52723  0.11681  1.0000
  S   S903      1.0  0.72880  0.56656  0.07957  1.0000
  S   S904      1.0  0.71984  0.53603  0.08328  1.0000
  Fe  Fe451     1.0  0.62393  0.66718  0.09060  1.0000
  S   S905      1.0  0.61160  0.65359  0.10948  1.0000
  S   S906      1.0  0.62320  0.69028  0.09004  1.0000
  Fe  Fe452     1.0  0.63220  0.64517  0.07217  1.0000
  S   S907      1.0  0.61993  0.63039  0.08956  1.0000
  S   S908      1.0  0.64218  0.63309  0.05455  1.0000
  Fe  Fe453     1.0  0.60250  0.64974  0.09306  1.0000
  S   S909      1.0  0.57845  0.65115  0.09752  1.0000
  Fe  Fe454     1.0  0.63032  0.63537  0.10422  1.0000
  S   S910      1.0  0.63800  0.61519  0.11978  1.0000
  S   S911      1.0  0.61360  0.66430  0.07435  1.0000
  S   S912      1.0  0.64377  0.64915  0.08668  1.0000
  H   H5338     1.0  0.73840  0.60465  0.00538  1.0000
  S   S913      1.0  0.92490  0.49639  0.22664  1.0000
  H   H5339     1.0  0.83258  0.55644  0.06149  1.0000
  H   H5340     1.0  0.93689  0.55827  0.23448  1.0000
  C   C3103     1.0  0.50370  0.56974  0.08357  1.0000
  H   H5341     1.0  0.58065  0.62415  0.13152  1.0000
  Fe  Fe455     1.0  0.67502  0.49970  0.04925  1.0000
  S   S914      1.0  0.66189  0.52218  0.04384  1.0000
  C   C3104     1.0  0.71579  0.53348  0.02998  1.0000
  C   C3105     1.0  0.89417  0.51203  0.09583  1.0000
  Fe  Fe456     1.0  0.59812  0.58382  0.05164  1.0000
  S   S915      1.0  0.57659  0.59942  0.05523  1.0000
  Fe  Fe457     1.0  0.58574  0.55793  0.06639  1.0000
  S   S916      1.0  0.56268  0.57060  0.07159  1.0000
  S   S917      1.0  0.59467  0.53420  0.07258  1.0000
  Fe  Fe458     1.0  0.56797  0.58375  0.04922  1.0000
  S   S918      1.0  0.55197  0.59314  0.03489  1.0000
  Fe  Fe459     1.0  0.57268  0.58543  0.07721  1.0000
  S   S919      1.0  0.56142  0.59489  0.09644  1.0000
  S   S920      1.0  0.58999  0.56958  0.04333  1.0000
  S   S921      1.0  0.59513  0.57149  0.07434  1.0000
  Fe  Fe460     1.0  0.80778  0.51444  0.14211  1.0000
  S   S922      1.0  0.82783  0.52179  0.14134  1.0000
  S   S923      1.0  0.78647  0.53061  0.14057  1.0000
  C   C3106     1.0  0.59080  0.61696  0.12695  1.0000
  C   C3107     1.0  0.74284  0.57494  0.02677  1.0000
  C   C3108     1.0  0.73452  0.50421  0.99889  1.0000
  H   H5342     1.0  0.64598  0.51876  0.01000  1.0000
  Fe  Fe461     1.0  0.83854  0.50825  0.12508  1.0000
  H   H5343     1.0  0.74946  0.53770  0.05814  1.0000
  C   C3109     1.0  0.97191  0.53986  0.22058  1.0000
  H   H5344     1.0  0.96038  0.51001  0.16351  1.0000
  H   H5345     1.0  0.74987  0.50259  0.04546  1.0000
  S   S924      1.0  0.93944  0.51649  0.18834  1.0000
  H   H5346     1.0  0.56520  0.65692  0.02648  1.0000
  S   S925      1.0  0.86747  0.52826  0.20817  1.0000
  C   C3110     1.0  0.59410  0.58215  0.11544  1.0000
  H   H5347     1.0  0.64779  0.57704  0.07589  1.0000
  C   C3111     1.0  0.93733  0.51502  0.17196  1.0000
  C   C3112     1.0  0.92350  0.51684  0.16944  1.0000
  S   S926      1.0  0.81832  0.50222  0.12476  1.0000
  H   H5348     1.0  0.97262  0.52932  0.18191  1.0000
  C   C3113     1.0  0.94976  0.51130  0.16156  1.0000
  H   H5349     1.0  0.91383  0.52010  0.17729  1.0000
  S   S927      1.0  0.99929  0.51132  0.16941  1.0000
  N   N224      1.0  0.66019  0.57922  0.99377  1.0000
  C   C3114     1.0  0.85025  0.50478  0.18488  1.0000
  H   H5350     1.0  0.97197  0.53248  0.23119  1.0000
  C   C3115     1.0  0.86348  0.50414  0.20255  1.0000
  C   C3116     1.0  0.86121  0.51913  0.19897  1.0000
  C   C3117     1.0  0.85341  0.52692  0.18831  1.0000
  C   C3118     1.0  0.84812  0.51977  0.18112  1.0000
  H   H5351     1.0  0.57866  0.64642  0.06132  1.0000
  H   H5352     1.0  0.66942  0.58316  0.01674  1.0000
  H   H5353     1.0  0.85155  0.53852  0.18551  1.0000
  H   H5354     1.0  0.84225  0.52584  0.17284  1.0000
  H   H5355     1.0  0.59590  0.57787  0.14322  1.0000
  H   H5356     1.0  0.59511  0.62311  0.11614  1.0000
  H   H5357     1.0  0.65674  0.52650  0.07332  1.0000
  H   H5358     1.0  0.62811  0.65816  0.01972  1.0000
  H   H5359     1.0  0.56415  0.65481  0.04506  1.0000
  H   H5360     1.0  0.91152  0.51574  0.15479  1.0000
  H   H5361     1.0  0.66382  0.50933  0.00320  1.0000
  H   H5362     1.0  0.72801  0.56996  0.00208  1.0000
  C   C3119     1.0  0.66118  0.65869  0.01870  1.0000
  C   C3120     1.0  0.53600  0.55790  0.04121  1.0000
  C   C3121     1.0  0.54473  0.56691  0.04125  1.0000
  C   C3122     1.0  0.54208  0.58131  0.03399  1.0000
  H   H5363     1.0  0.74059  0.62082  0.99283  1.0000
  H   H5364     1.0  0.53795  0.54681  0.04700  1.0000
  H   H5365     1.0  0.55341  0.56276  0.04703  1.0000
  H   H5366     1.0  0.66980  0.55917  0.05767  1.0000
  C   C3123     1.0  0.64344  0.52522  0.05256  1.0000
  C   C3124     1.0  0.63491  0.53911  0.04987  1.0000
  C   C3125     1.0  0.62007  0.54190  0.05637  1.0000
  C   C3126     1.0  0.61354  0.53076  0.06536  1.0000
  C   C3127     1.0  0.62214  0.51686  0.06834  1.0000
  C   C3128     1.0  0.63712  0.51413  0.06203  1.0000
  H   H5367     1.0  0.63976  0.54781  0.04280  1.0000
  H   H5368     1.0  0.61371  0.55271  0.05428  1.0000
  H   H5369     1.0  0.61719  0.50823  0.07542  1.0000
  H   H5370     1.0  0.64368  0.50343  0.06436  1.0000
  H   H5371     1.0  0.59710  0.60027  0.02537  1.0000
  C   C3129     1.0  0.56597  0.61097  0.09558  1.0000
  C   C3130     1.0  0.55631  0.62053  0.10375  1.0000
  C   C3131     1.0  0.56010  0.63302  0.10397  1.0000
  C   C3132     1.0  0.57377  0.63576  0.09646  1.0000
  C   C3133     1.0  0.58351  0.62613  0.08840  1.0000
  C   C3134     1.0  0.57949  0.61391  0.08765  1.0000
  H   H5372     1.0  0.54588  0.61825  0.10992  1.0000
  H   H5373     1.0  0.55253  0.64040  0.11026  1.0000
  H   H5374     1.0  0.59410  0.62810  0.08271  1.0000
  H   H5375     1.0  0.58701  0.60652  0.08136  1.0000
  C   C3135     1.0  0.65068  0.64020  0.03701  1.0000
  C   C3136     1.0  0.65414  0.65371  0.03295  1.0000
  C   C3137     1.0  0.65438  0.63168  0.02696  1.0000
  H   H5376     1.0  0.65142  0.66028  0.04072  1.0000
  H   H5377     1.0  0.65192  0.62114  0.03016  1.0000
  H   H5378     1.0  0.70060  0.50730  0.02060  1.0000
  C   C3138     1.0  0.76482  0.53040  0.10553  1.0000
  C   C3139     1.0  0.76196  0.54280  0.11078  1.0000
  C   C3140     1.0  0.76867  0.54273  0.12155  1.0000
  C   C3141     1.0  0.77807  0.53026  0.12725  1.0000
  C   C3142     1.0  0.78068  0.51781  0.12218  1.0000
  C   C3143     1.0  0.77423  0.51793  0.11122  1.0000
  H   H5379     1.0  0.75488  0.55252  0.10628  1.0000
  H   H5380     1.0  0.76685  0.55242  0.12528  1.0000
  H   H5381     1.0  0.78754  0.50801  0.12680  1.0000
  H   H5382     1.0  0.77638  0.50828  0.10729  1.0000
  C   C3144     1.0  0.98366  0.52059  0.20646  1.0000
  C   C3145     1.0  0.58743  0.65253  0.05619  1.0000
  C   C3146     1.0  0.68608  0.49966  0.11929  1.0000
  C   C3147     1.0  0.68959  0.51226  0.10998  1.0000
  C   C3148     1.0  0.69453  0.51279  0.09530  1.0000
  H   H5383     1.0  0.51354  0.73022  0.18575  1.0000
  H   H5384     1.0  0.94313  0.51478  0.23093  1.0000
  H   H5385     1.0  0.68214  0.49924  0.13064  1.0000
  H   H5386     1.0  0.69694  0.52254  0.08802  1.0000
  Fe  Fe462     1.0  0.83304  0.50131  0.15763  1.0000
  C   C3149     1.0  0.68714  0.59675  0.11082  1.0000
  C   C3150     1.0  0.68179  0.61166  0.10824  1.0000
  C   C3151     1.0  0.66670  0.61743  0.11059  1.0000
  C   C3152     1.0  0.65692  0.60828  0.11611  1.0000
  C   C3153     1.0  0.66228  0.59337  0.11899  1.0000
  C   C3154     1.0  0.67736  0.58761  0.11612  1.0000
  H   H5387     1.0  0.68933  0.61876  0.10424  1.0000
  H   H5388     1.0  0.66262  0.62895  0.10854  1.0000
  H   H5389     1.0  0.65476  0.58627  0.12334  1.0000
  H   H5390     1.0  0.68140  0.57608  0.11835  1.0000
  C   C3155     1.0  0.73142  0.57294  0.03882  1.0000
  C   C3156     1.0  0.71875  0.57004  0.03753  1.0000
  C   C3157     1.0  0.71736  0.56950  0.02413  1.0000
  H   H5391     1.0  0.73252  0.57352  0.04908  1.0000
  H   H5392     1.0  0.70755  0.56731  0.02307  1.0000
  C   C3158     1.0  0.60004  0.70869  0.13007  1.0000
  C   C3159     1.0  0.60222  0.71786  0.11652  1.0000
  C   C3160     1.0  0.60946  0.71213  0.10431  1.0000
  C   C3161     1.0  0.61430  0.69720  0.10555  1.0000
  C   C3162     1.0  0.61196  0.68806  0.11909  1.0000
  C   C3163     1.0  0.60494  0.69379  0.13128  1.0000
  S   S928      1.0  0.90421  0.50040  0.20436  1.0000
  H   H5393     1.0  0.61131  0.71928  0.09388  1.0000
  H   H5394     1.0  0.61589  0.67659  0.12022  1.0000
  H   H5395     1.0  0.60337  0.68664  0.14174  1.0000
  H   H5396     1.0  0.66594  0.52458  0.08690  1.0000
  H   H5397     1.0  0.63511  0.62864  0.00388  1.0000
  C   C3164     1.0  0.61808  0.60273  0.02599  1.0000
  H   H5398     1.0  0.63205  0.51809  0.03249  1.0000
  N   N225      1.0  0.59548  0.64925  0.04177  1.0000
  C   C3165     1.0  0.68255  0.53773  0.06030  1.0000
  H   H5399     1.0  0.71861  0.57887  0.15890  1.0000
  C   C3166     1.0  0.66118  0.63671  0.01278  1.0000
  H   H5400     1.0  0.61545  0.65202  0.04497  1.0000
  H   H5401     1.0  0.57009  0.70793  0.13423  1.0000
  C   C3167     1.0  0.51565  0.55786  0.07727  1.0000
  H   H5402     1.0  0.77270  0.50821  0.00879  1.0000
  H   H5403     1.0  0.66380  0.66918  0.01547  1.0000
  H   H5404     1.0  0.57480  0.66934  0.06751  1.0000
  H   H5405     1.0  0.57989  0.60696  0.11824  1.0000
  C   C3168     1.0  0.55536  0.69792  0.12910  1.0000
  H   H5406     1.0  0.64394  0.55888  0.99834  1.0000
  H   H5407     1.0  0.56625  0.71311  0.10439  1.0000
  H   H5408     1.0  0.58136  0.70426  0.11217  1.0000
  H   H5409     1.0  0.54707  0.69151  0.13539  1.0000
  H   H5410     1.0  0.54882  0.70868  0.12495  1.0000
  H   H5411     1.0  0.71230  0.61072  0.99930  1.0000
  H   H5412     1.0  0.96897  0.54796  0.17353  1.0000
  H   H5413     1.0  0.73342  0.50902  0.06550  1.0000
  N   N226      1.0  0.68690  0.61099  0.05841  1.0000
  C   C3169     1.0  0.68181  0.60696  0.04740  1.0000
  C   C3170     1.0  0.68013  0.60296  0.07293  1.0000
  C   C3171     1.0  0.70334  0.60622  0.05556  1.0000
  C   C3172     1.0  0.68219  0.62707  0.05672  1.0000
  C   C3173     1.0  0.68917  0.61216  0.03156  1.0000
  C   C3174     1.0  0.66336  0.60702  0.07745  1.0000
  C   C3175     1.0  0.71064  0.60388  0.06808  1.0000
  C   C3176     1.0  0.68461  0.63357  0.06794  1.0000
  H   H5414     1.0  0.68347  0.59506  0.04934  1.0000
  H   H5415     1.0  0.66990  0.61126  0.04823  1.0000
  H   H5416     1.0  0.68418  0.60434  0.08163  1.0000
  H   H5417     1.0  0.68337  0.59119  0.07342  1.0000
  H   H5418     1.0  0.70695  0.59574  0.05223  1.0000
  H   H5419     1.0  0.70850  0.61398  0.04647  1.0000
  H   H5420     1.0  0.68792  0.63261  0.04620  1.0000
  H   H5421     1.0  0.67054  0.63099  0.05617  1.0000
  H   H5422     1.0  0.68729  0.62403  0.02829  1.0000
  H   H5423     1.0  0.70102  0.60728  0.02917  1.0000
  H   H5424     1.0  0.68425  0.60870  0.02469  1.0000
  H   H5425     1.0  0.65935  0.61850  0.07799  1.0000
  H   H5426     1.0  0.65796  0.60446  0.07040  1.0000
  H   H5427     1.0  0.65982  0.60066  0.08839  1.0000
  H   H5428     1.0  0.70753  0.61320  0.07310  1.0000
  H   H5429     1.0  0.72267  0.60175  0.06408  1.0000
  H   H5430     1.0  0.70821  0.59427  0.07639  1.0000
  H   H5431     1.0  0.69556  0.63615  0.06474  1.0000
  H   H5432     1.0  0.68306  0.62678  0.07887  1.0000
  H   H5433     1.0  0.67627  0.64368  0.06886  1.0000
  C   C3177     1.0  0.85302  0.50655  0.09193  1.0000
  H   H5434     1.0  0.72650  0.56419  0.12715  1.0000
  H   H5435     1.0  0.57994  0.59936  0.13654  1.0000
  N   N227      1.0  0.74252  0.52365  0.03282  1.0000
  H   H5436     1.0  0.88405  0.51103  0.09373  1.0000
  H   H5437     1.0  0.99307  0.52492  0.19901  1.0000
  H   H5438     1.0  0.75380  0.51926  0.05697  1.0000
  C   C3178     1.0  0.50950  0.60398  0.05444  1.0000
  H   H5439     1.0  0.98220  0.51064  0.23004  1.0000
  C   C3179     1.0  0.74165  0.53455  0.04109  1.0000
  C   C3180     1.0  0.51204  0.58950  0.06532  1.0000
  H   H5440     1.0  0.52055  0.58207  0.05921  1.0000
  H   H5441     1.0  0.64380  0.51648  0.09747  1.0000
  C   C3181     1.0  0.72895  0.57104  0.01220  1.0000
  C   C3182     1.0  0.75774  0.52112  0.02355  1.0000
  C   C3183     1.0  0.95438  0.51652  0.22843  1.0000
  H   H5442     1.0  0.88644  0.51133  0.11908  1.0000
  H   H5443     1.0  0.60709  0.60372  0.10082  1.0000
  H   H5444     1.0  0.51446  0.52037  0.03271  1.0000
  C   C3184     1.0  0.58706  0.60320  0.12605  1.0000
  H   H5445     1.0  0.51299  0.55525  0.06834  1.0000
  C   C3185     1.0  0.58058  0.66851  0.05635  1.0000
  H   H5446     1.0  0.59860  0.61488  0.13380  1.0000
  C   C3186     1.0  0.73209  0.53001  0.02292  1.0000
  H   H5447     1.0  0.73302  0.52257  0.01612  1.0000
  H   H5448     1.0  0.56771  0.65858  0.12769  1.0000
  H   H5449     1.0  0.59167  0.65218  0.02066  1.0000
  H   H5450     1.0  0.94719  0.53709  0.21510  1.0000
  H   H5451     1.0  0.95539  0.52268  0.20615  1.0000
  C   C3187     1.0  0.61487  0.62555  0.00227  1.0000
  H   H5452     1.0  0.76377  0.53193  0.04399  1.0000
  H   H5453     1.0  0.92195  0.51009  0.09245  1.0000
  H   H5454     1.0  0.60565  0.66753  0.03498  1.0000
  H   H5455     1.0  0.74500  0.49678  0.99755  1.0000
  H   H5456     1.0  0.70267  0.63579  0.99052  1.0000
  H   H5457     1.0  0.61549  0.60474  0.11382  1.0000
  H   H5458     1.0  0.73353  0.58739  0.13736  1.0000
  C   C3188     1.0  0.52332  0.51872  0.00605  1.0000
  H   H5459     1.0  0.73485  0.54001  0.01537  1.0000
  H   H5460     1.0  0.51337  0.58181  0.02080  1.0000
  C   C3189     1.0  0.73250  0.51773  0.98946  1.0000
  H   H5461     1.0  0.81570  0.53483  0.06148  1.0000
  C   C3190     1.0  0.52193  0.53488  0.99916  1.0000
  H   H5462     1.0  0.57743  0.57037  0.11857  1.0000
  H   H5463     1.0  0.52883  0.59773  0.02081  1.0000
  C   C3191     1.0  0.61908  0.65246  0.02254  1.0000
  C   C3192     1.0  0.94849  0.50857  0.14900  1.0000
  H   H5464     1.0  0.51351  0.53901  0.99268  1.0000
  H   H5465     1.0  0.52759  0.73679  0.19638  1.0000
  H   H5466     1.0  0.51682  0.54786  0.08575  1.0000
  H   H5467     1.0  0.75575  0.51660  0.00387  1.0000
  H   H5468     1.0  0.00007  0.51246  0.21962  1.0000
  H   H5469     1.0  0.98077  0.54742  0.19119  1.0000
  C   C3193     1.0  0.64850  0.49543  0.01318  1.0000
  H   H5470     1.0  0.62242  0.62440  0.04453  1.0000
  H   H5471     1.0  0.63324  0.59201  0.09728  1.0000
  H   H5472     1.0  0.72867  0.53868  0.16440  1.0000
  H   H5473     1.0  0.86927  0.49802  0.21088  1.0000
  C   C3194     1.0  0.66506  0.55092  0.08601  1.0000
  C   C3195     1.0  0.65662  0.55127  0.10152  1.0000
  H   H5474     1.0  0.67561  0.54320  0.08704  1.0000
  H   H5475     1.0  0.66842  0.56133  0.08092  1.0000
  H   H5476     1.0  0.65846  0.54037  0.10858  1.0000
  H   H5477     1.0  0.64481  0.55577  0.10256  1.0000
  H   H5478     1.0  0.66056  0.55851  0.10555  1.0000
  H   H5479     1.0  0.61636  0.52649  0.02530  1.0000
  S   S929      1.0  0.85252  0.51659  0.10398  1.0000
  C   C3196     1.0  0.70734  0.52334  0.00221  1.0000
  H   H5480     1.0  0.64442  0.58127  0.01366  1.0000
  C   C3197     1.0  0.85481  0.50496  0.06763  1.0000
  H   H5481     1.0  0.74429  0.54516  0.15341  1.0000
  H   H5482     1.0  0.63287  0.53211  0.08858  1.0000
  C   C3198     1.0  0.53085  0.58660  0.02649  1.0000
  C   C3199     1.0  0.00056  0.49881  0.15954  1.0000
  H   H5483     1.0  0.95451  0.54041  0.18587  1.0000
  H   H5484     1.0  0.70960  0.53925  0.02149  1.0000
  N   N228      1.0  0.97076  0.53275  0.20954  1.0000
  C   C3200     1.0  0.51248  0.49838  0.02162  1.0000
  H   H5485     1.0  0.96179  0.50595  0.22748  1.0000
  C   C3201     1.0  0.57114  0.65143  0.03520  1.0000
  C   C3202     1.0  0.70946  0.51002  0.01182  1.0000
  H   H5486     1.0  0.53764  0.73071  0.14734  1.0000
  H   H5487     1.0  0.87457  0.53909  0.22879  1.0000
  H   H5488     1.0  0.85676  0.54981  0.23223  1.0000
  C   C3203     1.0  0.61148  0.62483  0.05173  1.0000
  H   H5489     1.0  0.57602  0.69803  0.08568  1.0000
  H   H5490     1.0  0.91581  0.50309  0.11101  1.0000
  C   C3204     1.0  0.62161  0.51640  0.03192  1.0000
  C   C3205     1.0  0.60396  0.61772  0.00859  1.0000
  H   H5491     1.0  0.76599  0.51622  0.03025  1.0000
  H   H5492     1.0  0.73626  0.50341  0.03642  1.0000
  H   H5493     1.0  0.72339  0.50050  0.05972  1.0000
  C   C3206     1.0  0.88948  0.51901  0.10889  1.0000
  H   H5494     1.0  0.65803  0.50804  0.02193  1.0000
  H   H5495     1.0  0.61424  0.51548  0.04272  1.0000
  H   H5496     1.0  0.53247  0.53657  0.99179  1.0000
  C   C3207     1.0  0.85780  0.49706  0.19572  1.0000
  C   C3208     1.0  0.95662  0.52773  0.21424  1.0000
  C   C3209     1.0  0.97013  0.54415  0.19586  1.0000
  S   S930      1.0  0.51284  0.55222  0.03532  1.0000
  C   C3210     1.0  0.74175  0.57368  0.01351  1.0000
  H   H5497     1.0  0.61111  0.62926  0.06083  1.0000
  S   S931      1.0  0.67283  0.65658  0.99065  1.0000
  H   H5498     1.0  0.63512  0.55577  0.08582  1.0000
  H   H5499     1.0  0.62114  0.50798  0.01432  1.0000
  H   H5500     1.0  0.66817  0.54782  0.99669  1.0000
  H   H5501     1.0  0.59484  0.64894  0.06374  1.0000
  H   H5502     1.0  0.52026  0.60658  0.04868  1.0000
  Fe  Fe463     1.0  0.57940  0.73844  0.14553  1.0000
  H   H5503     1.0  0.65896  0.56593  0.01525  1.0000
  H   H5504     1.0  0.90464  0.49213  0.16274  1.0000
  S   S932      1.0  0.93333  0.50426  0.13203  1.0000
  C   C3211     1.0  0.56289  0.70026  0.13963  1.0000
  H   H5505     1.0  0.72405  0.53159  0.14500  1.0000
  C   C3212     1.0  0.65153  0.57265  0.00808  1.0000
  C   C3213     1.0  0.60508  0.58154  0.13477  1.0000
  H   H5506     1.0  0.62278  0.57915  0.09961  1.0000
  H   H5507     1.0  0.58420  0.66756  0.02808  1.0000
  C   C3214     1.0  0.73299  0.54471  0.15352  1.0000
  C   C3215     1.0  0.91004  0.49332  0.08313  1.0000
  C   C3216     1.0  0.69622  0.50067  0.08996  1.0000
  H   H5508     1.0  0.74283  0.52501  0.14573  1.0000
  H   H5509     1.0  0.52213  0.73074  0.11281  1.0000
  H   H5510     1.0  0.52645  0.56077  0.07362  1.0000
  C   C3217     1.0  0.73224  0.61490  0.99983  1.0000
  N   N229      1.0  0.81237  0.53865  0.08271  1.0000
  C   C3218     1.0  0.81977  0.54531  0.08980  1.0000
  C   C3219     1.0  0.82098  0.53890  0.06755  1.0000
  C   C3220     1.0  0.81300  0.52328  0.09088  1.0000
  C   C3221     1.0  0.79677  0.54699  0.08350  1.0000
  C   C3222     1.0  0.81353  0.54459  0.10597  1.0000
  C   C3223     1.0  0.82368  0.55372  0.05862  1.0000
  C   C3224     1.0  0.80873  0.51319  0.08433  1.0000
  C   C3225     1.0  0.78921  0.54686  0.07192  1.0000
  H   H5511     1.0  0.83164  0.54017  0.08840  1.0000
  H   H5512     1.0  0.81914  0.55691  0.08473  1.0000
  H   H5513     1.0  0.88568  0.56470  0.23572  1.0000
  H   H5514     1.0  0.73791  0.54006  0.13200  1.0000
  H   H5515     1.0  0.82421  0.51809  0.09257  1.0000
  H   H5516     1.0  0.80582  0.52283  0.10175  1.0000
  H   H5517     1.0  0.78980  0.54318  0.09405  1.0000
  H   H5518     1.0  0.79584  0.55855  0.08297  1.0000
  H   H5519     1.0  0.81856  0.55128  0.10958  1.0000
  H   H5520     1.0  0.80155  0.54869  0.10855  1.0000
  H   H5521     1.0  0.81635  0.53351  0.11236  1.0000
  H   H5522     1.0  0.62975  0.56942  0.00973  1.0000
  H   H5523     1.0  0.83186  0.53144  0.06749  1.0000
  H   H5524     1.0  0.51972  0.54136  0.00725  1.0000
  H   H5525     1.0  0.51789  0.49568  0.03079  1.0000
  C   C3226     1.0  0.64128  0.56334  0.00794  1.0000
  C   C3227     1.0  0.96635  0.54004  0.18372  1.0000
  H   H5526     1.0  0.79377  0.55309  0.06127  1.0000
  H   H5527     1.0  0.77749  0.55213  0.07479  1.0000
  H   H5528     1.0  0.78961  0.53595  0.07100  1.0000
  H   H5529     1.0  0.81374  0.56240  0.05996  1.0000
  C   C3228     1.0  0.62269  0.50357  0.02549  1.0000
  C   C3229     1.0  0.92220  0.51449  0.15666  1.0000
  C   C3230     1.0  0.57366  0.70242  0.10690  1.0000
  H   H5530     1.0  0.69683  0.53074  0.00360  1.0000
  C   C3231     1.0  0.66427  0.59222  0.99526  1.0000
  H   H5531     1.0  0.72743  0.60054  0.98962  1.0000
  H   H5532     1.0  0.71767  0.56850  0.18354  1.0000
  H   H5533     1.0  0.68102  0.56535  0.99721  1.0000
  N   N230      1.0  0.56537  0.69143  0.11689  1.0000
  H   H5534     1.0  0.56342  0.68151  0.10091  1.0000
  H   H5535     1.0  0.70839  0.55337  0.14262  1.0000
  N   N231      1.0  0.65785  0.54679  0.07673  1.0000
  H   H5536     1.0  0.64857  0.57506  0.05808  1.0000
  C   C3232     1.0  0.60556  0.60629  0.02049  1.0000
  H   H5537     1.0  0.63154  0.57883  0.07016  1.0000
  H   H5538     1.0  0.64049  0.53299  0.10284  1.0000
  C   C3233     1.0  0.58284  0.69871  0.09253  1.0000
  H   H5539     1.0  0.58433  0.68077  0.12625  1.0000
  C   C3234     1.0  0.72283  0.61162  0.99154  1.0000
  C   C3235     1.0  0.66446  0.65028  0.00855  1.0000
  C   C3236     1.0  0.98958  0.51036  0.21945  1.0000
  C   C3237     1.0  0.55635  0.68721  0.10943  1.0000
  H   H5540     1.0  0.59133  0.68868  0.09402  1.0000
  H   H5541     1.0  0.53960  0.69530  0.09702  1.0000
  C   C3238     1.0  0.64317  0.55661  0.07546  1.0000
  H   H5542     1.0  0.68982  0.54004  0.06570  1.0000
  C   C3239     1.0  0.99082  0.50169  0.15069  1.0000
  H   H5543     1.0  0.92263  0.54142  0.23382  1.0000
  H   H5544     1.0  0.56913  0.69009  0.14515  1.0000
  C   C3240     1.0  0.65647  0.53129  0.08225  1.0000
  C   C3241     1.0  0.64303  0.57275  0.06957  1.0000
  C   C3242     1.0  0.57621  0.67818  0.12206  1.0000
  H   H5545     1.0  0.58875  0.70740  0.08649  1.0000
  H   H5546     1.0  0.98291  0.51179  0.14965  1.0000
  H   H5547     1.0  0.59854  0.72937  0.11547  1.0000
  C   C3243     1.0  0.60881  0.65563  0.03669  1.0000
  H   H5548     1.0  0.54351  0.73855  0.10421  1.0000
  C   C3244     1.0  0.54502  0.69961  0.10277  1.0000
  C   C3245     1.0  0.56982  0.66588  0.13314  1.0000
  H   H5549     1.0  0.55016  0.67924  0.11702  1.0000
  H   H5550     1.0  0.64173  0.55397  0.01716  1.0000
  H   H5551     1.0  0.55966  0.66965  0.14066  1.0000
  S   S933      1.0  0.61989  0.58922  0.04133  1.0000
  H   H5552     1.0  0.66413  0.62995  0.00520  1.0000
  H   H5553     1.0  0.75271  0.57705  0.02781  1.0000
  C   C3246     1.0  0.64255  0.52829  0.09347  1.0000
  S   S934      1.0  0.69686  0.49729  0.05355  1.0000
  H   H5554     1.0  0.57774  0.65962  0.13992  1.0000
  C   C3247     1.0  0.52603  0.73265  0.14815  1.0000
  H   H5555     1.0  0.58302  0.67330  0.11294  1.0000
  H   H5556     1.0  0.53632  0.70429  0.11113  1.0000
  C   C3248     1.0  0.52207  0.57762  0.02652  1.0000
  H   H5557     1.0  0.58980  0.62843  0.04891  1.0000
  C   C3249     1.0  0.67387  0.58945  0.00608  1.0000
  H   H5558     1.0  0.63832  0.55328  0.06840  1.0000
  C   C3250     1.0  0.73438  0.53496  0.14338  1.0000
  H   H5559     1.0  0.55005  0.70817  0.09486  1.0000
  H   H5560     1.0  0.91581  0.50119  0.07475  1.0000
  H   H5561     1.0  0.68182  0.52630  0.06412  1.0000
  C   C3251     1.0  0.66749  0.54822  0.06186  1.0000
  H   H5562     1.0  0.61247  0.57132  0.13236  1.0000
  H   H5563     1.0  0.60256  0.57243  0.11323  1.0000
  H   H5564     1.0  0.52687  0.71202  0.14440  1.0000
  H   H5565     1.0  0.63846  0.60795  0.02411  1.0000
  H   H5566     1.0  0.99565  0.53888  0.21334  1.0000
  H   H5567     1.0  0.98114  0.51390  0.20062  1.0000
  H   H5568     1.0  0.68785  0.53918  0.04876  1.0000
  H   H5569     1.0  0.89815  0.52380  0.10957  1.0000
  H   H5570     1.0  0.62417  0.64092  0.02366  1.0000
  H   H5571     1.0  0.66188  0.54678  0.05424  1.0000
  H   H5572     1.0  0.57238  0.63972  0.03648  1.0000
  C   C3252     1.0  0.85570  0.51251  0.07720  1.0000
  H   H5573     1.0  0.82726  0.55338  0.04709  1.0000
  H   H5574     1.0  0.72406  0.55057  0.18115  1.0000
  C   C3253     1.0  0.52454  0.56329  0.03400  1.0000
  H   H5575     1.0  0.57071  0.58559  0.12641  1.0000
  Fe  Fe464     1.0  0.92065  0.51118  0.20602  1.0000
  C   C3254     1.0  0.71758  0.56125  0.17690  1.0000
  H   H5576     1.0  0.70605  0.56073  0.17853  1.0000
  C   C3255     1.0  0.62896  0.61051  0.01965  1.0000
  H   H5577     1.0  0.61032  0.61353  0.05609  1.0000
  H   H5578     1.0  0.63090  0.59359  0.99566  1.0000
  C   C3256     1.0  0.58607  0.65562  0.03092  1.0000
  C   C3257     1.0  0.91840  0.50055  0.10026  1.0000
  C   C3258     1.0  0.62519  0.58611  0.10518  1.0000
  H   H5579     1.0  0.87973  0.52789  0.10770  1.0000
  H   H5580     1.0  0.88514  0.55947  0.21499  1.0000
  H   H5581     1.0  0.60307  0.63033  0.03272  1.0000
  C   C3259     1.0  0.61263  0.58802  0.14228  1.0000
  C   C3260     1.0  0.75287  0.53043  0.05055  1.0000
  H   H5582     1.0  0.76049  0.53152  0.01695  1.0000
  S   S935      1.0  0.90449  0.52835  0.21608  1.0000
  H   H5583     1.0  0.73578  0.56756  0.16041  1.0000
  C   C3261     1.0  0.72425  0.56740  0.16112  1.0000
  H   H5584     1.0  0.87632  0.49214  0.11966  1.0000
  C   C3262     1.0  0.62723  0.62202  0.00795  1.0000
  H   H5585     1.0  0.98431  0.55649  0.20826  1.0000
  C   C3263     1.0  0.58032  0.57667  0.12456  1.0000
  H   H5586     1.0  0.81520  0.51256  0.07337  1.0000
  N   N232      1.0  0.90520  0.49793  0.09723  1.0000
  N   N233      1.0  0.72369  0.55970  0.15029  1.0000
  H   H5587     1.0  0.67420  0.59996  0.00768  1.0000
  H   H5588     1.0  0.68581  0.57007  0.15518  1.0000
  H   H5589     1.0  0.63054  0.57953  0.11405  1.0000
  Fe  Fe465     1.0  0.88803  0.51634  0.21617  1.0000
  H   H5590     1.0  0.55447  0.70507  0.14810  1.0000
  H   H5591     1.0  0.85677  0.50960  0.05625  1.0000
  H   H5592     1.0  0.70443  0.55080  0.16120  1.0000
  H   H5593     1.0  0.86955  0.55977  0.20907  1.0000
  C   C3264     1.0  0.69670  0.57248  0.14972  1.0000
  H   H5594     1.0  0.69772  0.58046  0.15494  1.0000
  C   C3265     1.0  0.72819  0.51010  0.05662  1.0000
  C   C3266     1.0  0.59950  0.63317  0.04337  1.0000
  C   C3267     1.0  0.72304  0.50043  0.01020  1.0000
  H   H5595     1.0  0.65436  0.60027  0.99877  1.0000
  H   H5596     1.0  0.72528  0.62116  0.00789  1.0000
  N   N234      1.0  0.50954  0.51440  0.01551  1.0000
  C   C3268     1.0  0.70845  0.55842  0.15124  1.0000
  H   H5597     1.0  0.74322  0.54491  0.03355  1.0000
  C   C3269     1.0  0.71891  0.52730  0.99119  1.0000
  N   N235      1.0  0.59962  0.59114  0.12184  1.0000
  C   C3270     1.0  0.65420  0.50867  0.01230  1.0000
  H   H5598     1.0  0.98622  0.54951  0.22633  1.0000
  C   C3271     1.0  0.93473  0.50995  0.14662  1.0000
  H   H5599     1.0  0.73151  0.58750  0.12015  1.0000
  C   C3272     1.0  0.73024  0.56708  0.13529  1.0000
  H   H5600     1.0  0.74232  0.56341  0.13282  1.0000
  H   H5601     1.0  0.57236  0.67327  0.04968  1.0000
  H   H5602     1.0  0.71572  0.58882  0.13434  1.0000
  H   H5603     1.0  0.59157  0.58825  0.10489  1.0000
  H   H5604     1.0  0.51724  0.59101  0.07324  1.0000
  H   H5605     1.0  0.71901  0.51957  0.05628  1.0000
  H   H5606     1.0  0.58208  0.56940  0.13489  1.0000
  H   H5607     1.0  0.96196  0.55411  0.19803  1.0000
  H   H5608     1.0  0.60453  0.59371  0.15030  1.0000
  H   H5609     1.0  0.62035  0.57926  0.14784  1.0000
  H   H5610     1.0  0.85815  0.52307  0.07324  1.0000
  H   H5611     1.0  0.79688  0.51586  0.08482  1.0000
  H   H5612     1.0  0.73074  0.53723  0.04811  1.0000
  H   H5613     1.0  0.71174  0.52349  0.03534  1.0000
  H   H5614     1.0  0.50793  0.57253  0.09148  1.0000
  C   C3273     1.0  0.51205  0.73418  0.10876  1.0000
  H   H5615     1.0  0.69665  0.57745  0.13827  1.0000
  C   C3274     1.0  0.72743  0.58364  0.13182  1.0000
  C   C3275     1.0  0.73963  0.50948  0.04235  1.0000
  C   C3276     1.0  0.61149  0.59717  0.11037  1.0000
  H   H5616     1.0  0.95817  0.50528  0.14118  1.0000
  C   C3277     1.0  0.76077  0.51110  0.01320  1.0000
  H   H5617     1.0  0.53202  0.51545  0.01225  1.0000
  C   C3278     1.0  0.51998  0.72214  0.14642  1.0000
  H   H5618     1.0  0.81113  0.50216  0.09100  1.0000
  H   H5619     1.0  0.68530  0.58413  0.00196  1.0000
  H   H5620     1.0  0.70033  0.50109  0.07869  1.0000
  C   C3279     1.0  0.67421  0.56885  0.98910  1.0000
  S   S936      1.0  0.75653  0.57525  0.99880  1.0000
  H   H5621     1.0  0.64513  0.49763  0.00289  1.0000
  C   C3280     1.0  0.50502  0.72487  0.14697  1.0000
  H   H5622     1.0  0.86937  0.49652  0.15036  1.0000
  H   H5623     1.0  0.96210  0.54861  0.22262  1.0000
  H   H5624     1.0  0.88921  0.50086  0.07570  1.0000
  S   S937      1.0  0.81182  0.49518  0.16005  1.0000
  H   H5625     1.0  0.50872  0.73736  0.21653  1.0000
  C   C3281     1.0  0.84998  0.49285  0.09703  1.0000
  H   H5626     1.0  0.96806  0.50043  0.19462  1.0000
  H   H5627     1.0  0.61289  0.49912  0.03156  1.0000
  H   H5628     1.0  0.64462  0.49747  0.04106  1.0000
  H   H5629     1.0  0.52793  0.51307  0.99712  1.0000
  H   H5630     1.0  0.86813  0.57214  0.21958  1.0000
  C   C3282     1.0  0.98536  0.54649  0.21673  1.0000
  H   H5631     1.0  0.98420  0.49417  0.13577  1.0000
  H   H5632     1.0  0.75703  0.50095  0.01851  1.0000
  C   C3283     1.0  0.86838  0.54956  0.23154  1.0000
  H   H5633     1.0  0.51114  0.72515  0.10480  1.0000
  H   H5634     1.0  0.99215  0.49912  0.21816  1.0000
  H   H5635     1.0  0.59167  0.66697  0.98833  1.0000
  S   S938      1.0  0.61295  0.63983  0.98743  1.0000
  H   H5636     1.0  0.50417  0.60355  0.04618  1.0000
  C   C3284     1.0  0.50503  0.52187  0.02785  1.0000
  S   S939      1.0  0.56143  0.74142  0.16513  1.0000
  Fe  Fe466     1.0  0.90752  0.51294  0.23685  1.0000
  H   H5637     1.0  0.50326  0.61296  0.05975  1.0000
  Fe  Fe467     1.0  0.89894  0.73731  0.44015  1.0000
  H   H5638     1.0  0.97988  0.58107  0.38717  1.0000
  H   H5639     1.0  0.98998  0.49521  0.48151  1.0000
  C   C3285     1.0  0.99373  0.60074  0.34457  1.0000
  C   C3286     1.0  0.92186  0.53025  0.25579  1.0000
  H   H5640     1.0  0.88168  0.52807  0.25110  1.0000
  H   H5641     1.0  0.85720  0.71802  0.47478  1.0000
  H   H5642     1.0  0.98237  0.60563  0.34354  1.0000
  Fe  Fe468     1.0  0.95348  0.65783  0.37172  1.0000
  S   S940      1.0  0.95363  0.63566  0.36998  1.0000
  S   S941      1.0  0.93227  0.67346  0.37772  1.0000
  H   H5643     1.0  0.84983  0.58282  0.25413  1.0000
  H   H5644     1.0  0.93856  0.64541  0.34417  1.0000
  Fe  Fe469     1.0  0.92285  0.73755  0.41323  1.0000
  Fe  Fe470     1.0  0.97009  0.64000  0.34943  1.0000
  S   S942      1.0  0.97128  0.63500  0.32814  1.0000
  Fe  Fe471     1.0  0.97258  0.62875  0.38062  1.0000
  H   H5645     1.0  0.91176  0.64626  0.35743  1.0000
  S   S943      1.0  0.96863  0.66279  0.35031  1.0000
  C   C3287     1.0  0.96658  0.72859  0.41402  1.0000
  Fe  Fe472     1.0  0.96737  0.54116  0.30152  1.0000
  S   S944      1.0  0.97858  0.54468  0.27841  1.0000
  S   S945      1.0  0.97012  0.51862  0.31480  1.0000
  Fe  Fe473     1.0  0.95661  0.57331  0.30109  1.0000
  S   S946      1.0  0.96662  0.57929  0.27748  1.0000
  S   S947      1.0  0.94558  0.58756  0.31730  1.0000
  Fe  Fe474     1.0  0.95803  0.56116  0.27523  1.0000
  S   S948      1.0  0.94863  0.56160  0.25643  1.0000
  Fe  Fe475     1.0  0.98605  0.56205  0.28285  1.0000
  H   H5646     1.0  0.84733  0.55744  0.25345  1.0000
  S   S949      1.0  0.94634  0.55667  0.29842  1.0000
  S   S950      1.0  0.97646  0.55710  0.30629  1.0000
  S   S951      1.0  0.97279  0.51476  0.41058  1.0000
  Fe  Fe476     1.0  0.97611  0.51797  0.38697  1.0000
  S   S952      1.0  0.95641  0.52714  0.37757  1.0000
  C   C3288     1.0  0.98830  0.59623  0.43409  1.0000
  H   H5647     1.0  0.95812  0.56997  0.36474  1.0000
  C   C3289     1.0  0.89526  0.70301  0.42501  1.0000
  H   H5648     1.0  0.89849  0.55989  0.25427  1.0000
  H   H5649     1.0  0.85770  0.55900  0.26434  1.0000
  H   H5650     1.0  0.98272  0.54066  0.33349  1.0000
  H   H5651     1.0  0.96731  0.71096  0.43284  1.0000
  H   H5652     1.0  0.93885  0.50292  0.35985  1.0000
  C   C3290     1.0  0.96520  0.52016  0.33259  1.0000
  C   C3291     1.0  0.97182  0.50962  0.34285  1.0000
  C   C3292     1.0  0.96933  0.51182  0.35668  1.0000
  C   C3293     1.0  0.95962  0.52419  0.36042  1.0000
  C   C3294     1.0  0.95242  0.53434  0.35037  1.0000
  C   C3295     1.0  0.95543  0.53247  0.33637  1.0000
  C   C3296     1.0  0.85880  0.52824  0.25735  1.0000
  H   H5653     1.0  0.99421  0.72009  0.39159  1.0000
  H   H5654     1.0  0.94494  0.54395  0.35323  1.0000
  H   H5655     1.0  0.95030  0.54066  0.32847  1.0000
  C   C3297     1.0  0.93845  0.54928  0.25647  1.0000
  C   C3298     1.0  0.93447  0.53886  0.26868  1.0000
  C   C3299     1.0  0.92611  0.52952  0.26837  1.0000
  C   C3300     1.0  0.97346  0.51915  0.44658  1.0000
  H   H5656     1.0  0.85780  0.52664  0.24713  1.0000
  C   C3301     1.0  0.93926  0.66510  0.31988  1.0000
  H   H5657     1.0  0.93765  0.53814  0.27844  1.0000
  H   H5658     1.0  0.92288  0.52169  0.27797  1.0000
  H   H5659     1.0  0.95524  0.52007  0.23767  1.0000
  C   C3302     1.0  0.92597  0.54057  0.24352  1.0000
  H   H5660     1.0  0.96852  0.53068  0.44659  1.0000
  H   H5661     1.0  0.96013  0.66705  0.32229  1.0000
  C   C3303     1.0  0.92354  0.64006  0.32787  1.0000
  S   S953      1.0  0.97726  0.60737  0.39574  1.0000
  H   H5662     1.0  0.92165  0.68351  0.33950  1.0000
  H   H5663     1.0  0.91145  0.66294  0.36173  1.0000
  H   H5664     1.0  0.94513  0.67957  0.33008  1.0000
  C   C3304     1.0  0.91373  0.68946  0.32006  1.0000
  H   H5665     1.0  0.89781  0.68000  0.43074  1.0000
  C   C3305     1.0  0.96462  0.62114  0.32570  1.0000
  C   C3306     1.0  0.96932  0.61715  0.31242  1.0000
  C   C3307     1.0  0.96407  0.60645  0.30991  1.0000
  C   C3308     1.0  0.95373  0.59988  0.32055  1.0000
  C   C3309     1.0  0.94905  0.60384  0.33388  1.0000
  C   C3310     1.0  0.95461  0.61426  0.33653  1.0000
  H   H5666     1.0  0.97706  0.62234  0.30395  1.0000
  H   H5667     1.0  0.96772  0.60359  0.29958  1.0000
  H   H5668     1.0  0.94101  0.59885  0.34217  1.0000
  H   H5669     1.0  0.95092  0.61715  0.34684  1.0000
  C   C3311     1.0  0.93738  0.71185  0.39125  1.0000
  C   C3312     1.0  0.94971  0.70177  0.38630  1.0000
  C   C3313     1.0  0.94819  0.69006  0.38203  1.0000
  C   C3314     1.0  0.93434  0.68844  0.38251  1.0000
  C   C3315     1.0  0.92200  0.69872  0.38712  1.0000
  C   C3316     1.0  0.92350  0.71038  0.39156  1.0000
  H   H5670     1.0  0.96048  0.70291  0.38591  1.0000
  H   H5671     1.0  0.95778  0.68234  0.37830  1.0000
  H   H5672     1.0  0.91126  0.69762  0.38733  1.0000
  H   H5673     1.0  0.91397  0.71826  0.39513  1.0000
  H   H5674     1.0  0.93313  0.51481  0.37728  1.0000
  C   C3317     1.0  0.96932  0.72201  0.42926  1.0000
  C   C3318     1.0  0.94837  0.49576  0.40527  1.0000
  H   H5675     1.0  0.99501  0.63936  0.29964  1.0000
  S   S954      1.0  0.93993  0.72576  0.39736  1.0000
  H   H5676     1.0  0.97537  0.55801  0.36586  1.0000
  H   H5677     1.0  0.97948  0.50015  0.33993  1.0000
  H   H5678     1.0  0.99979  0.57007  0.39864  1.0000
  H   H5679     1.0  0.95049  0.69490  0.42276  1.0000
  H   H5680     1.0  0.95981  0.50094  0.47325  1.0000
  H   H5681     1.0  0.00139  0.65448  0.42093  1.0000
  C   C3319     1.0  0.98912  0.57390  0.38130  1.0000
  H   H5682     1.0  0.99749  0.59526  0.30974  1.0000
  H   H5683     1.0  0.90925  0.52509  0.37597  1.0000
  Fe  Fe477     1.0  0.99057  0.52654  0.40541  1.0000
  N   N236      1.0  0.99016  0.57897  0.36537  1.0000
  H   H5684     1.0  0.93259  0.68906  0.41446  1.0000
  H   H5685     1.0  0.95122  0.68241  0.31105  1.0000
  C   C3320     1.0  0.97776  0.62175  0.42968  1.0000
  H   H5686     1.0  0.95358  0.49734  0.38270  1.0000
  H   H5687     1.0  0.94414  0.50742  0.40473  1.0000
  H   H5688     1.0  0.94088  0.66485  0.41947  1.0000
  H   H5689     1.0  0.99387  0.68526  0.39857  1.0000
  H   H5690     1.0  0.88971  0.54593  0.26525  1.0000
  C   C3321     1.0  0.97918  0.60810  0.41246  1.0000
  H   H5691     1.0  0.99430  0.67199  0.32278  1.0000
  H   H5692     1.0  0.98848  0.58545  0.41803  1.0000
  H   H5693     1.0  0.94621  0.65428  0.31901  1.0000
  N   N237      1.0  0.87053  0.55037  0.24570  1.0000
  H   H5694     1.0  0.97459  0.63183  0.43298  1.0000
  H   H5695     1.0  0.96157  0.72830  0.43697  1.0000
  H   H5696     1.0  0.99973  0.55996  0.45161  1.0000
  C   C3322     1.0  0.87994  0.73760  0.47620  1.0000
  S   S955      1.0  0.91067  0.51872  0.25621  1.0000
  C   C3323     1.0  0.91683  0.65605  0.32817  1.0000
  C   C3324     1.0  0.99411  0.59345  0.36030  1.0000
  N   N238      1.0  0.93171  0.49336  0.39034  1.0000
  C   C3325     1.0  0.94243  0.68930  0.43106  1.0000
  H   H5697     1.0  0.99160  0.58202  0.29525  1.0000
  Fe  Fe478     1.0  0.99081  0.49524  0.40872  1.0000
  H   H5698     1.0  0.90594  0.67750  0.34102  1.0000
  H   H5699     1.0  0.92506  0.63343  0.33854  1.0000
  S   S956      1.0  0.97100  0.65045  0.38430  1.0000
  S   S957      1.0  0.98655  0.54544  0.41506  1.0000
  H   H5700     1.0  0.92480  0.51446  0.39517  1.0000
  H   H5701     1.0  0.90603  0.69932  0.32300  1.0000
  C   C3326     1.0  0.91678  0.67848  0.33385  1.0000
  H   H5702     1.0  0.93995  0.69390  0.44060  1.0000
  H   H5703     1.0  0.90795  0.70174  0.44598  1.0000
  H   H5704     1.0  0.98058  0.72144  0.42988  1.0000
  H   H5705     1.0  0.96122  0.50406  0.29225  1.0000
  H   H5706     1.0  0.87958  0.56449  0.26227  1.0000
  H   H5707     1.0  0.89006  0.74077  0.47044  1.0000
  H   H5708     1.0  0.94780  0.67776  0.43348  1.0000
  C   C3327     1.0  0.87439  0.72908  0.47095  1.0000
  H   H5709     1.0  0.93400  0.63850  0.31988  1.0000
  H   H5710     1.0  0.96443  0.56590  0.38083  1.0000
  S   S958      1.0  0.99282  0.49744  0.38525  1.0000
  C   C3328     1.0  0.98821  0.54350  0.34023  1.0000
  H   H5711     1.0  0.97612  0.51519  0.46823  1.0000
  H   H5712     1.0  0.90595  0.65659  0.33568  1.0000
  H   H5713     1.0  0.92357  0.66358  0.41735  1.0000
  H   H5714     1.0  0.99573  0.49772  0.43653  1.0000
  H   H5715     1.0  0.97044  0.71984  0.40808  1.0000
  H   H5716     1.0  0.97524  0.58404  0.35118  1.0000
  H   H5717     1.0  0.98272  0.55466  0.34132  1.0000
  S   S959      1.0  0.88929  0.50243  0.23812  1.0000
  S   S960      1.0  0.92301  0.72800  0.43642  1.0000
  C   C3329     1.0  0.91111  0.68979  0.44807  1.0000
  Fe  Fe479     1.0  0.98619  0.65371  0.36280  1.0000
  C   C3330     1.0  0.96804  0.56786  0.36899  1.0000
  H   H5718     1.0  0.86584  0.58019  0.24084  1.0000
  C   C3331     1.0  0.93410  0.55009  0.24391  1.0000
  H   H5719     1.0  0.93003  0.66549  0.44546  1.0000
  C   C3332     1.0  0.87150  0.53550  0.25529  1.0000
  H   H5720     1.0  0.98796  0.67495  0.38142  1.0000
  H   H5721     1.0  0.96738  0.59009  0.36740  1.0000
  H   H5722     1.0  0.93338  0.64957  0.42903  1.0000
  H   H5723     1.0  0.98007  0.51879  0.43563  1.0000
  C   C3333     1.0  0.97507  0.62113  0.41682  1.0000
  C   C3334     1.0  0.92255  0.66847  0.43802  1.0000
  S   S961      1.0  0.88317  0.72397  0.45459  1.0000
  H   H5724     1.0  0.92459  0.70384  0.42265  1.0000
  C   C3335     1.0  0.98474  0.60939  0.43812  1.0000
  C   C3336     1.0  0.91848  0.65284  0.35880  1.0000
  H   H5725     1.0  0.91443  0.66134  0.31742  1.0000
  H   H5726     1.0  0.91982  0.68711  0.45411  1.0000
  H   H5727     1.0  0.90255  0.67363  0.46632  1.0000
  C   C3337     1.0  0.85768  0.56035  0.25288  1.0000
  C   C3338     1.0  0.90509  0.68775  0.42617  1.0000
  C   C3339     1.0  0.93086  0.65582  0.34552  1.0000
  H   H5728     1.0  0.98632  0.53640  0.35107  1.0000
  H   H5729     1.0  0.89135  0.69165  0.46500  1.0000
  H   H5730     1.0  0.91595  0.63567  0.32471  1.0000
  C   C3340     1.0  0.93051  0.66142  0.42512  1.0000
  H   H5731     1.0  0.99107  0.51988  0.45467  1.0000
  H   H5732     1.0  0.97568  0.65635  0.43040  1.0000
  S   S962      1.0  0.98913  0.63144  0.35996  1.0000
  C   C3341     1.0  0.94933  0.67407  0.32105  1.0000
  C   C3342     1.0  0.98545  0.59558  0.42129  1.0000
  C   C3343     1.0  0.99745  0.72284  0.40005  1.0000
  H   H5733     1.0  0.88767  0.70434  0.43540  1.0000
  H   H5734     1.0  0.89108  0.68110  0.45357  1.0000
  H   H5735     1.0  0.90157  0.71153  0.42120  1.0000
  H   H5736     1.0  0.92377  0.69281  0.31309  1.0000
  N   N239      1.0  0.92596  0.66388  0.33186  1.0000
  H   H5737     1.0  0.93724  0.66184  0.34839  1.0000
  C   C3344     1.0  0.92878  0.69201  0.42505  1.0000
  N   N240      1.0  0.91687  0.68449  0.43437  1.0000
  H   H5738     1.0  0.91345  0.66297  0.44401  1.0000
  H   H5739     1.0  0.96973  0.63069  0.41037  1.0000
  H   H5740     1.0  0.98416  0.73819  0.37558  1.0000
  H   H5741     1.0  0.90993  0.68631  0.41502  1.0000
  C   C3345     1.0  0.89839  0.68355  0.45878  1.0000
  H   H5742     1.0  0.90856  0.68536  0.31393  1.0000
  H   H5743     1.0  0.92330  0.64672  0.36815  1.0000
  S   S963      1.0  0.99245  0.53139  0.38185  1.0000
  H   H5744     1.0  0.98665  0.56303  0.38524  1.0000
  C   C3346     1.0  0.91033  0.51412  0.38297  1.0000
  C   C3347     1.0  0.98299  0.51302  0.45777  1.0000
  C   C3348     1.0  0.97512  0.58101  0.36285  1.0000
  H   H5745     1.0  0.90169  0.51444  0.39293  1.0000
  H   H5746     1.0  0.93618  0.66950  0.30931  1.0000
  N   N241      1.0  0.97304  0.74146  0.40593  1.0000
  H   H5747     1.0  0.86103  0.51737  0.26438  1.0000
  H   H5748     1.0  0.84825  0.53419  0.26272  1.0000
  C   C3349     1.0  0.99398  0.55361  0.43536  1.0000
  H   H5749     1.0  0.97487  0.50392  0.36443  1.0000
  H   H5750     1.0  0.87219  0.53554  0.26622  1.0000
  H   H5751     1.0  0.99969  0.60954  0.34093  1.0000
  H   H5752     1.0  0.98471  0.56256  0.43440  1.0000
  H   H5753     1.0  0.99991  0.55696  0.36352  1.0000
  H   H5754     1.0  0.00169  0.64264  0.39133  1.0000
  N   N242      1.0  0.99054  0.49737  0.45915  1.0000
  C   C3350     1.0  0.92560  0.50930  0.38635  1.0000
  C   C3351     1.0  0.88809  0.55624  0.25727  1.0000
  C   C3352     1.0  0.00254  0.68056  0.39065  1.0000
  H   H5755     1.0  0.88844  0.70480  0.41721  1.0000
  H   H5756     1.0  0.96438  0.51368  0.44885  1.0000
  C   C3353     1.0  0.86153  0.72463  0.47877  1.0000
  C   C3354     1.0  0.85555  0.57650  0.24578  1.0000
  H   H5757     1.0  0.99337  0.58658  0.44074  1.0000
  S   S964      1.0  0.98973  0.61081  0.45313  1.0000
  H   H5758     1.0  0.97726  0.65164  0.44859  1.0000
  H   H5759     1.0  0.99725  0.64801  0.32081  1.0000
  C   C3355     1.0  0.98952  0.73796  0.40284  1.0000
  C   C3356     1.0  0.99918  0.67473  0.38096  1.0000
  C   C3357     1.0  0.98205  0.65715  0.43765  1.0000
  H   H5760     1.0  0.99825  0.63842  0.43356  1.0000
  H   H5761     1.0  0.90843  0.50750  0.37675  1.0000
  H   H5762     1.0  0.84884  0.57936  0.23767  1.0000
  C   C3358     1.0  0.97254  0.73856  0.38102  1.0000
  H   H5763     1.0  0.98047  0.66877  0.43707  1.0000
  H   H5764     1.0  0.98656  0.60094  0.36700  1.0000
  H   H5765     1.0  0.95453  0.73151  0.41522  1.0000
  C   C3359     1.0  0.00268  0.57276  0.38676  1.0000
  C   C3360     1.0  0.99794  0.49285  0.47157  1.0000
  H   H5766     1.0  0.97850  0.49452  0.29600  1.0000
  C   C3361     1.0  0.00069  0.56801  0.35736  1.0000
  H   H5767     1.0  0.99778  0.51566  0.33785  1.0000
  C   C3362     1.0  0.99818  0.64984  0.43263  1.0000
  C   C3363     1.0  0.88481  0.55449  0.24368  1.0000
  C   C3364     1.0  0.99741  0.54349  0.42695  1.0000
  H   H5768     1.0  0.99349  0.73895  0.41186  1.0000
  H   H5769     1.0  0.99778  0.67103  0.44738  1.0000
  H   H5770     1.0  0.99691  0.53102  0.31579  1.0000
  H   H5771     1.0  0.99768  0.56923  0.34705  1.0000
  H   H5772     1.0  0.89407  0.54636  0.23914  1.0000
  H   H5773     1.0  0.97058  0.72756  0.38537  1.0000
  H   H5774     1.0  0.00067  0.65886  0.30323  1.0000
  H   H5775     1.0  0.99394  0.64877  0.46119  1.0000
  H   H5776     1.0  0.00222  0.62369  0.31206  1.0000
  H   H5777     1.0  0.99594  0.71428  0.40988  1.0000
  H   H5778     1.0  0.99876  0.59327  0.33726  1.0000
  C   C3365     1.0  0.00285  0.58087  0.29551  1.0000
  C   C3366     1.0  0.00241  0.55211  0.44512  1.0000
  H   H5779     1.0  0.91885  0.49401  0.41189  1.0000
  C   C3367     1.0  0.96778  0.49309  0.29565  1.0000
  C   C3368     1.0  0.00143  0.49551  0.44535  1.0000
  H   H5780     1.0  0.95871  0.49276  0.31805  1.0000
  H   H5781     1.0  0.96012  0.49342  0.40532  1.0000
  H   H5782     1.0  0.99836  0.61174  0.59143  1.0000
  H   H5783     1.0  0.98050  0.62230  0.59685  1.0000
  H   H5784     1.0  0.98725  0.51988  0.72039  1.0000
  Fe  Fe480     1.0  0.96769  0.67732  0.60157  1.0000
  S   S965      1.0  0.96162  0.69756  0.60973  1.0000
  S   S966      1.0  0.96751  0.65489  0.61491  1.0000
  Fe  Fe481     1.0  0.97932  0.69233  0.57102  1.0000
  S   S967      1.0  0.97462  0.71373  0.57654  1.0000
  H   H5785     1.0  0.97372  0.71690  0.64015  1.0000
  Fe  Fe482     1.0  0.98324  0.70143  0.59613  1.0000
  H   H5786     1.0  0.98279  0.62478  0.54639  1.0000
  Fe  Fe483     1.0  0.95341  0.70803  0.58947  1.0000
  S   S968      1.0  0.93268  0.72515  0.58907  1.0000
  H   H5787     1.0  0.98472  0.60396  0.60575  1.0000
  S   S969      1.0  0.95749  0.68732  0.58253  1.0000
  C   C3369     1.0  0.98653  0.68060  0.67993  1.0000
  H   H5788     1.0  0.86374  0.72378  0.61206  1.0000
  C   C3370     1.0  0.85711  0.71946  0.59505  1.0000
  H   H5789     1.0  0.98757  0.65716  0.65067  1.0000
  C   C3371     1.0  0.99213  0.66053  0.56499  1.0000
  S   S970      1.0  0.99163  0.68791  0.54949  1.0000
  C   C3372     1.0  0.00116  0.54997  0.70504  1.0000
  S   S971      1.0  0.97723  0.63314  0.71115  1.0000
  H   H5790     1.0  0.99830  0.63756  0.62536  1.0000
  N   N243      1.0  0.98476  0.68695  0.65335  1.0000
  H   H5791     1.0  0.88433  0.73079  0.61225  1.0000
  H   H5792     1.0  0.85962  0.70972  0.59067  1.0000
  H   H5793     1.0  0.97354  0.53835  0.73260  1.0000
  H   H5794     1.0  0.98129  0.54878  0.69231  1.0000
  H   H5795     1.0  0.89223  0.70363  0.61659  1.0000
  C   C3373     1.0  0.86911  0.71907  0.60247  1.0000
  H   H5796     1.0  0.99636  0.59369  0.63106  1.0000
  Fe  Fe484     1.0  0.00060  0.63215  0.69968  1.0000
  H   H5797     1.0  0.98930  0.57240  0.69828  1.0000
  N   N244      1.0  0.98884  0.54228  0.71222  1.0000
  H   H5798     1.0  0.90791  0.70566  0.60181  1.0000
  C   C3374     1.0  0.89113  0.71690  0.58263  1.0000
  Fe  Fe485     1.0  0.98225  0.60946  0.71205  1.0000
  C   C3375     1.0  0.96608  0.70953  0.64430  1.0000
  S   S972      1.0  0.98990  0.68053  0.58936  1.0000
  S   S973      1.0  0.99615  0.63670  0.67789  1.0000
  H   H5799     1.0  0.96136  0.69150  0.66160  1.0000
  C   C3376     1.0  0.98648  0.63412  0.53852  1.0000
  H   H5800     1.0  0.90552  0.71250  0.61712  1.0000
  C   C3377     1.0  0.99614  0.62284  0.51138  1.0000
  H   H5801     1.0  0.98746  0.59687  0.66625  1.0000
  C   C3378     1.0  0.00221  0.60459  0.53236  1.0000
  H   H5802     1.0  0.90244  0.71869  0.57940  1.0000
  C   C3379     1.0  0.98657  0.67546  0.66671  1.0000
  C   C3380     1.0  0.91667  0.73581  0.54778  1.0000
  C   C3381     1.0  0.96367  0.54140  0.70929  1.0000
  C   C3382     1.0  0.85403  0.72900  0.49158  1.0000
  C   C3383     1.0  0.92754  0.72991  0.57255  1.0000
  H   H5803     1.0  0.95512  0.71607  0.64808  1.0000
  C   C3384     1.0  0.85944  0.73769  0.49676  1.0000
  H   H5804     1.0  0.99519  0.70265  0.65534  1.0000
  C   C3385     1.0  0.92827  0.72411  0.55028  1.0000
  C   C3386     1.0  0.93368  0.72115  0.56264  1.0000
  H   H5805     1.0  0.93922  0.74104  0.52110  1.0000
  Fe  Fe486     1.0  0.97321  0.63544  0.68948  1.0000
  H   H5806     1.0  0.93286  0.71708  0.54282  1.0000
  H   H5807     1.0  0.94238  0.71189  0.56463  1.0000
  S   S974      1.0  0.97635  0.61171  0.69123  1.0000
  H   H5808     1.0  0.95744  0.59171  0.71774  1.0000
  H   H5809     1.0  0.98493  0.61879  0.62135  1.0000
  C   C3387     1.0  0.95724  0.58336  0.72743  1.0000
  S   S975      1.0  0.99746  0.54633  0.66399  1.0000
  H   H5810     1.0  0.97544  0.68615  0.68471  1.0000
  H   H5811     1.0  0.98581  0.64212  0.54467  1.0000
  S   S976      1.0  0.97802  0.59368  0.73314  1.0000
  H   H5812     1.0  0.97714  0.55569  0.72727  1.0000
  H   H5813     1.0  0.98448  0.62324  0.51686  1.0000
  H   H5814     1.0  0.97044  0.70282  0.66524  1.0000
  H   H5815     1.0  0.99025  0.60521  0.53583  1.0000
  C   C3388     1.0  0.96603  0.58226  0.73675  1.0000
  C   C3389     1.0  0.95739  0.65287  0.66285  1.0000
  C   C3390     1.0  0.95095  0.66508  0.65380  1.0000
  C   C3391     1.0  0.95377  0.66571  0.63905  1.0000
  C   C3392     1.0  0.96274  0.65399  0.63343  1.0000
  C   C3393     1.0  0.96846  0.64150  0.64266  1.0000
  C   C3394     1.0  0.96601  0.64103  0.65728  1.0000
  H   H5816     1.0  0.94414  0.67420  0.65812  1.0000
  H   H5817     1.0  0.94899  0.67523  0.63205  1.0000
  C   C3395     1.0  0.88644  0.71967  0.56843  1.0000
  H   H5818     1.0  0.97089  0.63151  0.66422  1.0000
  C   C3396     1.0  0.99422  0.61842  0.61187  1.0000
  H   H5819     1.0  0.99435  0.68757  0.67755  1.0000
  H   H5820     1.0  0.88775  0.73040  0.56173  1.0000
  S   S977      1.0  0.95551  0.65275  0.68087  1.0000
  C   C3397     1.0  0.87673  0.74113  0.58597  1.0000
  C   C3398     1.0  0.98395  0.68046  0.64163  1.0000
  H   H5821     1.0  0.99632  0.63398  0.50508  1.0000
  N   N245      1.0  0.88172  0.72572  0.59339  1.0000
  H   H5822     1.0  0.99214  0.61729  0.49341  1.0000
  H   H5823     1.0  0.85506  0.72913  0.58649  1.0000
  S   S978      1.0  0.90944  0.73854  0.53277  1.0000
  H   H5824     1.0  0.96532  0.70541  0.63538  1.0000
  C   C3399     1.0  0.89101  0.72575  0.60317  1.0000
  H   H5825     1.0  0.94136  0.57443  0.72353  1.0000
  H   H5826     1.0  0.98984  0.67105  0.68831  1.0000
  H   H5827     1.0  0.98727  0.68730  0.63087  1.0000
  H   H5828     1.0  0.99400  0.56852  0.71550  1.0000
  C   C3400     1.0  0.98245  0.54428  0.72730  1.0000
  H   H5829     1.0  0.84654  0.71984  0.60300  1.0000
  C   C3401     1.0  0.97696  0.54850  0.70393  1.0000
  H   H5830     1.0  0.98256  0.66501  0.57224  1.0000
  C   C3402     1.0  0.99835  0.64586  0.56828  1.0000
  H   H5831     1.0  0.00184  0.54566  0.73355  1.0000
  H   H5832     1.0  0.98022  0.57486  0.66611  1.0000
  H   H5833     1.0  0.89225  0.70520  0.58747  1.0000
  Fe  Fe487     1.0  0.99973  0.61294  0.68129  1.0000
  C   C3403     1.0  0.99756  0.56621  0.70465  1.0000
  C   C3404     1.0  0.91644  0.74206  0.56968  1.0000
  H   H5834     1.0  0.95931  0.54180  0.70001  1.0000
  H   H5835     1.0  0.89379  0.71176  0.56214  1.0000
  H   H5836     1.0  0.97235  0.56002  0.70423  1.0000
  H   H5837     1.0  0.99831  0.60196  0.50639  1.0000
  H   H5838     1.0  0.97252  0.68023  0.64226  1.0000
  C   C3405     1.0  0.99976  0.61297  0.50079  1.0000
  H   H5839     1.0  0.97773  0.66941  0.66996  1.0000
  C   C3406     1.0  0.89950  0.71092  0.60996  1.0000
  H   H5840     1.0  0.87309  0.70753  0.60717  1.0000
  C   C3407     1.0  0.98938  0.61364  0.60082  1.0000
  H   H5841     1.0  0.87519  0.71856  0.56990  1.0000
  C   C3408     1.0  0.97041  0.69736  0.65695  1.0000
  H   H5842     1.0  0.97881  0.63924  0.53129  1.0000
  H   H5843     1.0  0.97509  0.63229  0.63851  1.0000
  C   C3409     1.0  0.94813  0.57360  0.73074  1.0000
  C   C3410     1.0  0.99481  0.52646  0.71264  1.0000
  H   H5844     1.0  0.95492  0.54717  0.71686  1.0000
  C   C3411     1.0  0.99141  0.57446  0.66596  1.0000
  C   C3412     1.0  0.00232  0.63017  0.53004  1.0000
  C   C3413     1.0  0.87246  0.74190  0.48909  1.0000
  H   H5845     1.0  0.00107  0.61268  0.63800  1.0000
  C   C3414     1.0  0.99244  0.66485  0.64137  1.0000
  H   H5846     1.0  0.99514  0.62979  0.60706  1.0000
  H   H5847     1.0  0.99153  0.66207  0.63167  1.0000
  C   C3415     1.0  0.99551  0.58687  0.66606  1.0000
  H   H5848     1.0  0.89928  0.73235  0.59736  1.0000
  H   H5849     1.0  0.96622  0.52994  0.71466  1.0000
  H   H5850     1.0  0.99360  0.63919  0.57810  1.0000
  C   C3416     1.0  0.99833  0.66935  0.55247  1.0000
  H   H5851     1.0  0.84393  0.72576  0.49742  1.0000
  H   H5852     1.0  0.98877  0.52411  0.69379  1.0000
  H   H5853     1.0  0.99691  0.66735  0.66474  1.0000
  C   C3417     1.0  0.99671  0.69524  0.64823  1.0000
  H   H5854     1.0  0.99626  0.70233  0.63743  1.0000
  H   H5855     1.0  0.00307  0.67808  0.61067  1.0000
  S   S979      1.0  0.99867  0.70888  0.60399  1.0000
  C   C3418     1.0  0.99857  0.52203  0.69818  1.0000
  C   C3419     1.0  0.00194  0.56168  0.66521  1.0000
  H   H5856     1.0  0.95509  0.73757  0.50725  1.0000
  H   H5857     1.0  0.00254  0.60707  0.55360  1.0000
  H   H5858     1.0  0.99717  0.49211  0.64785  1.0000
  S   S980      1.0  0.94801  0.53260  0.78414  1.0000
  H   H5859     1.0  0.55710  0.69925  0.95429  1.0000
  H   H5860     1.0  0.91277  0.51412  0.85311  1.0000
  Fe  Fe488     1.0  0.74896  0.57705  0.95052  1.0000
  S   S981      1.0  0.76932  0.57139  0.95872  1.0000
  S   S982      1.0  0.74290  0.59739  0.93457  1.0000
  Fe  Fe489     1.0  0.76956  0.54869  0.95875  1.0000
  S   S983      1.0  0.79164  0.53488  0.95140  1.0000
  C   C3420     1.0  0.91129  0.55821  0.77831  1.0000
  H   H5861     1.0  0.56838  0.67493  0.94913  1.0000
  S   S984      1.0  0.75021  0.55475  0.94864  1.0000
  H   H5862     1.0  0.87543  0.53613  0.80989  1.0000
  Fe  Fe490     1.0  0.66385  0.63176  0.95691  1.0000
  S   S985      1.0  0.67248  0.65165  0.95226  1.0000
  S   S986      1.0  0.67440  0.60991  0.95237  1.0000
  H   H5863     1.0  0.94983  0.49406  0.82940  1.0000
  S   S987      1.0  0.64058  0.66542  0.97164  1.0000
  H   H5864     1.0  0.89537  0.52308  0.84024  1.0000
  Fe  Fe491     1.0  0.64999  0.66335  0.94882  1.0000
  S   S988      1.0  0.64632  0.68068  0.92917  1.0000
  H   H5865     1.0  0.91890  0.52402  0.87644  1.0000
  C   C3421     1.0  0.75734  0.55774  0.90894  1.0000
  S   S989      1.0  0.64219  0.64329  0.95181  1.0000
  C   C3422     1.0  0.57986  0.64888  0.97366  1.0000
  H   H5866     1.0  0.75304  0.58010  0.90005  1.0000
  Fe  Fe492     1.0  0.93453  0.51630  0.79582  1.0000
  H   H5867     1.0  0.89468  0.54877  0.80465  1.0000
  H   H5868     1.0  0.66653  0.55661  0.97829  1.0000
  C   C3423     1.0  0.71257  0.63678  0.98176  1.0000
  S   S990      1.0  0.65591  0.63108  0.98025  1.0000
  H   H5869     1.0  0.89027  0.58683  0.76401  1.0000
  H   H5870     1.0  0.74556  0.55763  0.91301  1.0000
  H   H5871     1.0  0.91456  0.56566  0.76790  1.0000
  C   C3424     1.0  0.73455  0.62416  0.96739  1.0000
  S   S991      1.0  0.57177  0.72796  0.90555  1.0000
  C   C3425     1.0  0.71138  0.61744  0.97113  1.0000
  H   H5872     1.0  0.52667  0.72157  0.85451  1.0000
  H   H5873     1.0  0.60154  0.64994  0.96153  1.0000
  H   H5874     1.0  0.57491  0.67694  0.98310  1.0000
  H   H5875     1.0  0.58216  0.74127  0.84338  1.0000
  C   C3426     1.0  0.84615  0.49908  0.93223  1.0000
  H   H5876     1.0  0.54290  0.71313  0.86098  1.0000
  H   H5877     1.0  0.90181  0.58724  0.77515  1.0000
  H   H5878     1.0  0.00028  0.57375  0.74635  1.0000
  H   H5879     1.0  0.81525  0.50075  0.94928  1.0000
  C   C3427     1.0  0.90314  0.51463  0.82114  1.0000
  H   H5880     1.0  0.85186  0.50637  0.93409  1.0000
  Fe  Fe493     1.0  0.82762  0.50664  0.88343  1.0000
  S   S992      1.0  0.84452  0.51850  0.86857  1.0000
  S   S993      1.0  0.80429  0.51684  0.89234  1.0000
  H   H5881     1.0  0.57293  0.69970  0.95951  1.0000
  C   C3428     1.0  0.89077  0.58640  0.77509  1.0000
  S   S994      1.0  0.71634  0.54451  0.98013  1.0000
  C   C3429     1.0  0.77409  0.59010  0.90459  1.0000
  H   H5882     1.0  0.87872  0.55864  0.77153  1.0000
  H   H5883     1.0  0.85297  0.49505  0.92270  1.0000
  H   H5884     1.0  0.99243  0.59912  0.75851  1.0000
  H   H5885     1.0  0.59667  0.68698  0.93747  1.0000
  S   S995      1.0  0.96231  0.51284  0.76006  1.0000
  Fe  Fe494     1.0  0.94280  0.53049  0.76448  1.0000
  H   H5886     1.0  0.54282  0.72027  0.88217  1.0000
  C   C3430     1.0  0.88640  0.57287  0.78574  1.0000
  H   H5887     1.0  0.53044  0.73757  0.86708  1.0000
  C   C3431     1.0  0.91176  0.51926  0.87307  1.0000
  Fe  Fe495     1.0  0.85939  0.50379  0.88265  1.0000
  C   C3432     1.0  0.55284  0.72406  0.88076  1.0000
  C   C3433     1.0  0.87965  0.51348  0.83740  1.0000
  H   H5888     1.0  0.90746  0.50564  0.80267  1.0000
  H   H5889     1.0  0.89427  0.49905  0.93243  1.0000
  S   S996      1.0  0.92777  0.51542  0.77644  1.0000
  S   S997      1.0  0.85928  0.50197  0.83349  1.0000
  C   C3434     1.0  0.89221  0.54682  0.79521  1.0000
  H   H5890     1.0  0.56546  0.67543  0.96715  1.0000
  C   C3435     1.0  0.88606  0.50431  0.81588  1.0000
  H   H5891     1.0  0.51097  0.51402  0.98713  1.0000
  H   H5892     1.0  0.80502  0.56728  0.90307  1.0000
  H   H5893     1.0  0.73256  0.62990  0.95655  1.0000
  S   S998      1.0  0.75658  0.54416  0.98146  1.0000
  H   H5894     1.0  0.90249  0.52791  0.86987  1.0000
  H   H5895     1.0  0.76308  0.54926  0.91658  1.0000
  H   H5896     1.0  0.92017  0.55056  0.79776  1.0000
  H   H5897     1.0  0.56463  0.71782  0.86092  1.0000
  H   H5898     1.0  0.64863  0.57549  0.97984  1.0000
  Fe  Fe496     1.0  0.63481  0.64434  0.97489  1.0000
  C   C3436     1.0  0.92024  0.51225  0.86031  1.0000
  H   H5899     1.0  0.68387  0.54864  0.98250  1.0000
  Fe  Fe497     1.0  0.54848  0.73982  0.91109  1.0000
  S   S999      1.0  0.58640  0.72528  0.94033  1.0000
  C   C3437     1.0  0.99320  0.53943  0.73731  1.0000
  H   H5900     1.0  0.83561  0.50568  0.92986  1.0000
  C   C3438     1.0  0.96569  0.57146  0.74927  1.0000
  H   H5901     1.0  0.77636  0.56630  0.92627  1.0000
  Fe  Fe498     1.0  0.85108  0.50034  0.85718  1.0000
  C   C3439     1.0  0.95685  0.56162  0.75240  1.0000
  C   C3440     1.0  0.88124  0.49945  0.90410  1.0000
  C   C3441     1.0  0.88661  0.50436  0.91298  1.0000
  C   C3442     1.0  0.91760  0.56069  0.78975  1.0000
  H   H5902     1.0  0.97249  0.57053  0.75649  1.0000
  H   H5903     1.0  0.95711  0.55316  0.76184  1.0000
  H   H5904     1.0  0.92817  0.51899  0.85387  1.0000
  H   H5905     1.0  0.78411  0.55366  0.91550  1.0000
  Fe  Fe499     1.0  0.73719  0.55219  0.97136  1.0000
  C   C3443     1.0  0.56083  0.72791  0.86495  1.0000
  C   C3444     1.0  0.75936  0.57280  0.90798  1.0000
  S   S1000     1.0  0.73429  0.57501  0.97230  1.0000
  H   H5906     1.0  0.87197  0.51569  0.84709  1.0000
  C   C3445     1.0  0.78237  0.57266  0.88917  1.0000
  C   C3446     1.0  0.57254  0.67857  0.95652  1.0000
  N   N246      1.0  0.58839  0.67138  0.95604  1.0000
  C   C3447     1.0  0.59651  0.67535  0.94066  1.0000
  H   H5907     1.0  0.77465  0.57723  0.88187  1.0000
  C   C3448     1.0  0.51698  0.73654  0.90473  1.0000
  C   C3449     1.0  0.89052  0.49506  0.92540  1.0000
  H   H5908     1.0  0.80373  0.55818  0.92149  1.0000
  H   H5909     1.0  0.98712  0.54136  0.74808  1.0000
  H   H5910     1.0  0.79129  0.57867  0.88468  1.0000
  C   C3450     1.0  0.94648  0.49851  0.83917  1.0000
  N   N247      1.0  0.77481  0.57484  0.90411  1.0000
  H   H5911     1.0  0.76645  0.60077  0.88449  1.0000
  H   H5912     1.0  0.61906  0.66864  0.94384  1.0000
  H   H5913     1.0  0.80149  0.55456  0.88748  1.0000
  C   C3451     1.0  0.87608  0.50697  0.82853  1.0000
  H   H5914     1.0  0.75356  0.57566  0.91847  1.0000
  C   C3452     1.0  0.87644  0.54460  0.79989  1.0000
  C   C3453     1.0  0.63045  0.69424  0.93182  1.0000
  C   C3454     1.0  0.62446  0.69758  0.94526  1.0000
  C   C3455     1.0  0.61129  0.70773  0.94750  1.0000
  C   C3456     1.0  0.60384  0.71430  0.93643  1.0000
  C   C3457     1.0  0.61000  0.71131  0.92284  1.0000
  C   C3458     1.0  0.62337  0.70135  0.92052  1.0000
  H   H5915     1.0  0.63003  0.69245  0.95390  1.0000
  H   H5916     1.0  0.60666  0.71020  0.95796  1.0000
  H   H5917     1.0  0.60435  0.71645  0.91422  1.0000
  H   H5918     1.0  0.62804  0.69886  0.91007  1.0000
  H   H5919     1.0  0.76641  0.61262  0.89511  1.0000
  H   H5920     1.0  0.61757  0.67188  0.92579  1.0000
  H   H5921     1.0  0.56017  0.71512  0.88664  1.0000
  C   C3459     1.0  0.89968  0.50799  0.81227  1.0000
  H   H5922     1.0  0.59095  0.67356  0.93319  1.0000
  C   C3460     1.0  0.61257  0.66730  0.93705  1.0000
  H   H5923     1.0  0.78462  0.54863  0.89553  1.0000
  C   C3461     1.0  0.56910  0.69515  0.95264  1.0000
  H   H5924     1.0  0.89968  0.53637  0.79362  1.0000
  C   C3462     1.0  0.78280  0.56506  0.91536  1.0000
  N   N248      1.0  0.89518  0.55868  0.78224  1.0000
  H   H5925     1.0  0.87463  0.57402  0.78628  1.0000
  C   C3463     1.0  0.89079  0.55685  0.76965  1.0000
  Fe  Fe500     1.0  0.96643  0.51384  0.78062  1.0000
  C   C3464     1.0  0.79502  0.52920  0.93538  1.0000
  C   C3465     1.0  0.80926  0.52704  0.92700  1.0000
  C   C3466     1.0  0.81226  0.52291  0.91394  1.0000
  C   C3467     1.0  0.80100  0.52092  0.90918  1.0000
  C   C3468     1.0  0.78678  0.52286  0.91766  1.0000
  C   C3469     1.0  0.78379  0.52691  0.93079  1.0000
  H   H5926     1.0  0.81794  0.52890  0.93049  1.0000
  H   H5927     1.0  0.82321  0.52163  0.90737  1.0000
  S   S1001     1.0  0.87527  0.51159  0.88932  1.0000
  H   H5928     1.0  0.63097  0.59696  0.97704  1.0000
  C   C3470     1.0  0.72384  0.60106  0.93781  1.0000
  C   C3471     1.0  0.71577  0.61521  0.93504  1.0000
  C   C3472     1.0  0.70047  0.61809  0.93931  1.0000
  C   C3473     1.0  0.69333  0.60676  0.94603  1.0000
  C   C3474     1.0  0.70142  0.59261  0.94823  1.0000
  C   C3475     1.0  0.71664  0.58977  0.94424  1.0000
  H   H5929     1.0  0.72132  0.62396  0.93003  1.0000
  H   H5930     1.0  0.69422  0.62903  0.93741  1.0000
  H   H5931     1.0  0.69593  0.58382  0.95332  1.0000
  H   H5932     1.0  0.72278  0.57880  0.94622  1.0000
  H   H5933     1.0  0.59673  0.68742  0.96021  1.0000
  H   H5934     1.0  0.88303  0.59610  0.77831  1.0000
  C   C3476     1.0  0.59495  0.67641  0.96523  1.0000
  H   H5935     1.0  0.91756  0.54750  0.77629  1.0000
  H   H5936     1.0  0.89494  0.53302  0.77415  1.0000
  C   C3477     1.0  0.89303  0.51751  0.83359  1.0000
  H   H5937     1.0  0.99812  0.52776  0.73882  1.0000
  H   H5938     1.0  0.61364  0.65571  0.93782  1.0000
  S   S1002     1.0  0.91994  0.51951  0.81702  1.0000
  C   C3478     1.0  0.59026  0.65525  0.96006  1.0000
  H   H5939     1.0  0.75255  0.60264  0.90080  1.0000
  H   H5940     1.0  0.58890  0.65130  0.95121  1.0000
  C   C3479     1.0  0.76428  0.60206  0.89563  1.0000
  H   H5941     1.0  0.94691  0.49328  0.89008  1.0000
  H   H5942     1.0  0.57374  0.69945  0.94122  1.0000
  H   H5943     1.0  0.79760  0.57717  0.91725  1.0000
  H   H5944     1.0  0.64021  0.60674  0.98261  1.0000
  C   C3480     1.0  0.78969  0.55704  0.88756  1.0000
  H   H5945     1.0  0.88671  0.57350  0.79661  1.0000
  H   H5946     1.0  0.00171  0.57561  0.76272  1.0000
  S   S1003     1.0  0.52994  0.72882  0.91537  1.0000
  H   H5947     1.0  0.88731  0.51551  0.91049  1.0000
  H   H5948     1.0  0.92772  0.56476  0.78440  1.0000
  H   H5949     1.0  0.60613  0.66984  0.96575  1.0000
  H   H5950     1.0  0.97582  0.49681  0.80644  1.0000
  H   H5951     1.0  0.76048  0.55511  0.89824  1.0000
  C   C3481     1.0  0.58668  0.67648  0.98090  1.0000
  H   H5952     1.0  0.75013  0.60440  0.97508  1.0000
  Fe  Fe501     1.0  0.66236  0.65203  0.97543  1.0000
  H   H5953     1.0  0.68094  0.57419  0.97904  1.0000
  N   N249      1.0  0.92788  0.49666  0.86368  1.0000
  H   H5954     1.0  0.91029  0.56896  0.79550  1.0000
  H   H5955     1.0  0.89396  0.56511  0.75991  1.0000
  H   H5956     1.0  0.75521  0.61260  0.95656  1.0000
  H   H5957     1.0  0.78922  0.55594  0.87694  1.0000
  H   H5958     1.0  0.78512  0.59259  0.90078  1.0000
  S   S1004     1.0  0.95350  0.49759  0.79436  1.0000
  H   H5959     1.0  0.86839  0.55441  0.80236  1.0000
  H   H5960     1.0  0.89267  0.54204  0.75651  1.0000
  H   H5961     1.0  0.55021  0.73313  0.88607  1.0000
  C   C3482     1.0  0.79817  0.56720  0.91401  1.0000
  C   C3483     1.0  0.93703  0.49304  0.88687  1.0000
  H   H5962     1.0  0.77031  0.59157  0.91582  1.0000
  C   C3484     1.0  0.99659  0.50067  0.79355  1.0000
  H   H5963     1.0  0.71048  0.62448  0.96043  1.0000
  S   S1005     1.0  0.98943  0.51391  0.78002  1.0000
  S   S1006     1.0  0.93740  0.54981  0.74687  1.0000
  H   H5964     1.0  0.56850  0.65155  0.97227  1.0000
  H   H5965     1.0  0.90658  0.51195  0.88243  1.0000
  C   C3485     1.0  0.94046  0.49482  0.87048  1.0000
  H   H5966     1.0  0.58340  0.63697  0.97578  1.0000
  H   H5967     1.0  0.92814  0.50167  0.89074  1.0000
  H   H5968     1.0  0.90933  0.54077  0.76101  1.0000
  C   C3486     1.0  0.53804  0.72242  0.85329  1.0000
  H   H5969     1.0  0.77282  0.52835  0.93730  1.0000
  H   H5970     1.0  0.65874  0.58873  0.97172  1.0000
  C   C3487     1.0  0.91896  0.49449  0.96370  1.0000
  H   H5971     1.0  0.77805  0.52127  0.91404  1.0000
  N   N250      1.0  0.55231  0.73973  0.85524  1.0000
  C   C3488     1.0  0.74578  0.61009  0.96536  1.0000
  H   H5972     1.0  0.69963  0.64674  0.96515  1.0000
  H   H5973     1.0  0.71683  0.60657  0.96902  1.0000
  H   H5974     1.0  0.91335  0.50539  0.95876  1.0000
  H   H5975     1.0  0.54391  0.72162  0.84218  1.0000
  H   H5976     1.0  0.74005  0.63104  0.97018  1.0000
  H   H5977     1.0  0.58751  0.68622  0.98373  1.0000
  C   C3489     1.0  0.89741  0.54225  0.76531  1.0000
  H   H5978     1.0  0.87353  0.54084  0.79182  1.0000
  C   C3490     1.0  0.70800  0.64895  0.96925  1.0000
  H   H5979     1.0  0.74116  0.60283  0.96221  1.0000
  H   H5980     1.0  0.94598  0.50400  0.86562  1.0000
  H   H5981     1.0  0.94298  0.51031  0.83557  1.0000
  C   C3491     1.0  0.63768  0.59603  0.98470  1.0000
  H   H5982     1.0  0.71956  0.64075  0.98617  1.0000
  H   H5983     1.0  0.57098  0.73079  0.86505  1.0000
  Fe  Fe502     1.0  0.57535  0.73711  0.92210  1.0000
  C   C3492     1.0  0.53767  0.73690  0.85634  1.0000
  C   C3493     1.0  0.98746  0.49363  0.80527  1.0000
  H   H5984     1.0  0.89741  0.49915  0.86563  1.0000
  H   H5985     1.0  0.50382  0.72093  0.91576  1.0000
  N   N251      1.0  0.72035  0.62249  0.97799  1.0000
  H   H5986     1.0  0.70297  0.65903  0.97317  1.0000
  H   H5987     1.0  0.71742  0.65110  0.96035  1.0000
  H   H5988     1.0  0.92536  0.49408  0.84365  1.0000
  C   C3494     1.0  0.50499  0.73040  0.90729  1.0000
  Fe  Fe503     1.0  0.75467  0.56737  0.98051  1.0000
  C   C3495     1.0  0.69572  0.61657  0.97969  1.0000
  C   C3496     1.0  0.94803  0.56261  0.74320  1.0000
  H   H5989     1.0  0.56497  0.72953  0.83768  1.0000
  S   S1007     1.0  0.84200  0.49348  0.89849  1.0000
  H   H5990     1.0  0.80242  0.49675  0.94220  1.0000
  H   H5991     1.0  0.88333  0.49921  0.80903  1.0000
  H   H5992     1.0  0.58024  0.65198  0.98331  1.0000
  C   C3497     1.0  0.00220  0.60375  0.75328  1.0000
  H   H5993     1.0  0.99808  0.61528  0.74867  1.0000
  H   H5994     1.0  0.69028  0.61307  0.97332  1.0000
  C   C3498     1.0  0.56103  0.74045  0.84003  1.0000
  H   H5995     1.0  0.67004  0.59777  0.98470  1.0000
  C   C3499     1.0  0.65175  0.58434  0.98208  1.0000
  H   H5996     1.0  0.68899  0.62713  0.98164  1.0000
  H   H5997     1.0  0.92219  0.49557  0.97307  1.0000
  H   H5998     1.0  0.95632  0.49588  0.84362  1.0000
  Fe  Fe504     1.0  0.94800  0.49787  0.77400  1.0000
  H   H5999     1.0  0.74142  0.52070  0.98083  1.0000
  C   C3500     1.0  0.67278  0.55479  0.98655  1.0000
  H   H6000     1.0  0.58089  0.82221  0.17616  1.0000
  C   C3501     1.0  0.53594  0.75323  0.19922  1.0000
  S   S1008     1.0  0.60397  0.79966  0.20298  1.0000
  H   H6001     1.0  0.53283  0.81092  0.03743  1.0000
  S   S1009     1.0  0.60337  0.86849  0.18960  1.0000
  S   S1010     1.0  0.60769  0.83224  0.21484  1.0000
  H   H6002     1.0  0.67105  0.86666  0.18950  1.0000
  H   H6003     1.0  0.53571  0.82393  0.02115  1.0000
  Fe  Fe505     1.0  0.56904  0.88806  0.12763  1.0000
  S   S1011     1.0  0.55198  0.89180  0.14735  1.0000
  S   S1012     1.0  0.59271  0.88471  0.12721  1.0000
  Fe  Fe506     1.0  0.54669  0.89138  0.11062  1.0000
  S   S1013     1.0  0.52784  0.89538  0.12903  1.0000
  S   S1014     1.0  0.54383  0.89140  0.08911  1.0000
  Fe  Fe507     1.0  0.54027  0.90951  0.13236  1.0000
  S   S1015     1.0  0.52836  0.93070  0.13831  1.0000
  Fe  Fe508     1.0  0.54150  0.87730  0.14192  1.0000
  S   S1016     1.0  0.55816  0.90688  0.11291  1.0000
  S   S1017     1.0  0.55952  0.87216  0.12331  1.0000
  H   H6004     1.0  0.62192  0.88049  0.20310  1.0000
  C   C3502     1.0  0.51702  0.74581  0.15059  1.0000
  S   S1018     1.0  0.52213  0.83606  0.06113  1.0000
  C   C3503     1.0  0.58170  0.82994  0.16560  1.0000
  Fe  Fe509     1.0  0.59342  0.81937  0.21234  1.0000
  C   C3504     1.0  0.54146  0.86849  0.18906  1.0000
  Fe  Fe510     1.0  0.51957  0.81330  0.06982  1.0000
  S   S1019     1.0  0.53794  0.79379  0.07101  1.0000
  N   N252      1.0  0.58250  0.92451  0.15342  1.0000
  H   H6005     1.0  0.54015  0.85742  0.19048  1.0000
  C   C3505     1.0  0.53226  0.83412  0.13396  1.0000
  H   H6006     1.0  0.52183  0.79780  0.02802  1.0000
  S   S1020     1.0  0.52417  0.75976  0.15150  1.0000
  H   H6007     1.0  0.52145  0.83242  0.00363  1.0000
  H   H6008     1.0  0.58544  0.94925  0.13298  1.0000
  C   C3506     1.0  0.51884  0.83292  0.22666  1.0000
  C   C3507     1.0  0.53122  0.88123  0.09064  1.0000
  S   S1021     1.0  0.56636  0.76899  0.18402  1.0000
  H   H6009     1.0  0.65299  0.99145  0.23417  1.0000
  H   H6010     1.0  0.54469  0.92704  0.16309  1.0000
  C   C3508     1.0  0.52266  0.86584  0.08118  1.0000
  C   C3509     1.0  0.53256  0.87426  0.07978  1.0000
  Fe  Fe511     1.0  0.50470  0.83802  0.04962  1.0000
  H   H6011     1.0  0.54144  0.87510  0.07044  1.0000
  C   C3510     1.0  0.55532  0.96501  0.12543  1.0000
  C   C3511     1.0  0.54201  0.96651  0.13543  1.0000
  C   C3512     1.0  0.53364  0.95608  0.13913  1.0000
  C   C3513     1.0  0.53862  0.94404  0.13297  1.0000
  C   C3514     1.0  0.55184  0.94267  0.12286  1.0000
  C   C3515     1.0  0.56009  0.95318  0.11900  1.0000
  H   H6012     1.0  0.53381  0.79450  0.23006  1.0000
  H   H6013     1.0  0.52339  0.95725  0.14692  1.0000
  H   H6014     1.0  0.55579  0.93351  0.11801  1.0000
  H   H6015     1.0  0.57033  0.95201  0.11120  1.0000
  C   C3516     1.0  0.60087  0.87158  0.17224  1.0000
  C   C3517     1.0  0.61128  0.87689  0.16062  1.0000
  C   C3518     1.0  0.60902  0.88027  0.14670  1.0000
  C   C3519     1.0  0.59618  0.87869  0.14444  1.0000
  C   C3520     1.0  0.58595  0.87299  0.15603  1.0000
  C   C3521     1.0  0.58830  0.86942  0.16994  1.0000
  H   H6016     1.0  0.62107  0.87847  0.16238  1.0000
  H   H6017     1.0  0.61708  0.88441  0.13772  1.0000
  H   H6018     1.0  0.57627  0.87129  0.15428  1.0000
  H   H6019     1.0  0.58019  0.86542  0.17892  1.0000
  C   C3522     1.0  0.59372  0.79222  0.19614  1.0000
  C   C3523     1.0  0.57870  0.79751  0.19744  1.0000
  C   C3524     1.0  0.57066  0.79079  0.19271  1.0000
  H   H6020     1.0  0.57323  0.80647  0.20251  1.0000
  H   H6021     1.0  0.55900  0.79449  0.19422  1.0000
  C   C3525     1.0  0.56592  0.79144  0.10158  1.0000
  H   H6022     1.0  0.53839  0.94414  0.08027  1.0000
  C   C3526     1.0  0.55824  0.78018  0.08716  1.0000
  C   C3527     1.0  0.54910  0.79323  0.08227  1.0000
  C   C3528     1.0  0.54876  0.80553  0.08665  1.0000
  C   C3529     1.0  0.55750  0.80469  0.09599  1.0000
  C   C3530     1.0  0.52770  0.82398  0.99750  1.0000
  C   C3531     1.0  0.50466  0.74922  0.21380  1.0000
  H   H6023     1.0  0.54193  0.81571  0.08271  1.0000
  H   H6024     1.0  0.54387  0.80682  0.13407  1.0000
  C   C3532     1.0  0.50661  0.86694  0.15451  1.0000
  C   C3533     1.0  0.52693  0.79704  0.13365  1.0000
  H   H6025     1.0  0.51243  0.81613  0.02555  1.0000
  H   H6026     1.0  0.54245  0.87405  0.17765  1.0000
  H   H6027     1.0  0.51826  0.96341  0.08663  1.0000
  H   H6028     1.0  0.54531  0.83367  0.11199  1.0000
  S   S1022     1.0  0.57537  0.79011  0.11463  1.0000
  C   C3534     1.0  0.51162  0.74776  0.09660  1.0000
  H   H6029     1.0  0.61227  0.77631  0.18861  1.0000
  H   H6030     1.0  0.57922  0.93000  0.13166  1.0000
  C   C3535     1.0  0.50977  0.86538  0.20003  1.0000
  H   H6031     1.0  0.58256  0.90193  0.16276  1.0000
  C   C3536     1.0  0.53338  0.81038  0.13051  1.0000
  H   H6032     1.0  0.51982  0.83848  0.17922  1.0000
  H   H6033     1.0  0.57324  0.76905  0.10095  1.0000
  C   C3537     1.0  0.51215  0.84605  0.17320  1.0000
  H   H6034     1.0  0.55888  0.77073  0.08349  1.0000
  H   H6035     1.0  0.51808  0.90526  0.16424  1.0000
  H   H6036     1.0  0.64812  0.85993  0.19372  1.0000
  H   H6037     1.0  0.54729  0.79885  0.00299  1.0000
  H   H6038     1.0  0.52022  0.77482  0.11816  1.0000
  C   C3538     1.0  0.59101  0.93506  0.15325  1.0000
  H   H6039     1.0  0.51027  0.80919  0.99253  1.0000
  Fe  Fe512     1.0  0.59211  0.83511  0.23568  1.0000
  C   C3539     1.0  0.59257  0.77385  0.18478  1.0000
  H   H6040     1.0  0.53646  0.81368  0.11866  1.0000
  H   H6041     1.0  0.50445  0.78640  0.11149  1.0000
  H   H6042     1.0  0.55694  0.91861  0.14937  1.0000
  N   N253      1.0  0.58482  0.82214  0.15373  1.0000
  C   C3540     1.0  0.57169  0.81604  0.15571  1.0000
  C   C3541     1.0  0.59766  0.80962  0.15529  1.0000
  C   C3542     1.0  0.58729  0.83180  0.13896  1.0000
  C   C3543     1.0  0.57338  0.80579  0.14597  1.0000
  C   C3544     1.0  0.61189  0.81293  0.15584  1.0000
  C   C3545     1.0  0.59580  0.84356  0.13655  1.0000
  H   H6043     1.0  0.56200  0.82480  0.15378  1.0000
  H   H6044     1.0  0.59065  0.83501  0.16491  1.0000
  H   H6045     1.0  0.59474  0.80147  0.16521  1.0000
  H   H6046     1.0  0.60061  0.80403  0.14631  1.0000
  H   H6047     1.0  0.59295  0.82532  0.13071  1.0000
  H   H6048     1.0  0.57661  0.83768  0.13615  1.0000
  H   H6049     1.0  0.58069  0.79524  0.14920  1.0000
  H   H6050     1.0  0.56261  0.80352  0.14716  1.0000
  H   H6051     1.0  0.57726  0.81049  0.13447  1.0000
  H   H6052     1.0  0.55788  0.83708  0.17143  1.0000
  H   H6053     1.0  0.61058  0.81800  0.16482  1.0000
  H   H6054     1.0  0.61676  0.81935  0.14547  1.0000
  H   H6055     1.0  0.61998  0.80260  0.15777  1.0000
  H   H6056     1.0  0.60264  0.84496  0.12549  1.0000
  H   H6057     1.0  0.60320  0.84148  0.14378  1.0000
  H   H6058     1.0  0.58812  0.85411  0.13698  1.0000
  S   S1023     1.0  0.58886  0.75671  0.14575  1.0000
  H   H6059     1.0  0.51082  0.79072  0.17996  1.0000
  H   H6060     1.0  0.58409  0.76005  0.22885  1.0000
  S   S1024     1.0  0.57749  0.85500  0.22590  1.0000
  C   C3546     1.0  0.64781  0.83910  0.21816  1.0000
  H   H6061     1.0  0.58134  0.91162  0.13961  1.0000
  H   H6062     1.0  0.60673  0.87540  0.21634  1.0000
  H   H6063     1.0  0.53563  0.78695  0.00897  1.0000
  H   H6064     1.0  0.53814  0.97570  0.14031  1.0000
  H   H6065     1.0  0.53635  0.75762  0.08617  1.0000
  H   H6066     1.0  0.54686  0.76434  0.22414  1.0000
  N   N254      1.0  0.51160  0.93519  0.09670  1.0000
  H   H6067     1.0  0.53593  0.80075  0.15911  1.0000
  N   N255      1.0  0.64239  0.85511  0.21688  1.0000
  H   H6068     1.0  0.62929  0.82951  0.23158  1.0000
  H   H6069     1.0  0.62003  0.85302  0.22648  1.0000
  H   H6070     1.0  0.51929  0.87971  0.17412  1.0000
  N   N256      1.0  0.52359  0.82288  0.13667  1.0000
  C   C3547     1.0  0.50525  0.79409  0.01212  1.0000
  Fe  Fe513     1.0  0.56980  0.76064  0.16412  1.0000
  H   H6071     1.0  0.52394  0.86018  0.07296  1.0000
  H   H6072     1.0  0.52894  0.75121  0.18132  1.0000
  S   S1025     1.0  0.50578  0.84760  0.02618  1.0000
  C   C3548     1.0  0.53879  0.74888  0.10768  1.0000
  H   H6073     1.0  0.52323  0.91931  0.08406  1.0000
  H   H6074     1.0  0.60556  0.92864  0.12679  1.0000
  S   S1026     1.0  0.57945  0.83839  0.20066  1.0000
  H   H6075     1.0  0.55201  0.86739  0.19179  1.0000
  H   H6076     1.0  0.58848  0.91844  0.18186  1.0000
  H   H6077     1.0  0.64594  0.87475  0.20140  1.0000
  H   H6078     1.0  0.54590  0.80543  0.02250  1.0000
  H   H6079     1.0  0.53528  0.78869  0.12856  1.0000
  H   H6080     1.0  0.55753  0.81426  0.09909  1.0000
  H   H6081     1.0  0.51796  0.94436  0.07399  1.0000
  C   C3549     1.0  0.50677  0.77133  0.19547  1.0000
  C   C3550     1.0  0.52275  0.80875  0.02150  1.0000
  H   H6082     1.0  0.52414  0.79220  0.14526  1.0000
  H   H6083     1.0  0.54123  0.81412  0.19574  1.0000
  H   H6084     1.0  0.54292  0.92472  0.08606  1.0000
  C   C3551     1.0  0.51020  0.80816  0.00389  1.0000
  H   H6085     1.0  0.60867  0.91049  0.13743  1.0000
  H   H6086     1.0  0.52723  0.92611  0.11020  1.0000
  H   H6087     1.0  0.60249  0.91434  0.12126  1.0000
  H   H6088     1.0  0.60297  0.93044  0.15122  1.0000
  H   H6089     1.0  0.62502  0.85448  0.20772  1.0000
  H   H6090     1.0  0.62030  0.88002  0.22182  1.0000
  H   H6091     1.0  0.50536  0.85118  0.13208  1.0000
  Fe  Fe514     1.0  0.57331  0.76995  0.13162  1.0000
  H   H6092     1.0  0.51174  0.87962  0.22646  1.0000
  H   H6093     1.0  0.51124  0.82779  0.15702  1.0000
  S   S1027     1.0  0.56540  0.75148  0.12990  1.0000
  H   H6094     1.0  0.53693  0.81822  0.16051  1.0000
  C   C3552     1.0  0.56651  0.93098  0.15794  1.0000
  C   C3553     1.0  0.50924  0.94669  0.08351  1.0000
  H   H6095     1.0  0.52400  0.80904  0.17313  1.0000
  C   C3554     1.0  0.53919  0.93502  0.08963  1.0000
  H   H6096     1.0  0.54309  0.84980  0.11765  1.0000
  C   C3555     1.0  0.57519  0.76986  0.22818  1.0000
  C   C3556     1.0  0.53742  0.84138  0.11815  1.0000
  Fe  Fe515     1.0  0.59245  0.85137  0.20502  1.0000
  H   H6097     1.0  0.50882  0.78298  0.06599  1.0000
  H   H6098     1.0  0.56315  0.94091  0.14995  1.0000
  C   C3557     1.0  0.51119  0.86476  0.09325  1.0000
  C   C3558     1.0  0.51221  0.77928  0.17999  1.0000
  N   N257      1.0  0.52448  0.80952  0.00577  1.0000
  N   N258      1.0  0.51396  0.87962  0.19675  1.0000
  H   H6099     1.0  0.58850  0.93751  0.16401  1.0000
  C   C3559     1.0  0.54144  0.82726  0.20952  1.0000
  N   N259      1.0  0.51440  0.76089  0.09924  1.0000
  C   C3560     1.0  0.50860  0.77593  0.11827  1.0000
  S   S1028     1.0  0.53479  0.85853  0.15856  1.0000
  H   H6100     1.0  0.66704  0.84752  0.22808  1.0000
  H   H6101     1.0  0.53258  0.77064  0.09608  1.0000
  C   C3561     1.0  0.51250  0.82473  0.22169  1.0000
  C   C3562     1.0  0.58712  0.91061  0.16369  1.0000
  H   H6102     1.0  0.51837  0.88561  0.11094  1.0000
  C   C3563     1.0  0.58541  0.92128  0.13884  1.0000
  C   C3564     1.0  0.53512  0.81249  0.02560  1.0000
  C   C3565     1.0  0.53050  0.76001  0.09681  1.0000
  H   H6103     1.0  0.59915  0.90664  0.16094  1.0000
  C   C3566     1.0  0.50621  0.76316  0.11397  1.0000
  S   S1029     1.0  0.55518  0.77508  0.14996  1.0000
  C   C3567     1.0  0.58803  0.94983  0.14287  1.0000
  H   H6104     1.0  0.51333  0.78453  0.00904  1.0000
  C   C3568     1.0  0.52071  0.81761  0.21077  1.0000
  H   H6105     1.0  0.67265  0.84943  0.20122  1.0000
  C   C3569     1.0  0.66681  0.86081  0.20051  1.0000
  H   H6106     1.0  0.59795  0.95435  0.13924  1.0000
  C   C3570     1.0  0.58312  0.91109  0.17968  1.0000
  C   C3571     1.0  0.57747  0.77884  0.18658  1.0000
  C   C3572     1.0  0.55611  0.92121  0.15970  1.0000
  C   C3573     1.0  0.51969  0.88015  0.10263  1.0000
  H   H6107     1.0  0.52826  0.84685  0.11281  1.0000
  C   C3574     1.0  0.56636  0.77921  0.09706  1.0000
  H   H6108     1.0  0.50943  0.76421  0.07068  1.0000
  H   H6109     1.0  0.53603  0.76480  0.19509  1.0000
  H   H6110     1.0  0.55255  0.82827  0.20469  1.0000
  C   C3575     1.0  0.61866  0.87459  0.21431  1.0000
  C   C3576     1.0  0.51791  0.81836  0.15258  1.0000
  H   H6111     1.0  0.56853  0.81008  0.16697  1.0000
  H   H6112     1.0  0.51708  0.91177  0.10204  1.0000
  H   H6113     1.0  0.51129  0.78366  0.08906  1.0000
  H   H6114     1.0  0.65967  0.83562  0.21760  1.0000
  C   C3577     1.0  0.51660  0.85724  0.16225  1.0000
  H   H6115     1.0  0.53209  0.88712  0.19843  1.0000
  H   H6116     1.0  0.66961  0.86558  0.20790  1.0000
  C   C3578     1.0  0.51078  0.82870  0.12958  1.0000
  H   H6117     1.0  0.51734  0.79932  0.12893  1.0000
  C   C3579     1.0  0.53506  0.81918  0.20451  1.0000
  C   C3580     1.0  0.60065  0.78049  0.18962  1.0000
  H   H6118     1.0  0.57887  0.95749  0.14814  1.0000
  H   H6119     1.0  0.55800  0.91116  0.16794  1.0000
  H   H6120     1.0  0.56663  0.84894  0.15599  1.0000
  C   C3581     1.0  0.56765  0.84179  0.16658  1.0000
  H   H6121     1.0  0.57119  0.91392  0.18388  1.0000
  H   H6122     1.0  0.51443  0.83102  0.11770  1.0000
  C   C3582     1.0  0.52914  0.87690  0.19911  1.0000
  H   H6123     1.0  0.58711  0.90019  0.18594  1.0000
  C   C3583     1.0  0.60152  0.91856  0.13077  1.0000
  H   H6124     1.0  0.64674  0.81828  0.23274  1.0000
  H   H6125     1.0  0.53067  0.89924  0.17563  1.0000
  H   H6126     1.0  0.56410  0.93463  0.16809  1.0000
  C   C3584     1.0  0.50838  0.77379  0.08858  1.0000
  C   C3585     1.0  0.65778  0.85319  0.23517  1.0000
  S   S1030     1.0  0.56649  0.97739  0.12113  1.0000
  C   C3586     1.0  0.62647  0.85855  0.21644  1.0000
  C   C3587     1.0  0.52492  0.93544  0.10128  1.0000
  H   H6127     1.0  0.59790  0.76445  0.18033  1.0000
  C   C3588     1.0  0.51344  0.77266  0.07271  1.0000
  C   C3589     1.0  0.53695  0.79746  0.00159  1.0000
  C   C3590     1.0  0.65020  0.86294  0.20282  1.0000
  C   C3591     1.0  0.64048  0.82958  0.23190  1.0000
  H   H6128     1.0  0.52309  0.94502  0.10580  1.0000
  H   H6129     1.0  0.54236  0.82942  0.13814  1.0000
  H   H6130     1.0  0.56771  0.84855  0.17369  1.0000
  Fe  Fe516     1.0  0.54833  0.75577  0.14941  1.0000
  H   H6131     1.0  0.50949  0.75356  0.22008  1.0000
  S   S1031     1.0  0.51397  0.80540  0.20590  1.0000
  Fe  Fe517     1.0  0.56583  0.83995  0.22264  1.0000
  C   C3592     1.0  0.54007  0.77533  0.22227  1.0000
  H   H6132     1.0  0.54792  0.93587  0.09423  1.0000
  H   H6133     1.0  0.57192  0.77146  0.21800  1.0000
  C   C3593     1.0  0.51900  0.90102  0.17559  1.0000
  H   H6134     1.0  0.55154  0.79178  0.21979  1.0000
  H   H6135     1.0  0.52971  0.87058  0.21014  1.0000
  C   C3594     1.0  0.51379  0.92082  0.09324  1.0000
  H   H6136     1.0  0.52609  0.84273  0.13985  1.0000
  H   H6137     1.0  0.64632  0.83594  0.20888  1.0000
  H   H6138     1.0  0.52543  0.77086  0.06890  1.0000
  S   S1032     1.0  0.57915  0.82011  0.23430  1.0000
  C   C3595     1.0  0.52953  0.81118  0.16162  1.0000
  H   H6139     1.0  0.53344  0.75073  0.21107  1.0000
  H   H6140     1.0  0.56218  0.79688  0.23453  1.0000
  H   H6141     1.0  0.51164  0.85901  0.21068  1.0000
  H   H6142     1.0  0.51037  0.81103  0.15500  1.0000
  S   S1033     1.0  0.54120  0.84396  0.22754  1.0000
  H   H6143     1.0  0.52393  0.77527  0.17562  1.0000
  H   H6144     1.0  0.53940  0.82392  0.99616  1.0000
  C   C3596     1.0  0.53339  0.83406  0.22072  1.0000
  H   H6145     1.0  0.50753  0.89908  0.20478  1.0000
  H   H6146     1.0  0.54207  0.77901  0.21042  1.0000
  C   C3597     1.0  0.50818  0.96215  0.08460  1.0000
  H   H6147     1.0  0.54787  0.75308  0.10842  1.0000
  H   H6148     1.0  0.50680  0.92296  0.12714  1.0000
  C   C3598     1.0  0.50953  0.87221  0.10379  1.0000
  H   H6149     1.0  0.51952  0.74456  0.08695  1.0000
  H   H6150     1.0  0.51161  0.77453  0.20263  1.0000
  H   H6151     1.0  0.54722  0.74719  0.19565  1.0000
  N   N260      1.0  0.50949  0.75520  0.19798  1.0000
  C   C3599     1.0  0.64376  0.86010  0.22930  1.0000
  H   H6152     1.0  0.64262  0.87196  0.22664  1.0000
  H   H6153     1.0  0.51685  0.85876  0.19233  1.0000
  H   H6154     1.0  0.52834  0.77504  0.22625  1.0000
  C   C3600     1.0  0.54391  0.78601  0.22848  1.0000
  C   C3601     1.0  0.52545  0.74873  0.19321  1.0000
  C   C3602     1.0  0.51328  0.88704  0.18146  1.0000
  H   H6155     1.0  0.53222  0.74694  0.11873  1.0000
  H   H6156     1.0  0.50899  0.75360  0.12240  1.0000
  H   H6157     1.0  0.50418  0.82053  0.13210  1.0000
  H   H6158     1.0  0.50563  0.77899  0.17271  1.0000
  H   H6159     1.0  0.50445  0.75610  0.17795  1.0000
  H   H6160     1.0  0.57990  0.77888  0.22789  1.0000
  H   H6161     1.0  0.51002  0.87551  0.14590  1.0000
  H   H6162     1.0  0.51245  0.90952  0.18144  1.0000
  H   H6163     1.0  0.50660  0.96960  0.07425  1.0000
  H   H6164     1.0  0.51252  0.83816  0.23532  1.0000
  S   S1034     1.0  0.54622  0.99163  0.15691  1.0000
  C   C3603     1.0  0.50366  0.88911  0.20644  1.0000
  S   S1035     1.0  0.50354  0.81483  0.05703  1.0000
  Fe  Fe518     1.0  0.50325  0.84087  0.07945  1.0000
  H   H6165     1.0  0.50391  0.90945  0.41473  1.0000
  C   C3604     1.0  0.59557  0.98841  0.34375  1.0000
  S   S1036     1.0  0.85322  0.92152  0.46454  1.0000
  S   S1037     1.0  0.96057  0.84260  0.44409  1.0000
  H   H6166     1.0  0.70222  0.98712  0.30619  1.0000
  Fe  Fe519     1.0  0.94739  0.82580  0.45041  1.0000
  S   S1038     1.0  0.94182  0.81828  0.43379  1.0000
  H   H6167     1.0  0.58334  0.95072  0.29319  1.0000
  H   H6168     1.0  0.52725  0.78466  0.25421  1.0000
  Fe  Fe520     1.0  0.61501  0.96635  0.44581  1.0000
  S   S1039     1.0  0.60135  0.83347  0.25489  1.0000
  H   H6169     1.0  0.59381  0.93322  0.29045  1.0000
  S   S1040     1.0  0.81618  0.92244  0.45546  1.0000
  Fe  Fe521     1.0  0.70526  0.92630  0.37489  1.0000
  S   S1041     1.0  0.68640  0.92044  0.37127  1.0000
  S   S1042     1.0  0.70266  0.94956  0.37446  1.0000
  Fe  Fe522     1.0  0.72402  0.89645  0.37567  1.0000
  S   S1043     1.0  0.70693  0.88798  0.37140  1.0000
  S   S1044     1.0  0.74652  0.88271  0.37701  1.0000
  Fe  Fe523     1.0  0.70279  0.90878  0.35534  1.0000
  S   S1045     1.0  0.69518  0.91503  0.33457  1.0000
  Fe  Fe524     1.0  0.69169  0.90032  0.38746  1.0000
  S   S1046     1.0  0.67358  0.89100  0.40321  1.0000
  S   S1047     1.0  0.72148  0.91608  0.35785  1.0000
  S   S1048     1.0  0.70890  0.90730  0.39302  1.0000
  S   S1049     1.0  0.66793  0.96419  0.30501  1.0000
  Fe  Fe525     1.0  0.65002  0.88617  0.30157  1.0000
  S   S1050     1.0  0.64811  0.90000  0.27964  1.0000
  S   S1051     1.0  0.67041  0.87615  0.31044  1.0000
  Fe  Fe526     1.0  0.61759  0.88897  0.31191  1.0000
  S   S1052     1.0  0.61279  0.90333  0.29138  1.0000
  S   S1053     1.0  0.59890  0.88344  0.32981  1.0000
  Fe  Fe527     1.0  0.63124  0.88777  0.28085  1.0000
  S   S1054     1.0  0.62642  0.88325  0.26161  1.0000
  Fe  Fe528     1.0  0.62968  0.91429  0.29183  1.0000
  S   S1055     1.0  0.62420  0.93843  0.28868  1.0000
  S   S1056     1.0  0.63494  0.87258  0.30163  1.0000
  S   S1057     1.0  0.63270  0.90139  0.31344  1.0000
  H   H6170     1.0  0.85144  0.85071  0.48691  1.0000
  Fe  Fe529     1.0  0.57233  0.95219  0.37341  1.0000
  S   S1058     1.0  0.58565  0.94065  0.38987  1.0000
  C   C3605     1.0  0.97813  0.89369  0.44942  1.0000
  Fe  Fe530     1.0  0.55442  0.92946  0.38149  1.0000
  S   S1059     1.0  0.56586  0.91573  0.39887  1.0000
  S   S1060     1.0  0.53993  0.92381  0.37097  1.0000
  Fe  Fe531     1.0  0.56424  0.93674  0.40423  1.0000
  S   S1061     1.0  0.56064  0.93712  0.42739  1.0000
  Fe  Fe532     1.0  0.58641  0.92060  0.38360  1.0000
  S   S1062     1.0  0.60759  0.90463  0.37954  1.0000
  S   S1063     1.0  0.55066  0.95017  0.38825  1.0000
  S   S1064     1.0  0.57525  0.93241  0.36572  1.0000
  H   H6171     1.0  0.73861  0.93903  0.34011  1.0000
  H   H6172     1.0  0.72149  0.95022  0.34607  1.0000
  H   H6173     1.0  0.79313  0.92925  0.42084  1.0000
  S   S1065     1.0  0.61529  0.94939  0.46608  1.0000
  C   C3606     1.0  0.97125  0.76730  0.40828  1.0000
  H   H6174     1.0  0.70484  0.96834  0.33589  1.0000
  H   H6175     1.0  0.73152  0.96486  0.30255  1.0000
  Fe  Fe533     1.0  0.63835  0.94069  0.45542  1.0000
  S   S1066     1.0  0.64708  0.91694  0.45813  1.0000
  H   H6176     1.0  0.57632  0.90950  0.33006  1.0000
  Fe  Fe534     1.0  0.82155  0.85171  0.44230  1.0000
  S   S1067     1.0  0.79893  0.85831  0.45488  1.0000
  S   S1068     1.0  0.84008  0.86069  0.44242  1.0000
  Fe  Fe535     1.0  0.81424  0.82856  0.43341  1.0000
  S   S1069     1.0  0.79068  0.83332  0.44493  1.0000
  S   S1070     1.0  0.82345  0.80899  0.42386  1.0000
  Fe  Fe536     1.0  0.79177  0.85652  0.43606  1.0000
  S   S1071     1.0  0.77241  0.87440  0.43116  1.0000
  Fe  Fe537     1.0  0.79948  0.83482  0.46270  1.0000
  S   S1072     1.0  0.81464  0.85172  0.42269  1.0000
  S   S1073     1.0  0.82289  0.82831  0.45200  1.0000
  H   H6177     1.0  0.64725  0.86762  0.40404  1.0000
  H   H6178     1.0  0.69285  0.97154  0.32454  1.0000
  C   C3607     1.0  0.57176  0.98662  0.48228  1.0000
  C   C3608     1.0  0.84258  0.80352  0.42049  1.0000
  C   C3609     1.0  0.85120  0.81332  0.41841  1.0000
  C   C3610     1.0  0.86647  0.80878  0.41565  1.0000
  C   C3611     1.0  0.87314  0.79434  0.41545  1.0000
  C   C3612     1.0  0.86450  0.78447  0.41791  1.0000
  C   C3613     1.0  0.84926  0.78911  0.42017  1.0000
  H   H6179     1.0  0.84611  0.82445  0.41860  1.0000
  H   H6180     1.0  0.87312  0.81645  0.41370  1.0000
  H   H6181     1.0  0.86959  0.77333  0.41771  1.0000
  H   H6182     1.0  0.84262  0.78152  0.42173  1.0000
  C   C3614     1.0  0.57015  0.94868  0.42943  1.0000
  C   C3615     1.0  0.57432  0.95964  0.41793  1.0000
  C   C3616     1.0  0.58259  0.96839  0.41934  1.0000
  C   C3617     1.0  0.58691  0.96606  0.43217  1.0000
  C   C3618     1.0  0.58259  0.95523  0.44379  1.0000
  C   C3619     1.0  0.57413  0.94659  0.44243  1.0000
  H   H6183     1.0  0.57099  0.96154  0.40799  1.0000
  H   H6184     1.0  0.68625  0.94811  0.33513  1.0000
  H   H6185     1.0  0.99813  0.85795  0.43874  1.0000
  H   H6186     1.0  0.57084  0.93815  0.45136  1.0000
  S   S1074     1.0  0.57596  0.97121  0.35535  1.0000
  H   H6187     1.0  0.52378  0.76111  0.26594  1.0000
  C   C3620     1.0  0.52085  0.90706  0.37516  1.0000
  C   C3621     1.0  0.52663  0.91425  0.38169  1.0000
  C   C3622     1.0  0.52084  0.91471  0.39612  1.0000
  H   H6188     1.0  0.97623  0.90156  0.45615  1.0000
  C   C3623     1.0  0.71829  0.94621  0.29642  1.0000
  H   H6189     1.0  0.68189  0.97811  0.35823  1.0000
  H   H6190     1.0  0.52529  0.92025  0.40123  1.0000
  H   H6191     1.0  0.63459  0.85795  0.23853  1.0000
  C   C3624     1.0  0.60147  0.88639  0.34532  1.0000
  C   C3625     1.0  0.58942  0.89079  0.35583  1.0000
  C   C3626     1.0  0.59138  0.89571  0.36686  1.0000
  C   C3627     1.0  0.60539  0.89599  0.36750  1.0000
  C   C3628     1.0  0.61749  0.89059  0.35760  1.0000
  C   C3629     1.0  0.61552  0.88576  0.34652  1.0000
  H   H6192     1.0  0.57853  0.89109  0.35509  1.0000
  H   H6193     1.0  0.58198  0.89965  0.37465  1.0000
  H   H6194     1.0  0.62828  0.89082  0.35804  1.0000
  H   H6195     1.0  0.62485  0.88183  0.33872  1.0000
  C   C3630     1.0  0.54297  0.80477  0.24929  1.0000
  H   H6196     1.0  0.51065  0.93825  0.36439  1.0000
  H   H6197     1.0  0.99392  0.74593  0.39342  1.0000
  C   C3631     1.0  0.65522  0.95682  0.30156  1.0000
  C   C3632     1.0  0.65996  0.94344  0.29780  1.0000
  C   C3633     1.0  0.65032  0.93749  0.29435  1.0000
  C   C3634     1.0  0.63597  0.94507  0.29434  1.0000
  H   H6198     1.0  0.78794  0.90561  0.42703  1.0000
  H   H6199     1.0  0.67119  0.93771  0.29734  1.0000
  H   H6200     1.0  0.65415  0.92725  0.29125  1.0000
  C   C3635     1.0  0.66781  0.89837  0.41839  1.0000
  C   C3636     1.0  0.66585  0.91315  0.41714  1.0000
  C   C3637     1.0  0.65973  0.91904  0.42935  1.0000
  C   C3638     1.0  0.65592  0.91007  0.44279  1.0000
  C   C3639     1.0  0.65848  0.89526  0.44403  1.0000
  C   C3640     1.0  0.66422  0.88944  0.43184  1.0000
  H   H6201     1.0  0.66863  0.92007  0.40672  1.0000
  H   H6202     1.0  0.65788  0.93047  0.42836  1.0000
  H   H6203     1.0  0.65561  0.88829  0.45441  1.0000
  H   H6204     1.0  0.66579  0.87801  0.43284  1.0000
  C   C3641     1.0  0.75350  0.88028  0.39225  1.0000
  C   C3642     1.0  0.74578  0.88746  0.40325  1.0000
  C   C3643     1.0  0.75160  0.88535  0.41523  1.0000
  C   C3644     1.0  0.76521  0.87609  0.41629  1.0000
  C   C3645     1.0  0.77296  0.86890  0.40531  1.0000
  C   C3646     1.0  0.76712  0.87103  0.39331  1.0000
  H   H6205     1.0  0.73533  0.89461  0.40257  1.0000
  H   H6206     1.0  0.74549  0.89082  0.42375  1.0000
  H   H6207     1.0  0.78347  0.86176  0.40602  1.0000
  H   H6208     1.0  0.77316  0.86543  0.38484  1.0000
  C   C3647     1.0  0.68796  0.90378  0.32880  1.0000
  C   C3648     1.0  0.67648  0.91002  0.32168  1.0000
  C   C3649     1.0  0.67092  0.90163  0.31617  1.0000
  C   C3650     1.0  0.67702  0.88693  0.31748  1.0000
  C   C3651     1.0  0.68861  0.88068  0.32451  1.0000
  C   C3652     1.0  0.69398  0.88905  0.33029  1.0000
  H   H6209     1.0  0.67192  0.92143  0.32036  1.0000
  H   H6210     1.0  0.66214  0.90661  0.31063  1.0000
  H   H6211     1.0  0.69359  0.86938  0.32530  1.0000
  H   H6212     1.0  0.70315  0.88424  0.33535  1.0000
  H   H6213     1.0  0.89220  0.86811  0.42810  1.0000
  C   C3653     1.0  0.63117  0.95845  0.29816  1.0000
  C   C3654     1.0  0.80326  0.90155  0.40753  1.0000
  C   C3655     1.0  0.71640  0.95380  0.37962  1.0000
  C   C3656     1.0  0.72712  0.94304  0.38555  1.0000
  C   C3657     1.0  0.73725  0.94676  0.39065  1.0000
  H   H6214     1.0  0.90799  0.86054  0.41624  1.0000
  H   H6215     1.0  0.66294  0.85006  0.38851  1.0000
  H   H6216     1.0  0.72745  0.93185  0.38643  1.0000
  H   H6217     1.0  0.74531  0.93845  0.39545  1.0000
  C   C3658     1.0  0.60740  0.84760  0.25749  1.0000
  C   C3659     1.0  0.61717  0.84437  0.26651  1.0000
  C   C3660     1.0  0.62246  0.85530  0.26856  1.0000
  C   C3661     1.0  0.61805  0.86959  0.26156  1.0000
  H   H6218     1.0  0.91133  0.81573  0.44411  1.0000
  Fe  Fe538     1.0  0.84870  0.93909  0.47621  1.0000
  H   H6219     1.0  0.62087  0.83331  0.27174  1.0000
  H   H6220     1.0  0.63042  0.85258  0.27506  1.0000
  H   H6221     1.0  0.77547  0.95211  0.41424  1.0000
  C   C3662     1.0  0.53379  0.76167  0.25729  1.0000
  H   H6222     1.0  0.00058  0.86244  0.46300  1.0000
  C   C3663     1.0  0.57357  0.93248  0.30719  1.0000
  H   H6223     1.0  0.59785  0.91631  0.31699  1.0000
  H   H6224     1.0  0.58534  0.84720  0.32175  1.0000
  H   H6225     1.0  0.84174  0.90065  0.46034  1.0000
  H   H6226     1.0  0.63007  0.98191  0.27206  1.0000
  C   C3664     1.0  0.71221  0.98144  0.29984  1.0000
  H   H6227     1.0  0.75923  0.90647  0.42867  1.0000
  H   H6228     1.0  0.61640  0.91775  0.45604  1.0000
  C   C3665     1.0  0.68165  0.96268  0.25845  1.0000
  C   C3666     1.0  0.94236  0.79983  0.43729  1.0000
  C   C3667     1.0  0.95158  0.78970  0.44559  1.0000
  C   C3668     1.0  0.95145  0.77504  0.44856  1.0000
  C   C3669     1.0  0.94169  0.77061  0.44369  1.0000
  H   H6229     1.0  0.67005  0.86448  0.38829  1.0000
  C   C3670     1.0  0.93324  0.79525  0.43178  1.0000
  H   H6230     1.0  0.95896  0.79316  0.44950  1.0000
  H   H6231     1.0  0.95865  0.76719  0.45487  1.0000
  H   H6232     1.0  0.93519  0.77270  0.47519  1.0000
  H   H6233     1.0  0.62823  0.96685  0.26688  1.0000
  C   C3671     1.0  0.50331  0.95363  0.38372  1.0000
  H   H6234     1.0  0.60185  0.87309  0.28917  1.0000
  H   H6235     1.0  0.96301  0.90966  0.43744  1.0000
  C   C3672     1.0  0.89658  0.87151  0.48518  1.0000
  H   H6236     1.0  0.70194  0.85169  0.36030  1.0000
  C   C3673     1.0  0.82373  0.90608  0.45007  1.0000
  C   C3674     1.0  0.81650  0.90126  0.44266  1.0000
  C   C3675     1.0  0.82147  0.88727  0.44022  1.0000
  C   C3676     1.0  0.83397  0.87837  0.44471  1.0000
  C   C3677     1.0  0.84147  0.88343  0.45158  1.0000
  C   C3678     1.0  0.83626  0.89718  0.45440  1.0000
  H   H6237     1.0  0.80672  0.90808  0.43943  1.0000
  H   H6238     1.0  0.81565  0.88333  0.43493  1.0000
  H   H6239     1.0  0.85097  0.87654  0.45528  1.0000
  H   H6240     1.0  0.96202  0.76408  0.48709  1.0000
  H   H6241     1.0  0.69946  0.91313  0.44256  1.0000
  H   H6242     1.0  0.75132  0.91791  0.41369  1.0000
  H   H6243     1.0  0.69972  0.94274  0.34601  1.0000
  H   H6244     1.0  0.59963  0.93419  0.31025  1.0000
  N   N261      1.0  0.58324  0.86487  0.30314  1.0000
  N   N262      1.0  0.61394  0.91686  0.42753  1.0000
  C   C3679     1.0  0.61638  0.93115  0.42770  1.0000
  C   C3680     1.0  0.60665  0.91049  0.44258  1.0000
  C   C3681     1.0  0.60403  0.91952  0.41745  1.0000
  C   C3682     1.0  0.62856  0.90768  0.42235  1.0000
  C   C3683     1.0  0.62181  0.94064  0.41301  1.0000
  C   C3684     1.0  0.59497  0.90824  0.42005  1.0000
  C   C3685     1.0  0.62899  0.89219  0.42199  1.0000
  H   H6245     1.0  0.60616  0.93767  0.43298  1.0000
  H   H6246     1.0  0.62452  0.92968  0.43413  1.0000
  H   H6247     1.0  0.60403  0.90013  0.44336  1.0000
  H   H6248     1.0  0.59589  0.91768  0.44591  1.0000
  H   H6249     1.0  0.59584  0.92985  0.41793  1.0000
  H   H6250     1.0  0.61033  0.92068  0.40613  1.0000
  H   H6251     1.0  0.63353  0.91266  0.41121  1.0000
  H   H6252     1.0  0.63653  0.90729  0.42846  1.0000
  H   H6253     1.0  0.61474  0.94270  0.40539  1.0000
  H   H6254     1.0  0.62157  0.95133  0.41459  1.0000
  H   H6255     1.0  0.63327  0.93604  0.40826  1.0000
  H   H6256     1.0  0.60138  0.89708  0.42136  1.0000
  H   H6257     1.0  0.59024  0.91032  0.41064  1.0000
  H   H6258     1.0  0.58569  0.90922  0.42945  1.0000
  H   H6259     1.0  0.62621  0.89189  0.41205  1.0000
  H   H6260     1.0  0.62194  0.88676  0.43150  1.0000
  H   H6261     1.0  0.64018  0.88561  0.42228  1.0000
  N   N263      1.0  0.84030  0.78059  0.46817  1.0000
  H   H6262     1.0  0.96638  0.87072  0.45119  1.0000
  H   H6263     1.0  0.97899  0.85707  0.45968  1.0000
  C   C3686     1.0  0.85578  0.77581  0.46023  1.0000
  H   H6264     1.0  0.97115  0.74857  0.42523  1.0000
  H   H6265     1.0  0.57806  0.83773  0.30842  1.0000
  H   H6266     1.0  0.50605  0.95346  0.35075  1.0000
  C   C3687     1.0  0.86443  0.78774  0.45307  1.0000
  C   C3688     1.0  0.83353  0.75697  0.46925  1.0000
  H   H6267     1.0  0.84242  0.98378  0.47546  1.0000
  C   C3689     1.0  0.70749  0.91467  0.43220  1.0000
  H   H6268     1.0  0.83268  0.78242  0.44917  1.0000
  H   H6269     1.0  0.80959  0.78367  0.46905  1.0000
  H   H6270     1.0  0.86226  0.76730  0.46737  1.0000
  H   H6271     1.0  0.85601  0.77071  0.45154  1.0000
  H   H6272     1.0  0.50482  0.89512  0.37773  1.0000
  H   H6273     1.0  0.68250  0.96174  0.40265  1.0000
  H   H6274     1.0  0.63749  0.98466  0.47544  1.0000
  H   H6275     1.0  0.89768  0.83010  0.46195  1.0000
  H   H6276     1.0  0.90924  0.91330  0.47029  1.0000
  H   H6277     1.0  0.96856  0.77344  0.41678  1.0000
  H   H6278     1.0  0.88720  0.85045  0.46905  1.0000
  C   C3690     1.0  0.56793  0.87021  0.31101  1.0000
  H   H6279     1.0  0.86740  0.79153  0.46107  1.0000
  H   H6280     1.0  0.85846  0.79699  0.44623  1.0000
  H   H6281     1.0  0.87481  0.78337  0.44605  1.0000
  H   H6282     1.0  0.80428  0.90110  0.48271  1.0000
  S   S1075     1.0  0.59758  0.97696  0.43338  1.0000
  H   H6283     1.0  0.59170  0.99072  0.33403  1.0000
  H   H6284     1.0  0.65125  0.88729  0.36333  1.0000
  Fe  Fe539     1.0  0.94052  0.82613  0.48185  1.0000
  H   H6285     1.0  0.77677  0.90426  0.47136  1.0000
  H   H6286     1.0  0.80238  0.89372  0.46953  1.0000
  C   C3691     1.0  0.66293  0.88166  0.36225  1.0000
  C   C3692     1.0  0.70104  0.96298  0.32964  1.0000
  H   H6287     1.0  0.67581  0.98796  0.27638  1.0000
  H   H6288     1.0  0.65222  0.97661  0.39222  1.0000
  S   S1076     1.0  0.66020  0.98247  0.42697  1.0000
  H   H6289     1.0  0.63797  0.86400  0.39288  1.0000
  H   H6290     1.0  0.77143  0.93570  0.39175  1.0000
  H   H6291     1.0  0.59616  0.91846  0.34173  1.0000
  Fe  Fe540     1.0  0.92475  0.74966  0.43742  1.0000
  H   H6292     1.0  0.58204  0.88579  0.27596  1.0000
  H   H6293     1.0  0.66111  0.89552  0.37661  1.0000
  H   H6294     1.0  0.64133  0.86720  0.36905  1.0000
  H   H6295     1.0  0.84417  0.75280  0.46249  1.0000
  S   S1077     1.0  0.92869  0.83801  0.46429  1.0000
  H   H6296     1.0  0.76059  0.93813  0.41496  1.0000
  H   H6297     1.0  0.71546  0.93153  0.43474  1.0000
  H   H6298     1.0  0.64333  0.86089  0.34718  1.0000
  C   C3693     1.0  0.57578  0.84411  0.29796  1.0000
  H   H6299     1.0  0.68118  0.93530  0.46201  1.0000
  H   H6300     1.0  0.86019  0.77911  0.48480  1.0000
  C   C3694     1.0  0.72440  0.94511  0.32511  1.0000
  H   H6301     1.0  0.65303  0.87484  0.34265  1.0000
  H   H6302     1.0  0.68665  0.95216  0.45420  1.0000
  N   N264      1.0  0.64013  0.93784  0.35423  1.0000
  C   C3695     1.0  0.64813  0.94069  0.36373  1.0000
  C   C3696     1.0  0.64300  0.94831  0.34004  1.0000
  C   C3697     1.0  0.64666  0.92268  0.35222  1.0000
  C   C3698     1.0  0.62417  0.93970  0.36153  1.0000
  C   C3699     1.0  0.64775  0.93052  0.37866  1.0000
  C   C3700     1.0  0.63565  0.96415  0.34018  1.0000
  C   C3701     1.0  0.64116  0.91761  0.34184  1.0000
  C   C3702     1.0  0.61334  0.94107  0.35234  1.0000
  H   H6303     1.0  0.65985  0.94029  0.35834  1.0000
  H   H6304     1.0  0.64363  0.95167  0.36581  1.0000
  H   H6305     1.0  0.63952  0.94584  0.33157  1.0000
  H   H6306     1.0  0.65496  0.94757  0.33580  1.0000
  H   H6307     1.0  0.65876  0.92108  0.34844  1.0000
  H   H6308     1.0  0.64455  0.91486  0.36258  1.0000
  H   H6309     1.0  0.62238  0.93053  0.37078  1.0000
  H   H6310     1.0  0.62044  0.94934  0.36634  1.0000
  H   H6311     1.0  0.65285  0.93459  0.38491  1.0000
  H   H6312     1.0  0.63651  0.93004  0.38484  1.0000
  H   H6313     1.0  0.65425  0.91956  0.37798  1.0000
  H   H6314     1.0  0.62361  0.96590  0.34297  1.0000
  H   H6315     1.0  0.63927  0.96841  0.34739  1.0000
  H   H6316     1.0  0.63865  0.97072  0.32929  1.0000
  H   H6317     1.0  0.62957  0.91700  0.34577  1.0000
  H   H6318     1.0  0.64727  0.90647  0.34125  1.0000
  H   H6319     1.0  0.64318  0.92396  0.33069  1.0000
  H   H6320     1.0  0.60817  0.93167  0.35627  1.0000
  H   H6321     1.0  0.61805  0.94203  0.34078  1.0000
  H   H6322     1.0  0.60442  0.95071  0.35349  1.0000
  C   C3703     1.0  0.69255  0.95198  0.34037  1.0000
  N   N265      1.0  0.88661  0.84000  0.44449  1.0000
  H   H6323     1.0  0.82813  0.79370  0.48354  1.0000
  C   C3704     1.0  0.87831  0.83617  0.43594  1.0000
  C   C3705     1.0  0.90007  0.84455  0.43452  1.0000
  C   C3706     1.0  0.89117  0.82733  0.45602  1.0000
  C   C3707     1.0  0.81455  0.79304  0.46338  1.0000
  H   H6324     1.0  0.56273  0.86100  0.31709  1.0000
  C   C3708     1.0  0.89733  0.85866  0.42321  1.0000
  C   C3709     1.0  0.90070  0.81373  0.45081  1.0000
  H   H6325     1.0  0.85841  0.83363  0.45308  1.0000
  H   H6326     1.0  0.51424  0.95255  0.37634  1.0000
  H   H6327     1.0  0.88578  0.82948  0.42840  1.0000
  H   H6328     1.0  0.87303  0.84603  0.42901  1.0000
  H   H6329     1.0  0.90756  0.84553  0.44060  1.0000
  H   H6330     1.0  0.90658  0.83620  0.42838  1.0000
  H   H6331     1.0  0.88187  0.90338  0.46531  1.0000
  H   H6332     1.0  0.53723  0.80172  0.26063  1.0000
  C   C3710     1.0  0.91481  0.87986  0.46467  1.0000
  C   C3711     1.0  0.87677  0.85198  0.45147  1.0000
  H   H6333     1.0  0.59302  0.88187  0.30333  1.0000
  H   H6334     1.0  0.96461  0.77384  0.40036  1.0000
  H   H6335     1.0  0.72702  0.93702  0.29979  1.0000
  H   H6336     1.0  0.99997  0.87896  0.47727  1.0000
  H   H6337     1.0  0.89063  0.85810  0.41618  1.0000
  H   H6338     1.0  0.56166  0.78780  0.25267  1.0000
  H   H6339     1.0  0.90302  0.80496  0.46017  1.0000
  H   H6340     1.0  0.68176  0.97791  0.37613  1.0000
  C   C3712     1.0  0.68838  0.94107  0.45281  1.0000
  H   H6341     1.0  0.89616  0.94594  0.46570  1.0000
  H   H6342     1.0  0.58440  0.97272  0.46694  1.0000
  C   C3713     1.0  0.77917  0.92528  0.39456  1.0000
  Fe  Fe541     1.0  0.96995  0.83033  0.46331  1.0000
  H   H6343     1.0  0.62616  0.90046  0.45180  1.0000
  C   C3714     1.0  0.88993  0.89398  0.46863  1.0000
  C   C3715     1.0  0.64076  0.96430  0.30181  1.0000
  C   C3716     1.0  0.88003  0.97511  0.48638  1.0000
  C   C3717     1.0  0.61528  0.90764  0.45421  1.0000
  H   H6344     1.0  0.59599  0.93747  0.33533  1.0000
  C   C3718     1.0  0.59437  0.97642  0.36866  1.0000
  H   H6345     1.0  0.90727  0.89997  0.45083  1.0000
  H   H6346     1.0  0.91154  0.77491  0.47205  1.0000
  C   C3719     1.0  0.83478  0.76753  0.47737  1.0000
  S   S1078     1.0  0.99435  0.82590  0.46101  1.0000
  C   C3720     1.0  0.96508  0.89793  0.44212  1.0000
  H   H6347     1.0  0.60921  0.90216  0.46455  1.0000
  H   H6348     1.0  0.58973  0.89766  0.28037  1.0000
  C   C3721     1.0  0.64676  0.86910  0.39271  1.0000
  C   C3722     1.0  0.58943  0.97928  0.35608  1.0000
  H   H6349     1.0  0.98959  0.87566  0.42997  1.0000
  C   C3723     1.0  0.50877  0.90859  0.40375  1.0000
  C   C3724     1.0  0.66169  0.86191  0.38451  1.0000
  H   H6350     1.0  0.64372  0.88081  0.38833  1.0000
  H   H6351     1.0  0.68045  0.85960  0.35011  1.0000
  C   C3725     1.0  0.60267  0.86195  0.25084  1.0000
  C   C3726     1.0  0.88384  0.85836  0.45960  1.0000
  H   H6352     1.0  0.69211  0.85722  0.37647  1.0000
  C   C3727     1.0  0.67858  0.85715  0.36196  1.0000
  H   H6353     1.0  0.62007  0.96437  0.29811  1.0000
  H   H6354     1.0  0.63704  0.97475  0.30444  1.0000
  H   H6355     1.0  0.67872  0.84543  0.36561  1.0000
  C   C3728     1.0  0.73017  0.94842  0.33645  1.0000
  H   H6356     1.0  0.84260  0.80061  0.47111  1.0000
  C   C3729     1.0  0.90432  0.89207  0.46046  1.0000
  C   C3730     1.0  0.93264  0.78074  0.43525  1.0000
  H   H6357     1.0  0.65249  0.84965  0.36949  1.0000
  H   H6358     1.0  0.67820  0.88280  0.37483  1.0000
  S   S1079     1.0  0.95817  0.81247  0.46840  1.0000
  H   H6359     1.0  0.89545  0.80971  0.44470  1.0000
  N   N266      1.0  0.66406  0.86578  0.36838  1.0000
  C   C3731     1.0  0.65238  0.86123  0.36460  1.0000
  C   C3732     1.0  0.69229  0.85937  0.36492  1.0000
  C   C3733     1.0  0.66970  0.88960  0.36912  1.0000
  H   H6360     1.0  0.55939  0.94965  0.32526  1.0000
  H   H6361     1.0  0.56196  0.93806  0.30740  1.0000
  H   H6362     1.0  0.73541  0.95775  0.33214  1.0000
  H   H6363     1.0  0.54043  0.77625  0.26489  1.0000
  H   H6364     1.0  0.92626  0.80300  0.42514  1.0000
  H   H6365     1.0  0.69424  0.87022  0.35940  1.0000
  H   H6366     1.0  0.67479  0.89782  0.36065  1.0000
  S   S1080     1.0  0.86105  0.95679  0.46724  1.0000
  H   H6367     1.0  0.72247  0.95317  0.42354  1.0000
  S   S1081     1.0  0.89226  0.78900  0.41213  1.0000
  H   H6368     1.0  0.92500  0.77751  0.43151  1.0000
  C   C3734     1.0  0.65311  0.86353  0.34845  1.0000
  H   H6369     1.0  0.66883  0.95409  0.41693  1.0000
  H   H6370     1.0  0.70245  0.94219  0.31587  1.0000
  H   H6371     1.0  0.68453  0.95725  0.34871  1.0000
  H   H6372     1.0  0.57222  0.89484  0.29054  1.0000
  H   H6373     1.0  0.55479  0.88245  0.32698  1.0000
  C   C3735     1.0  0.56233  0.76755  0.24105  1.0000
  H   H6374     1.0  0.66781  0.88371  0.35056  1.0000
  H   H6375     1.0  0.66264  0.85627  0.34315  1.0000
  H   H6376     1.0  0.82532  0.76183  0.46257  1.0000
  C   C3736     1.0  0.70989  0.93016  0.42714  1.0000
  H   H6377     1.0  0.59320  0.85482  0.28494  1.0000
  C   C3737     1.0  0.70731  0.95148  0.30936  1.0000
  H   H6378     1.0  0.73420  0.94185  0.31684  1.0000
  S   S1082     1.0  0.90066  0.75809  0.44345  1.0000
  H   H6379     1.0  0.70409  0.91142  0.42410  1.0000
  H   H6380     1.0  0.70526  0.95853  0.40874  1.0000
  H   H6381     1.0  0.57080  0.94454  0.33723  1.0000
  S   S1083     1.0  0.63702  0.95619  0.43448  1.0000
  H   H6382     1.0  0.57747  0.94102  0.28417  1.0000
  H   H6383     1.0  0.80426  0.90397  0.39580  1.0000
  H   H6384     1.0  0.57058  0.88916  0.31676  1.0000
  C   C3738     1.0  0.56650  0.87917  0.32189  1.0000
  H   H6385     1.0  0.88040  0.97464  0.46483  1.0000
  H   H6386     1.0  0.54800  0.93190  0.33805  1.0000
  N   N267      1.0  0.71343  0.95716  0.31839  1.0000
  C   C3739     1.0  0.63316  0.97642  0.26305  1.0000
  H   H6387     1.0  0.71994  0.93526  0.33001  1.0000
  Fe  Fe542     1.0  0.66083  0.98521  0.31214  1.0000
  C   C3740     1.0  0.55439  0.92183  0.33465  1.0000
  H   H6388     1.0  0.52542  0.90649  0.36407  1.0000
  C   C3741     1.0  0.83518  0.99124  0.46845  1.0000
  C   C3742     1.0  0.58242  0.85757  0.29215  1.0000
  H   H6389     1.0  0.71137  0.97065  0.42422  1.0000
  H   H6390     1.0  0.71242  0.94234  0.29072  1.0000
  Fe  Fe543     1.0  0.90205  0.76561  0.41984  1.0000
  H   H6391     1.0  0.55137  0.92100  0.32506  1.0000
  S   S1084     1.0  0.92640  0.75862  0.41398  1.0000
  H   H6392     1.0  0.74531  0.92209  0.43081  1.0000
  Fe  Fe544     1.0  0.64521  0.96988  0.44337  1.0000
  H   H6393     1.0  0.69817  0.95972  0.30536  1.0000
  H   H6394     1.0  0.57563  0.86504  0.28470  1.0000
  H   H6395     1.0  0.87049  0.81693  0.44977  1.0000
  Fe  Fe545     1.0  0.94276  0.85370  0.45959  1.0000
  C   C3743     1.0  0.59087  0.87707  0.29554  1.0000
  C   C3744     1.0  0.72099  0.96911  0.30949  1.0000
  H   H6396     1.0  0.75989  0.88233  0.48651  1.0000
  H   H6397     1.0  0.72390  0.97432  0.31651  1.0000
  H   H6398     1.0  0.69339  0.95965  0.25333  1.0000
  H   H6399     1.0  0.91906  0.92599  0.46947  1.0000
  H   H6400     1.0  0.55105  0.91285  0.34345  1.0000
  H   H6401     1.0  0.69955  0.93515  0.45373  1.0000
  S   S1085     1.0  0.74885  0.96586  0.39695  1.0000
  H   H6402     1.0  0.68631  0.92965  0.41752  1.0000
  H   H6403     1.0  0.57493  0.96377  0.48358  1.0000
  H   H6404     1.0  0.58995  0.95578  0.31236  1.0000
  H   H6405     1.0  0.78115  0.89975  0.41572  1.0000
  C   C3745     1.0  0.59379  0.92721  0.31941  1.0000
  C   C3746     1.0  0.73677  0.96123  0.38972  1.0000
  C   C3747     1.0  0.71613  0.96823  0.37842  1.0000
  H   H6406     1.0  0.81137  0.90582  0.40999  1.0000
  H   H6407     1.0  0.69969  0.93776  0.40438  1.0000
  H   H6408     1.0  0.83987  0.98862  0.45769  1.0000
  N   N268      1.0  0.54958  0.78024  0.24204  1.0000
  H   H6409     1.0  0.66921  0.97552  0.45401  1.0000
  C   C3748     1.0  0.59949  0.92689  0.33237  1.0000
  C   C3749     1.0  0.78354  0.87749  0.48559  1.0000
  H   H6410     1.0  0.71817  0.93075  0.41681  1.0000
  N   N269      1.0  0.78079  0.92264  0.40976  1.0000
  H   H6411     1.0  0.61409  0.85256  0.30021  1.0000
  H   H6412     1.0  0.69034  0.96515  0.42182  1.0000
  C   C3750     1.0  0.76628  0.92712  0.41957  1.0000
  H   H6413     1.0  0.76796  0.92762  0.43000  1.0000
  H   H6414     1.0  0.71797  0.90713  0.43383  1.0000
  H   H6415     1.0  0.88773  0.98201  0.48307  1.0000
  C   C3751     1.0  0.75513  0.91766  0.42320  1.0000
  H   H6416     1.0  0.78195  0.95177  0.39540  1.0000
  H   H6417     1.0  0.70798  0.97662  0.37372  1.0000
  H   H6418     1.0  0.53487  0.80907  0.24252  1.0000
  S   S1086     1.0  0.93280  0.87733  0.45458  1.0000
  C   C3752     1.0  0.72635  0.97191  0.38334  1.0000
  C   C3753     1.0  0.58304  0.88942  0.28510  1.0000
  H   H6419     1.0  0.98008  0.83650  0.48691  1.0000
  S   S1087     1.0  0.64853  0.95353  0.46349  1.0000
  H   H6420     1.0  0.56378  0.84713  0.29895  1.0000
  N   N270      1.0  0.69642  0.94186  0.42541  1.0000
  H   H6421     1.0  0.67929  0.93200  0.44090  1.0000
  C   C3754     1.0  0.78491  0.94823  0.40598  1.0000
  H   H6422     1.0  0.61199  0.83905  0.31627  1.0000
  H   H6423     1.0  0.56089  0.87667  0.30339  1.0000
  H   H6424     1.0  0.91569  0.94726  0.47611  1.0000
  C   C3755     1.0  0.79066  0.93180  0.41003  1.0000
  C   C3756     1.0  0.68446  0.94127  0.43882  1.0000
  C   C3757     1.0  0.78765  0.90723  0.41559  1.0000
  C   C3758     1.0  0.86590  0.96205  0.48030  1.0000
  H   H6425     1.0  0.60535  0.83820  0.30169  1.0000
  H   H6426     1.0  0.58941  0.96970  0.37831  1.0000
  H   H6427     1.0  0.58582  0.95346  0.45376  1.0000
  H   H6428     1.0  0.76898  0.90614  0.39957  1.0000
  H   H6429     1.0  0.63989  0.98599  0.38090  1.0000
  H   H6430     1.0  0.61159  0.92429  0.32953  1.0000
  H   H6431     1.0  0.79362  0.95369  0.40530  1.0000
  C   C3759     1.0  0.70030  0.95642  0.42043  1.0000
  C   C3760     1.0  0.69070  0.93955  0.41384  1.0000
  H   H6432     1.0  0.80139  0.92948  0.40250  1.0000
  H   H6433     1.0  0.86725  0.84835  0.45936  1.0000
  C   C3761     1.0  0.71119  0.95905  0.42744  1.0000
  Fe  Fe546     1.0  0.62539  0.96357  0.47254  1.0000
  C   C3762     1.0  0.77433  0.91362  0.39057  1.0000
  H   H6434     1.0  0.57773  0.96532  0.32491  1.0000
  C   C3763     1.0  0.57824  0.95874  0.31735  1.0000
  H   H6435     1.0  0.97105  0.75803  0.38655  1.0000
  H   H6436     1.0  0.78976  0.92651  0.38694  1.0000
  H   H6437     1.0  0.67525  0.95073  0.43741  1.0000
  H   H6438     1.0  0.80615  0.88966  0.41119  1.0000
  C   C3764     1.0  0.58265  0.93986  0.29312  1.0000
  H   H6439     1.0  0.57230  0.96572  0.30901  1.0000
  H   H6440     1.0  0.76642  0.91893  0.38357  1.0000
  H   H6441     1.0  0.54252  0.75270  0.26107  1.0000
  H   H6442     1.0  0.89327  0.86285  0.45266  1.0000
  C   C3765     1.0  0.50901  0.90077  0.38283  1.0000
  H   H6443     1.0  0.97597  0.88492  0.47841  1.0000
  H   H6444     1.0  0.78373  0.90725  0.38408  1.0000
  S   S1088     1.0  0.66295  0.98488  0.33392  1.0000
  H   H6445     1.0  0.66879  0.97024  0.37253  1.0000
  N   N271      1.0  0.57749  0.93184  0.32099  1.0000
  C   C3766     1.0  0.57110  0.94590  0.32570  1.0000
  H   H6446     1.0  0.51245  0.92922  0.34452  1.0000
  H   H6447     1.0  0.95539  0.75062  0.39477  1.0000
  H   H6448     1.0  0.88144  0.82434  0.46411  1.0000
  H   H6449     1.0  0.58073  0.83675  0.29045  1.0000
  H   H6450     1.0  0.59423  0.86071  0.32042  1.0000
  C   C3767     1.0  0.55491  0.79208  0.24445  1.0000
  H   H6451     1.0  0.57461  0.92141  0.30593  1.0000
  C   C3768     1.0  0.83950  0.79037  0.47763  1.0000
  C   C3769     1.0  0.59180  0.85471  0.31381  1.0000
  H   H6452     1.0  0.98302  0.76637  0.40329  1.0000
  H   H6453     1.0  0.80913  0.79867  0.45430  1.0000
  C   C3770     1.0  0.60660  0.84571  0.30741  1.0000
  C   C3771     1.0  0.57095  0.92031  0.33240  1.0000
  H   H6454     1.0  0.53148  0.75994  0.24779  1.0000
  H   H6455     1.0  0.70826  0.95634  0.43924  1.0000
  H   H6456     1.0  0.59504  0.86461  0.24399  1.0000
  H   H6457     1.0  0.83473  0.79869  0.45115  1.0000
  C   C3772     1.0  0.60556  0.98254  0.36886  1.0000
  H   H6458     1.0  0.67493  0.94846  0.40034  1.0000
  H   H6459     1.0  0.65318  0.96229  0.26694  1.0000
  C   C3773     1.0  0.97790  0.86779  0.45217  1.0000
  C   C3774     1.0  0.99754  0.87403  0.45797  1.0000
  C   C3775     1.0  0.67852  0.95177  0.40830  1.0000
  H   H6460     1.0  0.66850  0.98636  0.39650  1.0000
  H   H6461     1.0  0.57282  0.91979  0.34304  1.0000
  H   H6462     1.0  0.57214  0.87286  0.33064  1.0000
  C   C3776     1.0  0.60805  0.87284  0.25279  1.0000
  C   C3777     1.0  0.91092  0.86965  0.47709  1.0000
  C   C3778     1.0  0.86606  0.82818  0.44473  1.0000
  H   H6463     1.0  0.68796  0.98374  0.46026  1.0000
  H   H6464     1.0  0.72622  0.98306  0.38211  1.0000
  C   C3779     1.0  0.67058  0.99000  0.43328  1.0000
  H   H6465     1.0  0.81181  0.80072  0.47041  1.0000
  H   H6466     1.0  0.54808  0.81370  0.24853  1.0000
  C   C3780     1.0  0.00082  0.83218  0.47232  1.0000
  C   C3781     1.0  0.77555  0.90340  0.48302  1.0000
  S   S1089     1.0  0.62317  0.98132  0.45310  1.0000
  C   C3782     1.0  0.67422  0.97595  0.24848  1.0000
  H   H6467     1.0  0.60467  0.88384  0.24722  1.0000
  H   H6468     1.0  0.71893  0.98952  0.29402  1.0000
  H   H6469     1.0  0.65786  0.97759  0.27744  1.0000
  H   H6470     1.0  0.85955  0.82777  0.43742  1.0000
  H   H6471     1.0  0.65181  0.96669  0.24875  1.0000
  Fe  Fe547     1.0  0.74124  0.98886  0.39972  1.0000
  C   C3783     1.0  0.90798  0.92363  0.47321  1.0000
  C   C3784     1.0  0.53757  0.77636  0.25479  1.0000
  H   H6472     1.0  0.87190  0.86099  0.44346  1.0000
  C   C3785     1.0  0.99135  0.83727  0.48409  1.0000
  C   C3786     1.0  0.68450  0.98887  0.45031  1.0000
  H   H6473     1.0  0.72323  0.95487  0.28864  1.0000
  C   C3787     1.0  0.77662  0.91798  0.48469  1.0000
  H   H6474     1.0  0.67469  0.97261  0.23856  1.0000
  H   H6475     1.0  0.95234  0.87457  0.47183  1.0000
  C   C3788     1.0  0.89812  0.93500  0.46387  1.0000
  H   H6476     1.0  0.90358  0.93550  0.45241  1.0000
  C   C3789     1.0  0.58124  0.97231  0.47859  1.0000
  H   H6477     1.0  0.91583  0.81629  0.48233  1.0000
  H   H6478     1.0  0.97666  0.86651  0.47997  1.0000
  S   S1090     1.0  0.95313  0.84294  0.47834  1.0000
  H   H6479     1.0  0.95485  0.89565  0.44955  1.0000
  N   N272      1.0  0.65874  0.98268  0.25482  1.0000
  H   H6480     1.0  0.70936  0.97782  0.29165  1.0000
  C   C3790     1.0  0.83113  0.78866  0.45735  1.0000
  C   C3791     1.0  0.64985  0.97143  0.25820  1.0000
  H   H6481     1.0  0.65533  0.84575  0.24574  1.0000
  H   H6482     1.0  0.58575  0.97688  0.41040  1.0000
  S   S1091     1.0  0.94076  0.75245  0.44822  1.0000
  C   C3792     1.0  0.67461  0.97916  0.36884  1.0000
  Fe  Fe548     1.0  0.82892  0.92386  0.47038  1.0000
  H   H6483     1.0  0.88757  0.93212  0.46536  1.0000
  C   C3793     1.0  0.98754  0.86547  0.43745  1.0000
  H   H6484     1.0  0.76865  0.92661  0.47931  1.0000
  C   C3794     1.0  0.67404  0.98412  0.44672  1.0000
  H   H6485     1.0  0.87566  0.86740  0.46372  1.0000
  S   S1092     1.0  0.79003  0.82541  0.48566  1.0000
  H   H6486     1.0  0.96741  0.89252  0.43315  1.0000
  H   H6487     1.0  0.81956  0.98043  0.48560  1.0000
  H   H6488     1.0  0.68144  0.98366  0.24482  1.0000
  C   C3795     1.0  0.97329  0.87750  0.47353  1.0000
  C   C3796     1.0  0.63500  0.98700  0.48592  1.0000
  C   C3797     1.0  0.63362  0.99109  0.40161  1.0000
  H   H6489     1.0  0.81985  0.97921  0.46821  1.0000
  N   N273      1.0  0.98143  0.87848  0.45810  1.0000
  H   H6490     1.0  0.62822  0.98189  0.40681  1.0000
  C   C3798     1.0  0.64557  0.98744  0.38845  1.0000
  H   H6491     1.0  0.78746  0.92054  0.47943  1.0000
  H   H6492     1.0  0.62815  0.98339  0.25407  1.0000
  H   H6493     1.0  0.91843  0.89379  0.48511  1.0000
  H   H6494     1.0  0.56731  0.99089  0.45507  1.0000
  H   H6495     1.0  0.98212  0.86042  0.43242  1.0000
  H   H6496     1.0  0.67699  0.95321  0.26017  1.0000
  H   H6497     1.0  0.68105  0.96478  0.26896  1.0000
  C   C3799     1.0  0.88604  0.88366  0.48099  1.0000
  H   H6498     1.0  0.78577  0.87863  0.47378  1.0000
  H   H6499     1.0  0.95215  0.89267  0.47276  1.0000
  H   H6500     1.0  0.82994  0.74757  0.47716  1.0000
  S   S1093     1.0  0.82440  0.94301  0.47993  1.0000
  C   C3800     1.0  0.95655  0.88104  0.47643  1.0000
  H   H6501     1.0  0.89224  0.81096  0.48374  1.0000
  H   H6502     1.0  0.98767  0.89602  0.44061  1.0000
  C   C3801     1.0  0.65738  0.98714  0.26846  1.0000
  H   H6503     1.0  0.95470  0.78036  0.47521  1.0000
  H   H6504     1.0  0.56667  0.76420  0.25097  1.0000
  C   C3802     1.0  0.87581  0.97102  0.47608  1.0000
  H   H6505     1.0  0.64007  0.83280  0.24178  1.0000
  C   C3803     1.0  0.82034  0.98672  0.47438  1.0000
  H   H6506     1.0  0.91902  0.86036  0.48061  1.0000
  C   C3804     1.0  0.96755  0.74781  0.39229  1.0000
  H   H6507     1.0  0.81561  0.83537  0.48291  1.0000
  H   H6508     1.0  0.60935  0.98033  0.37861  1.0000
  S   S1094     1.0  0.89847  0.74536  0.41676  1.0000
  H   H6509     1.0  0.56095  0.98822  0.47979  1.0000
  H   H6510     1.0  0.84209  0.76121  0.48469  1.0000
  C   C3805     1.0  0.80144  0.89170  0.48123  1.0000
  H   H6511     1.0  0.59113  0.96882  0.48309  1.0000
  C   C3806     1.0  0.91292  0.77131  0.48329  1.0000
  C   C3807     1.0  0.81365  0.87858  0.48502  1.0000
  H   H6512     1.0  0.82399  0.77063  0.48454  1.0000
  Fe  Fe549     1.0  0.85258  0.90676  0.48620  1.0000
  H   H6513     1.0  0.81454  0.87010  0.47937  1.0000
  H   H6514     1.0  0.95515  0.75457  0.41834  1.0000
  C   C3808     1.0  0.61193  0.99141  0.35642  1.0000
  C   C3809     1.0  0.92634  0.77595  0.48419  1.0000
  H   H6515     1.0  0.92375  0.78793  0.48156  1.0000
  H   H6516     1.0  0.60026  0.98851  0.47676  1.0000
  C   C3810     1.0  0.96725  0.75253  0.41507  1.0000
  H   H6517     1.0  0.55916  0.75792  0.24048  1.0000
  H   H6518     1.0  0.82428  0.88181  0.48139  1.0000
  H   H6519     1.0  0.91413  0.75949  0.48625  1.0000
  H   H6520     1.0  0.99961  0.89412  0.46195  1.0000
  C   C3811     1.0  0.95665  0.77561  0.48612  1.0000
  H   H6521     1.0  0.96613  0.74365  0.37259  1.0000
  C   C3812     1.0  0.00322  0.88232  0.46543  1.0000
  H   H6522     1.0  0.71665  0.99202  0.34732  1.0000
  H   H6523     1.0  0.66164  0.86174  0.23730  1.0000
  H   H6524     1.0  0.85197  0.95096  0.49823  1.0000
  H   H6525     1.0  0.62945  0.93315  0.56102  1.0000
  H   H6526     1.0  0.54048  0.96627  0.61212  1.0000
  H   H6527     1.0  0.83929  0.79217  0.55953  1.0000
  C   C3813     1.0  0.92102  0.77252  0.52469  1.0000
  C   C3814     1.0  0.70497  0.98779  0.64623  1.0000
  S   S1095     1.0  0.81175  0.93133  0.52122  1.0000
  H   H6528     1.0  0.65966  0.94018  0.56891  1.0000
  Fe  Fe550     1.0  0.86012  0.75430  0.52215  1.0000
  C   C3815     1.0  0.94617  0.74620  0.51125  1.0000
  H   H6529     1.0  0.80306  0.77470  0.52872  1.0000
  C   C3816     1.0  0.83044  0.79041  0.56873  1.0000
  H   H6530     1.0  0.66081  0.92540  0.58384  1.0000
  S   S1096     1.0  0.55418  0.98706  0.66582  1.0000
  H   H6531     1.0  0.64059  0.96461  0.56445  1.0000
  S   S1097     1.0  0.60633  0.95907  0.71100  1.0000
  H   H6532     1.0  0.95160  0.75291  0.51420  1.0000
  H   H6533     1.0  0.64483  0.94753  0.59054  1.0000
  C   C3817     1.0  0.62568  0.97990  0.49737  1.0000
  C   C3818     1.0  0.67539  0.94779  0.69938  1.0000
  N   N274      1.0  0.62765  0.95019  0.57970  1.0000
  H   H6534     1.0  0.67613  0.97963  0.60744  1.0000
  C   C3819     1.0  0.67099  0.96264  0.70327  1.0000
  S   S1098     1.0  0.57238  0.94619  0.67286  1.0000
  H   H6535     1.0  0.52493  0.95854  0.61940  1.0000
  H   H6536     1.0  0.92823  0.76235  0.52880  1.0000
  S   S1099     1.0  0.84280  0.76123  0.57202  1.0000
  H   H6537     1.0  0.87083  0.74210  0.57766  1.0000
  C   C3820     1.0  0.86673  0.75123  0.59576  1.0000
  C   C3821     1.0  0.50851  0.98714  0.65230  1.0000
  S   S1100     1.0  0.67043  0.96855  0.55988  1.0000
  H   H6538     1.0  0.76601  0.80793  0.55363  1.0000
  H   H6539     1.0  0.91192  0.74908  0.57714  1.0000
  H   H6540     1.0  0.68690  0.97484  0.68120  1.0000
  H   H6541     1.0  0.66971  0.97984  0.72055  1.0000
  H   H6542     1.0  0.65725  0.87032  0.70690  1.0000
  Fe  Fe551     1.0  0.67661  0.93883  0.63309  1.0000
  S   S1101     1.0  0.69517  0.94997  0.62466  1.0000
  S   S1102     1.0  0.65527  0.95017  0.62707  1.0000
  Fe  Fe552     1.0  0.69286  0.91406  0.65201  1.0000
  S   S1103     1.0  0.71292  0.92307  0.64568  1.0000
  S   S1104     1.0  0.69114  0.89230  0.66608  1.0000
  Fe  Fe553     1.0  0.69724  0.94417  0.64741  1.0000
  S   S1105     1.0  0.69837  0.96130  0.65736  1.0000
  Fe  Fe554     1.0  0.70933  0.92809  0.62335  1.0000
  S   S1106     1.0  0.72927  0.92529  0.60544  1.0000
  S   S1107     1.0  0.67754  0.93469  0.65599  1.0000
  S   S1108     1.0  0.69045  0.91737  0.62952  1.0000
  Fe  Fe555     1.0  0.79720  0.86611  0.57115  1.0000
  S   S1109     1.0  0.78353  0.87540  0.55479  1.0000
  S   S1110     1.0  0.80864  0.88061  0.57532  1.0000
  Fe  Fe556     1.0  0.79119  0.83642  0.57699  1.0000
  S   S1111     1.0  0.77702  0.84336  0.56100  1.0000
  S   S1112     1.0  0.79382  0.81387  0.59031  1.0000
  Fe  Fe557     1.0  0.79442  0.85503  0.54718  1.0000
  S   S1113     1.0  0.80681  0.85557  0.52447  1.0000
  Fe  Fe558     1.0  0.76760  0.86301  0.57037  1.0000
  S   S1114     1.0  0.74357  0.87316  0.57542  1.0000
  S   S1115     1.0  0.80929  0.84658  0.56251  1.0000
  S   S1116     1.0  0.78043  0.85519  0.58749  1.0000
  S   S1117     1.0  0.82855  0.90773  0.49133  1.0000
  C   C3822     1.0  0.80814  0.79986  0.58485  1.0000
  C   C3823     1.0  0.80764  0.78585  0.59263  1.0000
  S   S1118     1.0  0.87703  0.77216  0.54195  1.0000
  C   C3824     1.0  0.81971  0.80219  0.57300  1.0000
  H   H6543     1.0  0.79882  0.78398  0.60184  1.0000
  S   S1119     1.0  0.86969  0.80281  0.50719  1.0000
  H   H6544     1.0  0.82031  0.81303  0.56711  1.0000
  C   C3825     1.0  0.80204  0.84661  0.51428  1.0000
  C   C3826     1.0  0.78852  0.84281  0.51823  1.0000
  C   C3827     1.0  0.65329  0.93270  0.57703  1.0000
  C   C3828     1.0  0.91424  0.91135  0.49630  1.0000
  H   H6545     1.0  0.52888  0.96609  0.60071  1.0000
  H   H6546     1.0  0.80786  0.82480  0.54006  1.0000
  H   H6547     1.0  0.78082  0.84525  0.52785  1.0000
  S   S1120     1.0  0.84779  0.77419  0.53021  1.0000
  S   S1121     1.0  0.55272  0.97046  0.64192  1.0000
  S   S1122     1.0  0.88058  0.97420  0.51388  1.0000
  H   H6548     1.0  0.68460  0.98738  0.71054  1.0000
  C   C3829     1.0  0.73285  0.91064  0.59743  1.0000
  C   C3830     1.0  0.72169  0.90666  0.59430  1.0000
  C   C3831     1.0  0.72506  0.89531  0.58727  1.0000
  C   C3832     1.0  0.73953  0.88775  0.58362  1.0000
  C   C3833     1.0  0.75063  0.89167  0.58688  1.0000
  C   C3834     1.0  0.74729  0.90310  0.59371  1.0000
  H   H6549     1.0  0.71053  0.91251  0.59703  1.0000
  H   H6550     1.0  0.71644  0.89233  0.58472  1.0000
  H   H6551     1.0  0.76180  0.88587  0.58416  1.0000
  H   H6552     1.0  0.75593  0.90592  0.59635  1.0000
  H   H6553     1.0  0.92518  0.91380  0.49109  1.0000
  C   C3835     1.0  0.72310  0.98044  0.62097  1.0000
  C   C3836     1.0  0.71639  0.97020  0.63160  1.0000
  C   C3837     1.0  0.70723  0.97389  0.64421  1.0000
  H   H6554     1.0  0.00148  0.81310  0.53671  1.0000
  C   C3838     1.0  0.67639  0.98224  0.70953  1.0000
  N   N275      1.0  0.90271  0.92216  0.48918  1.0000
  H   H6555     1.0  0.71851  0.95938  0.63013  1.0000
  H   H6556     1.0  0.50818  0.98133  0.61364  1.0000
  H   H6557     1.0  0.87669  0.74866  0.49290  1.0000
  C   C3839     1.0  0.65647  0.89189  0.70785  1.0000
  C   C3840     1.0  0.66216  0.90417  0.70108  1.0000
  C   C3841     1.0  0.67279  0.90444  0.68821  1.0000
  C   C3842     1.0  0.67784  0.89237  0.68213  1.0000
  C   C3843     1.0  0.67224  0.88007  0.68895  1.0000
  C   C3844     1.0  0.66154  0.87986  0.70172  1.0000
  H   H6558     1.0  0.65861  0.91337  0.70584  1.0000
  H   H6559     1.0  0.67736  0.91382  0.68323  1.0000
  H   H6560     1.0  0.67615  0.87069  0.68434  1.0000
  S   S1123     1.0  0.64293  0.89119  0.72383  1.0000
  S   S1124     1.0  0.84894  0.74414  0.51207  1.0000
  H   H6561     1.0  0.86038  0.95710  0.51646  1.0000
  S   S1125     1.0  0.63961  0.93266  0.72119  1.0000
  H   H6562     1.0  0.55438  0.97195  0.72707  1.0000
  C   C3845     1.0  0.69337  0.97092  0.68964  1.0000
  H   H6563     1.0  0.63618  0.93288  0.59614  1.0000
  H   H6564     1.0  0.62626  0.96988  0.58597  1.0000
  C   C3846     1.0  0.90012  0.93625  0.49334  1.0000
  H   H6565     1.0  0.76835  0.86374  0.49001  1.0000
  C   C3847     1.0  0.66655  0.96431  0.57855  1.0000
  C   C3848     1.0  0.67540  0.95238  0.58560  1.0000
  C   C3849     1.0  0.67203  0.94829  0.60054  1.0000
  C   C3850     1.0  0.65959  0.95588  0.60845  1.0000
  C   C3851     1.0  0.65076  0.96793  0.60143  1.0000
  C   C3852     1.0  0.65437  0.97228  0.58645  1.0000
  H   H6566     1.0  0.68482  0.94623  0.57950  1.0000
  H   H6567     1.0  0.67891  0.93901  0.60589  1.0000
  H   H6568     1.0  0.92282  0.93706  0.49186  1.0000
  H   H6569     1.0  0.76484  0.87341  0.50365  1.0000
  S   S1126     1.0  0.85008  0.92407  0.49747  1.0000
  Fe  Fe559     1.0  0.56645  0.96717  0.65761  1.0000
  H   H6570     1.0  0.88293  0.80336  0.52948  1.0000
  C   C3853     1.0  0.62169  0.96717  0.55617  1.0000
  S   S1127     1.0  0.92927  0.81714  0.50427  1.0000
  C   C3854     1.0  0.65759  0.99014  0.65542  1.0000
  H   H6571     1.0  0.66518  0.96999  0.69501  1.0000
  H   H6572     1.0  0.99934  0.79077  0.55062  1.0000
  Fe  Fe560     1.0  0.61564  0.94107  0.72725  1.0000
  C   C3855     1.0  0.88999  0.80646  0.51918  1.0000
  H   H6573     1.0  0.69598  0.94731  0.71154  1.0000
  H   H6574     1.0  0.77176  0.89113  0.50990  1.0000
  C   C3856     1.0  0.58143  0.94953  0.68395  1.0000
  C   C3857     1.0  0.58540  0.96271  0.68063  1.0000
  C   C3858     1.0  0.59297  0.96547  0.68911  1.0000
  C   C3859     1.0  0.59675  0.95501  0.70089  1.0000
  C   C3860     1.0  0.59284  0.94176  0.70433  1.0000
  C   C3861     1.0  0.58506  0.93904  0.69588  1.0000
  C   C3862     1.0  0.80231  0.76827  0.55636  1.0000
  H   H6575     1.0  0.80517  0.81252  0.52317  1.0000
  H   H6576     1.0  0.59563  0.93369  0.71352  1.0000
  H   H6577     1.0  0.58193  0.92884  0.69850  1.0000
  C   C3863     1.0  0.91246  0.81366  0.50510  1.0000
  C   C3864     1.0  0.50828  0.96216  0.65495  1.0000
  H   H6578     1.0  0.78141  0.80258  0.56134  1.0000
  C   C3865     1.0  0.88595  0.80717  0.50658  1.0000
  C   C3866     1.0  0.90319  0.80986  0.51842  1.0000
  C   C3867     1.0  0.99641  0.84359  0.49213  1.0000
  S   S1128     1.0  0.86723  0.74269  0.54256  1.0000
  H   H6579     1.0  0.90633  0.80935  0.52815  1.0000
  H   H6580     1.0  0.63801  0.97634  0.70011  1.0000
  C   C3868     1.0  0.64700  0.98536  0.66962  1.0000
  C   C3869     1.0  0.52915  0.96752  0.61125  1.0000
  H   H6581     1.0  0.65022  0.92603  0.57167  1.0000
  H   H6582     1.0  0.79118  0.86748  0.48956  1.0000
  C   C3870     1.0  0.81381  0.91641  0.53544  1.0000
  C   C3871     1.0  0.81471  0.91828  0.54852  1.0000
  C   C3872     1.0  0.81415  0.90690  0.56061  1.0000
  C   C3873     1.0  0.81240  0.89373  0.55967  1.0000
  C   C3874     1.0  0.81243  0.89162  0.54637  1.0000
  C   C3875     1.0  0.81321  0.90294  0.53423  1.0000
  H   H6583     1.0  0.81554  0.92862  0.54934  1.0000
  H   H6584     1.0  0.81436  0.90850  0.57083  1.0000
  H   H6585     1.0  0.81171  0.88128  0.54544  1.0000
  H   H6586     1.0  0.81277  0.90142  0.52408  1.0000
  C   C3876     1.0  0.79466  0.83338  0.49678  1.0000
  C   C3877     1.0  0.84867  0.78391  0.48916  1.0000
  C   C3878     1.0  0.82977  0.77640  0.57661  1.0000
  N   N276      1.0  0.93126  0.77007  0.49819  1.0000
  H   H6587     1.0  0.64747  0.98148  0.58100  1.0000
  H   H6588     1.0  0.62784  0.91961  0.57755  1.0000
  N   N277      1.0  0.72956  0.87018  0.63822  1.0000
  C   C3879     1.0  0.71775  0.86327  0.64890  1.0000
  C   C3880     1.0  0.72454  0.87620  0.62432  1.0000
  C   C3881     1.0  0.73075  0.88237  0.64375  1.0000
  C   C3882     1.0  0.74373  0.85903  0.63687  1.0000
  C   C3883     1.0  0.71970  0.85777  0.66449  1.0000
  C   C3884     1.0  0.72122  0.86518  0.61810  1.0000
  C   C3885     1.0  0.74223  0.89101  0.63457  1.0000
  C   C3886     1.0  0.75533  0.86156  0.62270  1.0000
  H   H6589     1.0  0.70689  0.87085  0.64918  1.0000
  H   H6590     1.0  0.71677  0.85378  0.64570  1.0000
  H   H6591     1.0  0.73254  0.88154  0.61584  1.0000
  H   H6592     1.0  0.71450  0.88489  0.62561  1.0000
  H   H6593     1.0  0.72002  0.89012  0.64533  1.0000
  H   H6594     1.0  0.73361  0.87841  0.65440  1.0000
  H   H6595     1.0  0.74899  0.85767  0.64585  1.0000
  H   H6596     1.0  0.74153  0.84835  0.63783  1.0000
  H   H6597     1.0  0.71166  0.85107  0.67067  1.0000
  H   H6598     1.0  0.73072  0.85103  0.66519  1.0000
  H   H6599     1.0  0.71730  0.86679  0.66991  1.0000
  H   H6600     1.0  0.72025  0.86998  0.60685  1.0000
  H   H6601     1.0  0.72995  0.85529  0.61801  1.0000
  H   H6602     1.0  0.71063  0.86235  0.62403  1.0000
  H   H6603     1.0  0.74049  0.89592  0.62363  1.0000
  H   H6604     1.0  0.75346  0.88443  0.63431  1.0000
  H   H6605     1.0  0.74134  0.90004  0.63948  1.0000
  H   H6606     1.0  0.76637  0.85708  0.62503  1.0000
  H   H6607     1.0  0.75507  0.87288  0.61708  1.0000
  H   H6608     1.0  0.75475  0.85541  0.61522  1.0000
  H   H6609     1.0  0.80259  0.81105  0.55484  1.0000
  C   C3887     1.0  0.86012  0.95730  0.49487  1.0000
  H   H6610     1.0  0.65223  0.98537  0.67814  1.0000
  H   H6611     1.0  0.80259  0.78823  0.56041  1.0000
  H   H6612     1.0  0.79003  0.82159  0.54367  1.0000
  H   H6613     1.0  0.86818  0.84545  0.49272  1.0000
  H   H6614     1.0  0.84382  0.77571  0.49786  1.0000
  N   N278      1.0  0.69706  0.99203  0.58409  1.0000
  C   C3888     1.0  0.62288  0.98681  0.68565  1.0000
  C   C3889     1.0  0.76819  0.87429  0.49191  1.0000
  H   H6615     1.0  0.91256  0.91200  0.50762  1.0000
  C   C3890     1.0  0.80743  0.80585  0.53359  1.0000
  H   H6616     1.0  0.67711  0.98935  0.58099  1.0000
  H   H6617     1.0  0.70082  0.96060  0.68756  1.0000
  H   H6618     1.0  0.66590  0.94567  0.69695  1.0000
  H   H6619     1.0  0.90573  0.89153  0.50231  1.0000
  H   H6620     1.0  0.68855  0.98095  0.49391  1.0000
  H   H6621     1.0  0.96445  0.78112  0.48746  1.0000
  H   H6622     1.0  0.61349  0.93563  0.59179  1.0000
  H   H6623     1.0  0.60736  0.94946  0.60757  1.0000
  C   C3891     1.0  0.77580  0.79919  0.55511  1.0000
  H   H6624     1.0  0.89704  0.93487  0.50521  1.0000
  H   H6625     1.0  0.78136  0.80627  0.53203  1.0000
  H   H6626     1.0  0.63402  0.96734  0.73264  1.0000
  H   H6627     1.0  0.52447  0.96915  0.66052  1.0000
  H   H6628     1.0  0.61529  0.97757  0.51976  1.0000
  C   C3892     1.0  0.61965  0.96175  0.58802  1.0000
  H   H6629     1.0  0.91048  0.77338  0.53268  1.0000
  H   H6630     1.0  0.72180  0.97164  0.57070  1.0000
  H   H6631     1.0  0.80186  0.88859  0.51351  1.0000
  H   H6632     1.0  0.60925  0.96621  0.60909  1.0000
  C   C3893     1.0  0.70286  0.98202  0.68648  1.0000
  H   H6633     1.0  0.59588  0.97575  0.68652  1.0000
  N   N279      1.0  0.85419  0.84775  0.52200  1.0000
  C   C3894     1.0  0.85332  0.83224  0.52812  1.0000
  C   C3895     1.0  0.86997  0.84857  0.51881  1.0000
  C   C3896     1.0  0.84877  0.85364  0.50833  1.0000
  C   C3897     1.0  0.84476  0.85647  0.53275  1.0000
  C   C3898     1.0  0.83849  0.82861  0.53013  1.0000
  C   C3899     1.0  0.87643  0.84607  0.53194  1.0000
  H   H6634     1.0  0.87223  0.75245  0.60349  1.0000
  C   C3900     1.0  0.84494  0.87263  0.52865  1.0000
  H   H6635     1.0  0.86153  0.82525  0.52139  1.0000
  H   H6636     1.0  0.85612  0.82845  0.53881  1.0000
  H   H6637     1.0  0.87180  0.85903  0.51178  1.0000
  H   H6638     1.0  0.87707  0.84049  0.51255  1.0000
  H   H6639     1.0  0.83686  0.85438  0.51042  1.0000
  H   H6640     1.0  0.85000  0.86492  0.50371  1.0000
  H   H6641     1.0  0.83313  0.85612  0.53451  1.0000
  H   H6642     1.0  0.84715  0.85179  0.54360  1.0000
  H   H6643     1.0  0.83949  0.81687  0.53450  1.0000
  H   H6644     1.0  0.82989  0.83407  0.53796  1.0000
  H   H6645     1.0  0.83501  0.83110  0.51990  1.0000
  H   H6646     1.0  0.87121  0.85469  0.53798  1.0000
  H   H6647     1.0  0.87570  0.83543  0.53918  1.0000
  H   H6648     1.0  0.88820  0.84627  0.52818  1.0000
  C   C3901     1.0  0.63992  0.97225  0.73690  1.0000
  H   H6649     1.0  0.63936  0.95024  0.67757  1.0000
  H   H6650     1.0  0.53536  0.98462  0.57305  1.0000
  H   H6651     1.0  0.83672  0.87886  0.52219  1.0000
  H   H6652     1.0  0.85566  0.87494  0.52263  1.0000
  H   H6653     1.0  0.84247  0.87671  0.53855  1.0000
  C   C3902     1.0  0.94246  0.77810  0.49761  1.0000
  C   C3903     1.0  0.79172  0.89593  0.51068  1.0000
  C   C3904     1.0  0.69095  0.95758  0.71513  1.0000
  H   H6654     1.0  0.62221  0.86605  0.73452  1.0000
  H   H6655     1.0  0.58198  0.98226  0.73040  1.0000
  H   H6656     1.0  0.80925  0.76081  0.54941  1.0000
  Fe  Fe561     1.0  0.86893  0.78122  0.52160  1.0000
  C   C3905     1.0  0.80157  0.81624  0.54377  1.0000
  H   H6657     1.0  0.90219  0.75418  0.55534  1.0000
  H   H6658     1.0  0.51328  0.95086  0.65779  1.0000
  H   H6659     1.0  0.95217  0.87836  0.48819  1.0000
  C   C3906     1.0  0.81184  0.84373  0.50165  1.0000
  S   S1129     1.0  0.88061  0.76228  0.51189  1.0000
  H   H6660     1.0  0.65577  0.99116  0.70238  1.0000
  C   C3907     1.0  0.78477  0.79652  0.54022  1.0000
  H   H6661     1.0  0.61270  0.92813  0.56895  1.0000
  C   C3908     1.0  0.86473  0.96095  0.50519  1.0000
  C   C3909     1.0  0.80746  0.78453  0.52610  1.0000
  C   C3910     1.0  0.80808  0.83732  0.49280  1.0000
  H   H6662     1.0  0.87537  0.90622  0.51298  1.0000
  Fe  Fe562     1.0  0.85674  0.76335  0.54979  1.0000
  Fe  Fe563     1.0  0.65921  0.99097  0.55136  1.0000
  H   H6663     1.0  0.61913  0.98349  0.64757  1.0000
  H   H6664     1.0  0.59381  0.96664  0.73712  1.0000
  H   H6665     1.0  0.78704  0.87651  0.50984  1.0000
  H   H6666     1.0  0.79066  0.76905  0.55698  1.0000
  H   H6667     1.0  0.88981  0.91074  0.51685  1.0000
  C   C3911     1.0  0.88846  0.91744  0.49383  1.0000
  H   H6668     1.0  0.80443  0.76335  0.56726  1.0000
  H   H6669     1.0  0.72589  0.97559  0.58564  1.0000
  Fe  Fe564     1.0  0.56901  0.98257  0.62663  1.0000
  C   C3912     1.0  0.62226  0.92994  0.57155  1.0000
  H   H6670     1.0  0.58268  0.97086  0.67149  1.0000
  C   C3913     1.0  0.88169  0.91472  0.51009  1.0000
  C   C3914     1.0  0.64012  0.94092  0.58652  1.0000
  H   H6671     1.0  0.82230  0.84667  0.49852  1.0000
  S   S1130     1.0  0.58392  0.97735  0.64160  1.0000
  H   H6672     1.0  0.77446  0.83304  0.51256  1.0000
  H   H6673     1.0  0.69656  0.97003  0.58476  1.0000
  C   C3915     1.0  0.63336  0.95770  0.56453  1.0000
  H   H6674     1.0  0.62284  0.97578  0.68524  1.0000
  C   C3916     1.0  0.51913  0.98177  0.61441  1.0000
  H   H6675     1.0  0.54664  0.98704  0.60474  1.0000
  Fe  Fe565     1.0  0.63421  0.91129  0.73248  1.0000
  H   H6676     1.0  0.90280  0.77653  0.48998  1.0000
  H   H6677     1.0  0.70572  0.98340  0.69586  1.0000
  H   H6678     1.0  0.98893  0.84782  0.50103  1.0000
  H   H6679     1.0  0.64042  0.95008  0.55784  1.0000
  H   H6680     1.0  0.61949  0.98200  0.70889  1.0000
  H   H6681     1.0  0.70724  0.95294  0.72757  1.0000
  C   C3917     1.0  0.81844  0.77420  0.58859  1.0000
  N   N280      1.0  0.77013  0.93406  0.56160  1.0000
  C   C3918     1.0  0.77981  0.93414  0.57097  1.0000
  C   C3919     1.0  0.77355  0.94479  0.54770  1.0000
  C   C3920     1.0  0.77357  0.91911  0.55882  1.0000
  C   C3921     1.0  0.75453  0.93807  0.56952  1.0000
  C   C3922     1.0  0.77970  0.92237  0.58494  1.0000
  C   C3923     1.0  0.77174  0.96039  0.54882  1.0000
  C   C3924     1.0  0.77166  0.91783  0.54441  1.0000
  C   C3925     1.0  0.74272  0.93850  0.56194  1.0000
  H   H6682     1.0  0.79132  0.93314  0.56488  1.0000
  H   H6683     1.0  0.77677  0.94453  0.57438  1.0000
  H   H6684     1.0  0.76673  0.94540  0.54028  1.0000
  H   H6685     1.0  0.78504  0.94125  0.54197  1.0000
  H   H6686     1.0  0.78515  0.91373  0.55892  1.0000
  H   H6687     1.0  0.76711  0.91211  0.56753  1.0000
  H   H6688     1.0  0.75245  0.93036  0.57992  1.0000
  H   H6689     1.0  0.75227  0.94863  0.57237  1.0000
  H   H6690     1.0  0.78238  0.91133  0.58312  1.0000
  H   H6691     1.0  0.78821  0.92286  0.59006  1.0000
  H   H6692     1.0  0.76918  0.92420  0.59280  1.0000
  H   H6693     1.0  0.77402  0.96713  0.53781  1.0000
  H   H6694     1.0  0.76048  0.96507  0.55404  1.0000
  H   H6695     1.0  0.77973  0.96133  0.55428  1.0000
  H   H6696     1.0  0.78054  0.92138  0.53546  1.0000
  H   H6697     1.0  0.76102  0.92388  0.54190  1.0000
  H   H6698     1.0  0.77250  0.90638  0.54479  1.0000
  H   H6699     1.0  0.74335  0.94632  0.55150  1.0000
  H   H6700     1.0  0.73183  0.94189  0.56879  1.0000
  H   H6701     1.0  0.74316  0.92767  0.56062  1.0000
  N   N281      1.0  0.63250  0.92209  0.66802  1.0000
  C   C3926     1.0  0.64006  0.91643  0.65461  1.0000
  C   C3927     1.0  0.61742  0.93036  0.66621  1.0000
  C   C3928     1.0  0.63159  0.90932  0.68053  1.0000
  C   C3929     1.0  0.64151  0.93136  0.66960  1.0000
  C   C3930     1.0  0.65508  0.90600  0.65487  1.0000
  C   C3931     1.0  0.61674  0.94379  0.65383  1.0000
  C   C3932     1.0  0.62018  0.91174  0.69436  1.0000
  C   C3933     1.0  0.63490  0.94040  0.68109  1.0000
  H   H6702     1.0  0.63307  0.91074  0.65212  1.0000
  H   H6703     1.0  0.64197  0.92537  0.64514  1.0000
  H   H6704     1.0  0.61076  0.93407  0.67597  1.0000
  H   H6705     1.0  0.61127  0.92325  0.66463  1.0000
  H   H6706     1.0  0.62904  0.90048  0.67749  1.0000
  H   H6707     1.0  0.64232  0.90476  0.68358  1.0000
  H   H6708     1.0  0.65190  0.92456  0.67233  1.0000
  H   H6709     1.0  0.64507  0.93873  0.65923  1.0000
  H   H6710     1.0  0.65960  0.90291  0.64435  1.0000
  H   H6711     1.0  0.66309  0.91106  0.65640  1.0000
  H   H6712     1.0  0.65437  0.89591  0.66312  1.0000
  H   H6713     1.0  0.62255  0.95150  0.65468  1.0000
  H   H6714     1.0  0.62100  0.94100  0.64319  1.0000
  H   H6715     1.0  0.60514  0.94947  0.65431  1.0000
  H   H6716     1.0  0.62101  0.92072  0.69830  1.0000
  H   H6717     1.0  0.62193  0.90193  0.70297  1.0000
  H   H6718     1.0  0.60894  0.91335  0.69296  1.0000
  H   H6719     1.0  0.63784  0.93432  0.69142  1.0000
  H   H6720     1.0  0.62299  0.94439  0.68280  1.0000
  C   C3934     1.0  0.85641  0.84534  0.49632  1.0000
  C   C3935     1.0  0.70263  0.97598  0.58813  1.0000
  H   H6721     1.0  0.87426  0.92469  0.51305  1.0000
  H   H6722     1.0  0.59061  0.98809  0.57406  1.0000
  H   H6723     1.0  0.71291  0.96191  0.70953  1.0000
  H   H6724     1.0  0.67829  0.93902  0.70853  1.0000
  H   H6725     1.0  0.70824  0.99118  0.54824  1.0000
  H   H6726     1.0  0.79422  0.90607  0.50355  1.0000
  H   H6727     1.0  0.78087  0.78778  0.53847  1.0000
  C   C3936     1.0  0.70339  0.96156  0.71872  1.0000
  C   C3937     1.0  0.87468  0.96987  0.50096  1.0000
  C   C3938     1.0  0.78492  0.83597  0.50957  1.0000
  S   S1131     1.0  0.86824  0.88568  0.49159  1.0000
  C   C3939     1.0  0.91815  0.77308  0.51012  1.0000
  H   H6728     1.0  0.77151  0.78961  0.56171  1.0000
  H   H6729     1.0  0.66267  0.96182  0.71356  1.0000
  H   H6730     1.0  0.86371  0.76212  0.58900  1.0000
  H   H6731     1.0  0.69987  0.97165  0.72262  1.0000
  H   H6732     1.0  0.68442  0.94721  0.68976  1.0000
  H   H6733     1.0  0.81947  0.78067  0.52476  1.0000
  C   C3940     1.0  0.51465  0.97251  0.65642  1.0000
  H   H6734     1.0  0.81955  0.80283  0.53200  1.0000
  N   N282      1.0  0.68324  0.96854  0.70422  1.0000
  C   C3941     1.0  0.61697  0.94147  0.58056  1.0000
  H   H6735     1.0  0.57342  0.97224  0.71852  1.0000
  H   H6736     1.0  0.54502  0.98004  0.58686  1.0000
  C   C3942     1.0  0.80642  0.78305  0.55115  1.0000
  H   H6737     1.0  0.73017  0.97755  0.61124  1.0000
  S   S1132     1.0  0.60992  0.91959  0.73679  1.0000
  H   H6738     1.0  0.81853  0.78096  0.54918  1.0000
  H   H6739     1.0  0.92474  0.88867  0.50131  1.0000
  H   H6740     1.0  0.61423  0.96101  0.55538  1.0000
  C   C3943     1.0  0.89516  0.81100  0.49333  1.0000
  H   H6741     1.0  0.91090  0.76556  0.51213  1.0000
  H   H6742     1.0  0.81791  0.76342  0.59474  1.0000
  H   H6743     1.0  0.60651  0.94844  0.57803  1.0000
  H   H6744     1.0  0.64117  0.97387  0.60755  1.0000
  H   H6745     1.0  0.85638  0.74776  0.60141  1.0000
  H   H6746     1.0  0.62724  0.97147  0.54503  1.0000
  N   N283      1.0  0.80120  0.79261  0.53803  1.0000
  H   H6747     1.0  0.71331  0.97857  0.67901  1.0000
  H   H6748     1.0  0.94414  0.75157  0.48927  1.0000
  C   C3944     1.0  0.62256  0.98299  0.51091  1.0000
  C   C3945     1.0  0.80454  0.79283  0.51120  1.0000
  H   H6749     1.0  0.76410  0.90252  0.48821  1.0000
  C   C3946     1.0  0.78361  0.88811  0.50506  1.0000
  H   H6750     1.0  0.60944  0.96777  0.58445  1.0000
  H   H6751     1.0  0.93772  0.78987  0.49570  1.0000
  H   H6752     1.0  0.51835  0.98135  0.62582  1.0000
  H   H6753     1.0  0.77360  0.91867  0.49608  1.0000
  H   H6754     1.0  0.63560  0.97475  0.65358  1.0000
  H   H6755     1.0  0.69792  0.99072  0.65593  1.0000
  H   H6756     1.0  0.78489  0.89864  0.52092  1.0000
  C   C3947     1.0  0.69905  0.99171  0.55776  1.0000
  C   C3948     1.0  0.62438  0.98106  0.65676  1.0000
  S   S1133     1.0  0.57714  0.97972  0.60398  1.0000
  H   H6757     1.0  0.64727  0.97377  0.67103  1.0000
  C   C3949     1.0  0.90848  0.81408  0.49257  1.0000
  H   H6758     1.0  0.56624  0.95720  0.72010  1.0000
  H   H6759     1.0  0.56960  0.98478  0.49413  1.0000
  C   C3950     1.0  0.62811  0.98507  0.69940  1.0000
  H   H6760     1.0  0.92545  0.78181  0.52424  1.0000
  S   S1134     1.0  0.61747  0.96751  0.49483  1.0000
  C   C3951     1.0  0.53817  0.98908  0.58070  1.0000
  H   H6761     1.0  0.88006  0.92581  0.48879  1.0000
  H   H6762     1.0  0.89373  0.86353  0.49475  1.0000
  H   H6763     1.0  0.89063  0.94394  0.48958  1.0000
  Fe  Fe566     1.0  0.82611  0.92666  0.50044  1.0000
  C   C3952     1.0  0.71905  0.97035  0.58249  1.0000
  C   C3953     1.0  0.63676  0.98732  0.73502  1.0000
  H   H6764     1.0  0.81210  0.87410  0.49665  1.0000
  H   H6765     1.0  0.72196  0.95866  0.58724  1.0000
  H   H6766     1.0  0.90982  0.95375  0.49219  1.0000
  N   N284      1.0  0.78612  0.89032  0.48901  1.0000
  H   H6767     1.0  0.84873  0.79256  0.49417  1.0000
  H   H6768     1.0  0.61539  0.97658  0.56079  1.0000
  H   H6769     1.0  0.81145  0.80082  0.50596  1.0000
  C   C3954     1.0  0.91094  0.74496  0.55736  1.0000
  H   H6770     1.0  0.85501  0.83412  0.49954  1.0000
  H   H6771     1.0  0.00299  0.83825  0.54674  1.0000
  H   H6772     1.0  0.80746  0.78514  0.50412  1.0000
  H   H6773     1.0  0.62457  0.95146  0.60948  1.0000
  H   H6774     1.0  0.68297  0.95493  0.72542  1.0000
  C   C3955     1.0  0.91301  0.94382  0.48795  1.0000
  H   H6775     1.0  0.91139  0.78396  0.50695  1.0000
  H   H6776     1.0  0.94574  0.77562  0.50793  1.0000
  H   H6777     1.0  0.88913  0.90787  0.48982  1.0000
  H   H6778     1.0  0.79292  0.79822  0.51156  1.0000
  H   H6779     1.0  0.66631  0.98068  0.65290  1.0000
  H   H6780     1.0  0.88629  0.74590  0.57997  1.0000
  H   H6781     1.0  0.70061  0.97224  0.59996  1.0000
  C   C3956     1.0  0.56576  0.96559  0.72569  1.0000
  H   H6782     1.0  0.92829  0.74842  0.50193  1.0000
  Fe  Fe567     1.0  0.88686  0.75234  0.53303  1.0000
  C   C3957     1.0  0.61508  0.95666  0.60445  1.0000
  C   C3958     1.0  0.91571  0.89551  0.49614  1.0000
  H   H6783     1.0  0.69724  0.98067  0.56210  1.0000
  H   H6784     1.0  0.61789  0.97442  0.66577  1.0000
  C   C3959     1.0  0.67277  0.99123  0.60272  1.0000
  Fe  Fe568     1.0  0.54192  0.99134  0.64869  1.0000
  C   C3960     1.0  0.93728  0.75410  0.49963  1.0000
  H   H6785     1.0  0.61208  0.88376  0.72898  1.0000
  H   H6786     1.0  0.51246  0.97140  0.90094  1.0000
  C   C3961     1.0  0.57517  0.95841  0.76255  1.0000
  N   N285      1.0  0.61146  0.86547  0.76476  1.0000
  H   H6787     1.0  0.51237  0.77538  0.92881  1.0000
  H   H6788     1.0  0.51608  0.83213  0.92685  1.0000
  C   C3962     1.0  0.51223  0.76859  0.92181  1.0000
  Fe  Fe569     1.0  0.55183  0.85125  0.84266  1.0000
  S   S1135     1.0  0.53546  0.86441  0.82974  1.0000
  S   S1136     1.0  0.55411  0.85773  0.86154  1.0000
  Fe  Fe570     1.0  0.56191  0.82799  0.82579  1.0000
  S   S1137     1.0  0.54593  0.83897  0.81169  1.0000
  S   S1138     1.0  0.57902  0.80831  0.82136  1.0000
  Fe  Fe571     1.0  0.55284  0.85905  0.81070  1.0000
  S   S1139     1.0  0.55699  0.87436  0.78914  1.0000
  Fe  Fe572     1.0  0.53005  0.84329  0.83198  1.0000
  H   H6789     1.0  0.54542  0.77673  0.85078  1.0000
  S   S1140     1.0  0.56991  0.84777  0.82345  1.0000
  S   S1141     1.0  0.54544  0.83047  0.84617  1.0000
  S   S1142     1.0  0.58109  0.75703  0.90664  1.0000
  C   C3963     1.0  0.56915  0.81602  0.88092  1.0000
  H   H6790     1.0  0.54831  0.80977  0.88718  1.0000
  H   H6791     1.0  0.51349  0.75958  0.95037  1.0000
  C   C3964     1.0  0.59268  0.79011  0.88855  1.0000
  H   H6792     1.0  0.58182  0.78996  0.89586  1.0000
  H   H6793     1.0  0.60314  0.79697  0.86677  1.0000
  H   H6794     1.0  0.53820  0.76779  0.96623  1.0000
  C   C3965     1.0  0.51829  0.74889  0.89393  1.0000
  C   C3966     1.0  0.59536  0.76862  0.84250  1.0000
  H   H6795     1.0  0.57162  0.75856  0.83603  1.0000
  H   H6796     1.0  0.57705  0.81337  0.85286  1.0000
  H   H6797     1.0  0.64005  0.86766  0.75086  1.0000
  H   H6798     1.0  0.58643  0.79242  0.86878  1.0000
  C   C3967     1.0  0.54344  0.77746  0.94367  1.0000
  H   H6799     1.0  0.60314  0.82759  0.84572  1.0000
  H   H6800     1.0  0.58076  0.74585  0.82511  1.0000
  S   S1143     1.0  0.55169  0.76013  0.89487  1.0000
  S   S1144     1.0  0.58823  0.75026  0.86799  1.0000
  H   H6801     1.0  0.59849  0.85432  0.75898  1.0000
  C   C3968     1.0  0.52652  0.79924  0.93551  1.0000
  H   H6802     1.0  0.56131  0.95212  0.74622  1.0000
  H   H6803     1.0  0.60433  0.80936  0.84463  1.0000
  C   C3969     1.0  0.55908  0.80707  0.87988  1.0000
  C   C3970     1.0  0.56740  0.88707  0.78665  1.0000
  C   C3971     1.0  0.57177  0.88895  0.79806  1.0000
  C   C3972     1.0  0.58054  0.89882  0.79559  1.0000
  C   C3973     1.0  0.58526  0.90658  0.78168  1.0000
  C   C3974     1.0  0.58074  0.90482  0.77031  1.0000
  C   C3975     1.0  0.57171  0.89521  0.77282  1.0000
  H   H6804     1.0  0.56841  0.88281  0.80877  1.0000
  H   H6805     1.0  0.58392  0.90023  0.80444  1.0000
  H   H6806     1.0  0.59945  0.87602  0.78218  1.0000
  C   C3976     1.0  0.59171  0.79832  0.87310  1.0000
  N   N286      1.0  0.58418  0.81399  0.87128  1.0000
  H   H6807     1.0  0.59553  0.84283  0.87545  1.0000
  H   H6808     1.0  0.52945  0.82421  0.94641  1.0000
  H   H6809     1.0  0.59827  0.77875  0.88836  1.0000
  C   C3977     1.0  0.50590  0.95587  0.87920  1.0000
  H   H6810     1.0  0.50536  0.86053  0.92722  1.0000
  C   C3978     1.0  0.51799  0.87951  0.79695  1.0000
  H   H6811     1.0  0.53069  0.79885  0.98137  1.0000
  C   C3979     1.0  0.58274  0.81983  0.85595  1.0000
  C   C3980     1.0  0.59322  0.78139  0.83212  1.0000
  C   C3981     1.0  0.58095  0.79241  0.83469  1.0000
  C   C3982     1.0  0.57068  0.79053  0.84769  1.0000
  C   C3983     1.0  0.57299  0.77781  0.85825  1.0000
  H   H6812     1.0  0.60114  0.78273  0.82205  1.0000
  H   H6813     1.0  0.56096  0.79882  0.84952  1.0000
  H   H6814     1.0  0.56511  0.77647  0.86829  1.0000
  C   C3984     1.0  0.51654  0.89420  0.87463  1.0000
  C   C3985     1.0  0.53055  0.89295  0.87639  1.0000
  C   C3986     1.0  0.54198  0.88177  0.87228  1.0000
  C   C3987     1.0  0.53953  0.87178  0.86630  1.0000
  C   C3988     1.0  0.52549  0.87292  0.86457  1.0000
  C   C3989     1.0  0.51396  0.88414  0.86879  1.0000
  H   H6815     1.0  0.53257  0.90069  0.88094  1.0000
  H   H6816     1.0  0.55279  0.88094  0.87362  1.0000
  H   H6817     1.0  0.52344  0.86502  0.86027  1.0000
  C   C3990     1.0  0.54032  0.79562  0.98608  1.0000
  C   C3991     1.0  0.58534  0.76680  0.85562  1.0000
  H   H6818     1.0  0.55829  0.86065  0.90891  1.0000
  H   H6819     1.0  0.51211  0.83252  0.98331  1.0000
  C   C3992     1.0  0.52611  0.83611  0.92524  1.0000
  C   C3993     1.0  0.52232  0.78715  0.96057  1.0000
  C   C3994     1.0  0.53503  0.77667  0.95770  1.0000
  C   C3995     1.0  0.53900  0.78862  0.93255  1.0000
  H   H6820     1.0  0.63165  0.87819  0.77117  1.0000
  H   H6821     1.0  0.66169  0.99000  0.75141  1.0000
  H   H6822     1.0  0.52473  0.88207  0.80271  1.0000
  H   H6823     1.0  0.52704  0.75405  0.89236  1.0000
  C   C3996     1.0  0.59714  0.82019  0.84457  1.0000
  H   H6824     1.0  0.56824  0.89389  0.76398  1.0000
  C   C3997     1.0  0.58791  0.83833  0.87248  1.0000
  H   H6825     1.0  0.57576  0.83088  0.85453  1.0000
  H   H6826     1.0  0.51694  0.95765  0.87804  1.0000
  H   H6827     1.0  0.58807  0.86879  0.76715  1.0000
  H   H6828     1.0  0.51155  0.88936  0.82162  1.0000
  C   C3998     1.0  0.54062  0.85261  0.90706  1.0000
  H   H6829     1.0  0.66730  0.96356  0.75460  1.0000
  C   C3999     1.0  0.50772  0.94494  0.87017  1.0000
  H   H6830     1.0  0.59932  0.79434  0.89304  1.0000
  S   S1145     1.0  0.63637  0.91253  0.75391  1.0000
  H   H6831     1.0  0.53538  0.82778  0.92106  1.0000
  H   H6832     1.0  0.56332  0.79535  0.88324  1.0000
  C   C4000     1.0  0.59314  0.82183  0.87515  1.0000
  H   H6833     1.0  0.54042  0.86170  0.89755  1.0000
  H   H6834     1.0  0.54410  0.76694  0.83913  1.0000
  H   H6835     1.0  0.60476  0.81931  0.86940  1.0000
  H   H6836     1.0  0.54391  0.86111  0.92405  1.0000
  H   H6837     1.0  0.60237  0.86989  0.73806  1.0000
  H   H6838     1.0  0.52976  0.76889  0.85483  1.0000
  H   H6839     1.0  0.57696  0.84165  0.87921  1.0000
  H   H6840     1.0  0.60319  0.83928  0.78313  1.0000
  Fe  Fe573     1.0  0.63965  0.93484  0.74283  1.0000
  C   C4001     1.0  0.62449  0.85328  0.76240  1.0000
  H   H6841     1.0  0.58410  0.91094  0.75961  1.0000
  C   C4002     1.0  0.54174  0.76720  0.85057  1.0000
  H   H6842     1.0  0.62470  0.84474  0.77237  1.0000
  H   H6843     1.0  0.55702  0.80957  0.86905  1.0000
  C   C4003     1.0  0.61084  0.87074  0.77777  1.0000
  H   H6844     1.0  0.56975  0.81365  0.89236  1.0000
  S   S1146     1.0  0.59683  0.91832  0.77881  1.0000
  H   H6845     1.0  0.59566  0.97556  0.75621  1.0000
  H   H6846     1.0  0.50870  0.90600  0.80297  1.0000
  H   H6847     1.0  0.60113  0.88628  0.75378  1.0000
  H   H6848     1.0  0.52288  0.80758  0.92686  1.0000
  H   H6849     1.0  0.57616  0.96495  0.76949  1.0000
  H   H6850     1.0  0.50923  0.76419  0.87683  1.0000
  H   H6851     1.0  0.59460  0.82422  0.83378  1.0000
  H   H6852     1.0  0.55331  0.76941  0.94147  1.0000
  H   H6853     1.0  0.51651  0.83438  0.81259  1.0000
  H   H6854     1.0  0.56689  0.94462  0.78271  1.0000
  Fe  Fe574     1.0  0.55721  0.76648  0.91215  1.0000
  H   H6855     1.0  0.51349  0.93405  0.87465  1.0000
  H   H6856     1.0  0.58783  0.84342  0.86108  1.0000
  C   C4004     1.0  0.56990  0.95821  0.74019  1.0000
  N   N287      1.0  0.52550  0.85043  0.91463  1.0000
  H   H6857     1.0  0.55582  0.84399  0.92150  1.0000
  H   H6858     1.0  0.59330  0.81814  0.88672  1.0000
  H   H6859     1.0  0.51516  0.88873  0.78816  1.0000
  H   H6860     1.0  0.56320  0.82742  0.87852  1.0000
  H   H6861     1.0  0.50839  0.87936  0.90446  1.0000
  C   C4005     1.0  0.51651  0.86243  0.92201  1.0000
  H   H6862     1.0  0.60485  0.76013  0.84034  1.0000
  S   S1147     1.0  0.54854  0.78913  0.91482  1.0000
  C   C4006     1.0  0.55005  0.85456  0.91609  1.0000
  H   H6863     1.0  0.54861  0.80171  0.97904  1.0000
  C   C4007     1.0  0.57461  0.74691  0.83610  1.0000
  N   N288      1.0  0.57142  0.96787  0.74872  1.0000
  C   C4008     1.0  0.61995  0.88182  0.77575  1.0000
  H   H6864     1.0  0.50876  0.88557  0.91930  1.0000
  C   C4009     1.0  0.58890  0.98309  0.74878  1.0000
  H   H6865     1.0  0.52571  0.82719  0.90251  1.0000
  S   S1148     1.0  0.55171  0.74726  0.92890  1.0000
  H   H6866     1.0  0.51099  0.77536  0.91110  1.0000
  H   H6867     1.0  0.51740  0.86037  0.89515  1.0000
  H   H6868     1.0  0.52966  0.82276  0.97509  1.0000
  H   H6869     1.0  0.54712  0.84325  0.90234  1.0000
  Fe  Fe575     1.0  0.61239  0.92269  0.75731  1.0000
  C   C4010     1.0  0.56426  0.94908  0.77196  1.0000
  C   C4011     1.0  0.51550  0.92758  0.90181  1.0000
  S   S1149     1.0  0.61604  0.94507  0.74807  1.0000
  C   C4012     1.0  0.50497  0.83470  0.81636  1.0000
  H   H6870     1.0  0.54781  0.97403  0.75362  1.0000
  C   C4013     1.0  0.51785  0.85024  0.90350  1.0000
  C   C4014     1.0  0.61198  0.87389  0.73766  1.0000
  C   C4015     1.0  0.65873  0.97014  0.74920  1.0000
  S   S1150     1.0  0.50659  0.84160  0.84076  1.0000
  H   H6871     1.0  0.51430  0.94847  0.85930  1.0000
  S   S1151     1.0  0.65633  0.94495  0.74532  1.0000
  C   C4016     1.0  0.50891  0.94308  0.90385  1.0000
  C   C4017     1.0  0.55735  0.97872  0.75214  1.0000
  H   H6872     1.0  0.52764  0.84024  0.97771  1.0000
  H   H6873     1.0  0.52331  0.76159  0.91994  1.0000
  H   H6874     1.0  0.61406  0.86157  0.78654  1.0000
  H   H6875     1.0  0.55282  0.95528  0.77350  1.0000
  C   C4018     1.0  0.52724  0.83560  0.94050  1.0000
  H   H6876     1.0  0.64412  0.85565  0.76726  1.0000
  C   C4019     1.0  0.59433  0.84902  0.78188  1.0000
  H   H6877     1.0  0.61556  0.89229  0.76910  1.0000
  H   H6878     1.0  0.50415  0.94257  0.91548  1.0000
  H   H6879     1.0  0.52510  0.87066  0.79176  1.0000
  H   H6880     1.0  0.51672  0.84099  0.94657  1.0000
  C   C4020     1.0  0.65101  0.96366  0.74392  1.0000
  C   C4021     1.0  0.61118  0.87778  0.75180  1.0000
  C   C4022     1.0  0.52405  0.82994  0.98257  1.0000
  H   H6881     1.0  0.50631  0.84947  0.90849  1.0000
  C   C4023     1.0  0.52472  0.83801  0.89529  1.0000
  H   H6882     1.0  0.56538  0.93963  0.76757  1.0000
  H   H6883     1.0  0.61907  0.88394  0.78636  1.0000
  H   H6884     1.0  0.58024  0.95000  0.73815  1.0000
  H   H6885     1.0  0.58443  0.84542  0.78229  1.0000
  C   C4024     1.0  0.59788  0.85981  0.76750  1.0000
  H   H6886     1.0  0.59163  0.85404  0.79120  1.0000
  H   H6887     1.0  0.55608  0.98149  0.76256  1.0000
  H   H6888     1.0  0.51758  0.83853  0.88820  1.0000
  H   H6889     1.0  0.56010  0.75559  0.86053  1.0000
  H   H6890     1.0  0.53546  0.83928  0.88818  1.0000
  C   C4025     1.0  0.51835  0.79867  0.94954  1.0000
  C   C4026     1.0  0.65554  0.98510  0.74740  1.0000
  H   H6891     1.0  0.51861  0.92069  0.91185  1.0000
  H   H6892     1.0  0.52538  0.92711  0.89297  1.0000
  S   S1152     1.0  0.51077  0.78544  0.97760  1.0000
  H   H6893     1.0  0.53176  0.74543  0.84872  1.0000
  C   C4027     1.0  0.50808  0.75471  0.88527  1.0000
  H   H6894     1.0  0.58597  0.95093  0.76042  1.0000
  Fe  Fe576     1.0  0.57519  0.74902  0.89060  1.0000
  H   H6895     1.0  0.52085  0.86277  0.93098  1.0000
  H   H6896     1.0  0.62368  0.84763  0.75457  1.0000
  H   H6897     1.0  0.54315  0.75301  0.87076  1.0000
  H   H6898     1.0  0.51841  0.94798  0.90177  1.0000
  C   C4028     1.0  0.54981  0.75363  0.85970  1.0000
  H   H6899     1.0  0.53614  0.84031  0.94064  1.0000
  C   C4029     1.0  0.63970  0.85687  0.75778  1.0000
  H   H6900     1.0  0.50684  0.74789  0.93212  1.0000
  C   C4030     1.0  0.51487  0.87774  0.91248  1.0000
  H   H6901     1.0  0.50887  0.80708  0.95174  1.0000
  H   H6902     1.0  0.52556  0.88057  0.90712  1.0000
  C   C4031     1.0  0.58408  0.97484  0.74057  1.0000
  H   H6903     1.0  0.57957  0.98984  0.75487  1.0000
  H   H6904     1.0  0.59587  0.99024  0.74102  1.0000
  H   H6905     1.0  0.62021  0.88330  0.74959  1.0000
  H   H6906     1.0  0.64729  0.84938  0.75114  1.0000
  C   C4032     1.0  0.50434  0.87441  0.80682  1.0000
  H   H6907     1.0  0.50818  0.86382  0.81372  1.0000
  H   H6908     1.0  0.50620  0.98073  0.88457  1.0000
  H   H6909     1.0  0.54459  0.78406  0.98586  1.0000
  H   H6910     1.0  0.55417  0.74659  0.83216  1.0000
  H   H6911     1.0  0.50440  0.87512  0.83378  1.0000
  H   H6912     1.0  0.50776  0.92245  0.89998  1.0000
