data_image0
_chemical_formula_structural       H5C2S2HSH3SHCHC2H2SFeS2FeS3HSH2SH2CH2CH3FeSHCSHCH2FeHSC7H4C4HCH2C6HFeH4C4FeH4NSH5C2HFeC6H4SCH6CHCH2C5H2C4HC3HFeSC2H2C2HSH2NCH6SHSH2CH3CHCFeCH4SH2CHCH3FeH14CH2SHCNC8H13CSHSH3C2H2FeHC2HCHCH5NHCH3SHFeH3C3FeHFeHSH7SFeSHS2HSH2CHSH3CSFeS2H3FeSH2S3C6H4SHCHC6H4C6H4C6H5C3HC6H4CH4C2SHFeCNHC3HCH3CHCHCS2C2H2C2H5FeHNHC2H2CHCHCHCH6CHCH2CH2CSFeHC2HC2H2FeH5SH3CH3FeSHCSC5HSNH3CSH6CFeCH2CHNCHFeH3CSHCHSH2CHSC2HCH2S2HC2NH4CH2Fe2CH6FeCH2S2FeCH3CSH2C2H3CHCHCHC2H6CH2CHNHN2SHC4H3C2H2CH2FeC2H3CH6C2H4SHSH3CH2C2HCFeH6CH3SCFeH2CSH3SH3CHFeCH2CHCH3C4HCHCHNH3FeH5NH4C2H4CFeCSH2CH2FeSFeSHSC2S2C2FeS2H2FeSHSFeS2FeS2FeSFeS3C6H4C6H4CHC2HSH2C7H5C2H4SH2SHCHCH3C6H3CH2C3H2NC7H14NC8H15C3H3NH2FeH2C2HNHC2H3CHSH2CSHCHCH3FeH3CH3CH7C4H9SC2HC2H3CHC3SHCH2CH4C2HCHFeC3H3CH3CH4FeH6CSH4NH2CNH3CH2C2HSH4CNH2CH3SNCH2SHSHCSFeS2FeS2FeSFeS4FeS2FeSFeSFeSFeS2FeSHSFeS2NHFeS2FeC6H5C4H2C6H4C6H4CFeC4H2C6H4C6H4C6H3NC4HC3H8CH2CH4SH2NC7H16SHCH11CH2C2NC8H20C2HNSCFeCH14C2H6CH2CH2CH3CH3NH7CH2CSC2HCFeH3CH7CHC2H5NH4CH2CH2C2SCH3CH3CH2SHCFeCH3SCHC3H3SCH2FeCHSFeHCHSHCHCHFeS2FeS2FeS2HNFeSCSHFeS2FeS2FeSFeS3FeS2HCH3FeSHSCHCFeSFeS2FeS2C6H2NH3CH3SCHC7HSHC6H4C6H4C6H4C6H4C6H5CH5C2H2CHCH3N2H2SHNCHCSHCH5CHCH2CHSH5CHCHNC8H20CHCHC2H2CH4CHC3H5CH2CHCNHSH2CH2NH2CH3CH2CHCHCH2CH4NH11C2HCHCHC2H6CSCH2CHCHCH4C3H4C2H4CHC2HCH6FeH2CH2CFeH3FeHFeH2SH2NHCH3CSH3CHSCH3CHC3H5CH2CFeHSH2SHSHFeS2FeS2FeSFeS3HS2FeSCH3CFeS2HFe2SHSH2CH2C3H3SH2CH3C7H5C8H4C6H4C4HC6H4C6H5C6H5C3H2C4H7CH5CH4SH2CFeHNC2HCHCHFeHC2HS2NHFeHCH2NC8H20C4H8NCH4CSH2C2SCH2CHSHC2H2CSHCSHNH3CH2FeCH9C2H3C2H3C2HC2HCH5FeH9SH4SH2CHCH4CH5CH4S2HCH2FeS2CNFeH2SFeS2CHCHCFeSHSFeS2FeS2FeSFeS3FeS2HCFeS2C6H8C6H4CHCH2C4H4C6H6CH3C6HSHC6H4C6H2CH4C4H6CSH2NCH8CNC6H15CH2FeH3CH2CH2NCHNC4H15C2H3CHC2HCH5C3HC2SFeHNC8H21C2H8SCSCH2CHCH3CH3SH4CHFeHCHSCFeHSFeHFeS2HCSHSHSFeS2FeSFeS3FeSHFeS2FeSFeCS2FeCSC2SHFeS2FeS2FeSFeS3HC2H2C5H5C6H10C6H4C6H5C6H4C6H4CH4CH2C2HNC7H10CH6NSFeH2CH2CSH9CHCHNC7H17NC8H18CH2CH4CHC2H5NCH4CHCSH5CH3CHCFeHCNC2HC2H5C2HSH2C2H2SH4CHCHCHCSH2CHCHCHS2HFeH2CSCHCHC2HNH2FeCH3C2FeHCHC2H4NHCFeHSCH3C2HCHFeHNH6CSNH2CH2CH2C2H10SFeSHSFeSHSCH3SH3CS2FeS2FeSCNHFeS2FeSH2SHFeS2FeS2FeSFeS3C2H3C6H4C6H3C7H4C6H4C7H3C6H3C6H7C2NC8H20CHCH8FeH8SHCSH6SHC2HNHCH2NH2CHCHSCH2C2H3CHCH4NC8H20NC6HCHCH7FeH4C3H5C2HSH4CH2C2H11C2HNC8H10NHFeCH5SHNCFeCH9FeHCHC2HCH3C2NCH2CH3CHCH3CH2CH2CSH4C2H6CFeS2HSHFeHSHSH2SCH2SHFeS2FeS2FeSFeS3FeHS3CH2FeNHCH2CNHC6H4C6H4C3HC5H4C6H4C6H3C6H2SHCHSFeHCH4CHNC8H22CHSHSCHCH4CHFeHCH3NH2CH7CHCH2NCHC6H2SCH2CH3FeCHC3H2SHNC8H20NCSC2H3SCSH6CH3SH4C2HC2HC3H2NH5C3H3CH3CH2CSH2S2FeH3FeC2H2CHCH5SFeCH3C3H4CH7CHNC3HFeS2FeSHCSC2SH2SHFeSFeSCHFeS2C3HSCHSH2SHFeSFeSCHSH2CH5CSCSH3FeSH5C3HC2SHCHSH3C4HC6H2C2H2CHCHC2HFeHC3HC6H5CH5SCHC3HNH6C6H5FeH2FeC6H13CHCH5SHNH2NC8H14SH2CH2NC8H21NHCH2SCH2CH2FeH2CH3CNH3FeH4C3HCH5CH4SHNHCHCHCHCFeH4C2H4C3H4CHCHSHCH2CHCHCNCHCH2CHCHCH3CH2CHSFeS2FeCFeSCS3HSHFe2S2H2FeSHS2HCH2FeC6H4CH2CHC6H4C6H4C2FeHC6H4C8H3CH2C2HNC8H9SH10FeH4C2H2SCHFeH3SFeH2CFeCH3CH3CH9CSHSNC2H2C2HNSH2CHCH3CH2C3H3SHCNH5FeH3SHCHC2SFeHFeH4CH5CH2SH3SCH2CH5NC8H19NCH2CH2CHSH4CFeHCHCH2SH2SHC2HC2SNHSHSC3HCH2C2H2CFeHCHCH3SHC2H4NH3SC2SH4C2HCH2NH3C2HSCH2CHCH2CH2C2FeH3SH6SCH5C2SH2
_chemical_formula_sum              "H2304 C1344 S384 Fe192 N96"
_cell_length_a       64.6101
_cell_length_b       65.5992
_cell_length_c       64.5588
_cell_angle_alpha    80.122
_cell_angle_beta     80.1842
_cell_angle_gamma    80.0707

_space_group_name_H-M_alt    "P 1"
_space_group_IT_number       1

loop_
  _space_group_symop_operation_xyz
  'x, y, z'

loop_
  _atom_site_type_symbol
  _atom_site_label
  _atom_site_symmetry_multiplicity
  _atom_site_fract_x
  _atom_site_fract_y
  _atom_site_fract_z
  _atom_site_occupancy
  H   H1        1.0  0.48344  0.15498  0.69872  1.0000
  H   H2        1.0  0.38471  0.11154  0.64162  1.0000
  H   H3        1.0  0.26253  0.00512  0.68939  1.0000
  H   H4        1.0  0.35654  0.17273  0.72690  1.0000
  H   H5        1.0  0.20650  0.22987  0.71318  1.0000
  C   C1        1.0  0.19528  0.45819  0.69292  1.0000
  C   C2        1.0  0.20400  0.44665  0.67636  1.0000
  S   S1        1.0  0.32075  0.36816  0.70467  1.0000
  S   S2        1.0  0.10513  0.31057  0.71872  1.0000
  H   H6        1.0  0.22317  0.19512  0.69273  1.0000
  S   S3        1.0  0.13234  0.47116  0.63759  1.0000
  H   H7        1.0  0.07529  0.45631  0.63604  1.0000
  H   H8        1.0  0.32230  0.99028  0.68133  1.0000
  H   H9        1.0  0.42263  0.10402  0.64723  1.0000
  S   S4        1.0  0.22477  0.13225  0.70441  1.0000
  H   H10       1.0  0.48798  0.09179  0.72596  1.0000
  C   C3        1.0  0.38153  0.18942  0.71150  1.0000
  H   H11       1.0  0.25486  0.17065  0.68000  1.0000
  C   C4        1.0  0.06679  0.44356  0.64372  1.0000
  C   C5        1.0  0.16187  0.39990  0.70274  1.0000
  H   H12       1.0  0.48407  0.07659  0.58610  1.0000
  H   H13       1.0  0.21452  0.07309  0.72192  1.0000
  S   S5        1.0  0.28409  0.13097  0.71424  1.0000
  Fe  Fe1       1.0  0.35182  0.00692  0.63544  1.0000
  S   S6        1.0  0.37689  0.99746  0.65667  1.0000
  S   S7        1.0  0.32222  0.02946  0.64526  1.0000
  Fe  Fe2       1.0  0.40029  0.00314  0.62695  1.0000
  S   S8        1.0  0.42365  0.02722  0.61952  1.0000
  S   S9        1.0  0.37494  0.01368  0.60576  1.0000
  S   S10       1.0  0.00943  0.35787  0.66150  1.0000
  H   H14       1.0  0.20758  0.39307  0.68444  1.0000
  S   S11       1.0  0.46183  0.16740  0.66140  1.0000
  H   H15       1.0  0.29324  0.98264  0.66036  1.0000
  H   H16       1.0  0.27316  0.21133  0.70588  1.0000
  S   S12       1.0  0.37878  0.27999  0.70710  1.0000
  H   H17       1.0  0.19158  0.09985  0.70875  1.0000
  H   H18       1.0  0.03639  0.39741  0.67076  1.0000
  C   C6        1.0  0.39031  0.09698  0.65210  1.0000
  H   H19       1.0  0.99394  0.42466  0.68958  1.0000
  H   H20       1.0  0.47761  0.16889  0.73303  1.0000
  C   C7        1.0  0.22327  0.43318  0.67776  1.0000
  H   H21       1.0  0.05814  0.27965  0.72421  1.0000
  H   H22       1.0  0.11768  0.37889  0.69440  1.0000
  H   H23       1.0  0.39622  0.19447  0.71408  1.0000
  Fe  Fe3       1.0  0.02376  0.33539  0.63859  1.0000
  S   S13       1.0  0.05114  0.30977  0.64553  1.0000
  H   H24       1.0  0.41685  0.13606  0.69652  1.0000
  C   C8        1.0  0.20554  0.45605  0.71084  1.0000
  S   S14       1.0  0.16024  0.21667  0.69700  1.0000
  H   H25       1.0  0.99833  0.40568  0.67212  1.0000
  C   C9        1.0  0.41431  0.09121  0.64511  1.0000
  H   H26       1.0  0.28191  0.26051  0.71786  1.0000
  H   H27       1.0  0.38864  0.10179  0.66799  1.0000
  Fe  Fe4       1.0  0.12884  0.28215  0.72805  1.0000
  H   H28       1.0  0.24857  0.42085  0.69651  1.0000
  S   S15       1.0  0.16025  0.27283  0.70880  1.0000
  C   C10       1.0  0.48035  0.22527  0.66159  1.0000
  C   C11       1.0  0.06495  0.30934  0.66702  1.0000
  C   C12       1.0  0.08164  0.29305  0.67099  1.0000
  C   C13       1.0  0.09382  0.29297  0.68713  1.0000
  C   C14       1.0  0.08942  0.30930  0.69931  1.0000
  C   C15       1.0  0.07248  0.32535  0.69567  1.0000
  C   C16       1.0  0.06025  0.32534  0.67964  1.0000
  H   H29       1.0  0.08539  0.28060  0.66130  1.0000
  H   H30       1.0  0.10684  0.28050  0.68983  1.0000
  H   H31       1.0  0.06899  0.33802  0.70506  1.0000
  H   H32       1.0  0.04755  0.33798  0.67672  1.0000
  C   C17       1.0  0.45808  0.17667  0.68601  1.0000
  C   C18       1.0  0.44203  0.19349  0.68989  1.0000
  C   C19       1.0  0.43882  0.20148  0.70922  1.0000
  C   C20       1.0  0.46758  0.17571  0.72104  1.0000
  H   H33       1.0  0.00842  0.23983  0.72313  1.0000
  C   C21       1.0  0.47090  0.16781  0.70163  1.0000
  H   H34       1.0  0.43221  0.20055  0.67778  1.0000
  H   H35       1.0  0.42678  0.21481  0.71181  1.0000
  C   C22       1.0  0.44098  0.03692  0.63291  1.0000
  C   C23       1.0  0.45028  0.05461  0.62273  1.0000
  C   C24       1.0  0.46394  0.06320  0.63262  1.0000
  C   C25       1.0  0.46904  0.05379  0.65261  1.0000
  C   C26       1.0  0.45980  0.03606  0.66279  1.0000
  C   C27       1.0  0.44567  0.02780  0.65313  1.0000
  H   H36       1.0  0.12665  0.39158  0.66866  1.0000
  Fe  Fe5       1.0  0.15870  0.46872  0.65730  1.0000
  H   H37       1.0  0.46362  0.02861  0.67825  1.0000
  H   H38       1.0  0.43870  0.01417  0.66115  1.0000
  H   H39       1.0  0.23021  0.42435  0.66493  1.0000
  H   H40       1.0  0.19157  0.36222  0.70625  1.0000
  C   C28       1.0  0.20606  0.15521  0.70401  1.0000
  C   C29       1.0  0.19647  0.16219  0.68574  1.0000
  C   C30       1.0  0.18221  0.18084  0.68413  1.0000
  C   C31       1.0  0.17717  0.19268  0.70084  1.0000
  Fe  Fe6       1.0  0.24999  0.12707  0.72559  1.0000
  H   H41       1.0  0.09846  0.39128  0.67787  1.0000
  H   H42       1.0  0.20207  0.25406  0.67996  1.0000
  H   H43       1.0  0.17527  0.18628  0.66968  1.0000
  H   H44       1.0  0.47050  0.07708  0.62479  1.0000
  N   N1        1.0  0.23933  0.21579  0.70476  1.0000
  S   S16       1.0  0.08879  0.44110  0.67810  1.0000
  H   H45       1.0  0.27181  0.18303  0.69149  1.0000
  H   H46       1.0  0.34464  0.07464  0.66346  1.0000
  H   H47       1.0  0.36718  0.06043  0.60785  1.0000
  H   H48       1.0  0.18112  0.11878  0.72663  1.0000
  H   H49       1.0  0.22475  0.24808  0.70654  1.0000
  C   C32       1.0  0.25530  0.17987  0.69281  1.0000
  C   C33       1.0  0.07029  0.43375  0.66411  1.0000
  H   H50       1.0  0.16754  0.38624  0.69435  1.0000
  Fe  Fe7       1.0  0.29641  0.37748  0.73180  1.0000
  C   C34       1.0  0.31759  0.06127  0.70442  1.0000
  C   C35       1.0  0.33247  0.04336  0.70147  1.0000
  C   C36       1.0  0.33367  0.03327  0.68370  1.0000
  C   C37       1.0  0.32004  0.04100  0.66858  1.0000
  C   C38       1.0  0.30457  0.05848  0.67192  1.0000
  C   C39       1.0  0.30335  0.06862  0.68977  1.0000
  H   H51       1.0  0.34325  0.03732  0.71294  1.0000
  H   H52       1.0  0.34515  0.01951  0.68181  1.0000
  H   H53       1.0  0.29380  0.06447  0.66043  1.0000
  H   H54       1.0  0.29175  0.08239  0.69191  1.0000
  S   S17       1.0  0.19074  0.44841  0.65422  1.0000
  C   C40       1.0  0.37888  0.07655  0.62922  1.0000
  H   H55       1.0  0.34657  0.09859  0.64629  1.0000
  H   H56       1.0  0.33132  0.10279  0.68329  1.0000
  H   H57       1.0  0.46355  0.23299  0.66294  1.0000
  H   H58       1.0  0.24177  0.20692  0.67331  1.0000
  H   H59       1.0  0.35576  0.09156  0.69253  1.0000
  H   H60       1.0  0.42108  0.07681  0.65490  1.0000
  C   C41       1.0  0.20057  0.16661  0.72118  1.0000
  H   H61       1.0  0.04928  0.44498  0.61768  1.0000
  C   C42       1.0  0.33579  0.34309  0.70612  1.0000
  H   H62       1.0  0.28127  0.47645  0.70512  1.0000
  H   H63       1.0  0.38470  0.18102  0.69752  1.0000
  C   C43       1.0  0.36202  0.30408  0.70736  1.0000
  C   C44       1.0  0.36419  0.31926  0.68943  1.0000
  C   C45       1.0  0.35129  0.33873  0.68889  1.0000
  C   C46       1.0  0.26028  0.22396  0.70102  1.0000
  C   C47       1.0  0.20198  0.37000  0.71335  1.0000
  H   H64       1.0  0.37606  0.31605  0.67593  1.0000
  H   H65       1.0  0.35333  0.35048  0.67501  1.0000
  C   C48       1.0  0.05891  0.41725  0.67381  1.0000
  C   C49       1.0  0.04461  0.41036  0.66317  1.0000
  C   C50       1.0  0.04098  0.42030  0.64284  1.0000
  C   C51       1.0  0.05204  0.43703  0.63331  1.0000
  H   H66       1.0  0.06137  0.40961  0.68961  1.0000
  C   C52       1.0  0.22472  0.44251  0.71230  1.0000
  C   C53       1.0  0.23359  0.43107  0.69570  1.0000
  C   C54       1.0  0.34641  0.30824  0.72469  1.0000
  H   H67       1.0  0.37597  0.09164  0.61845  1.0000
  Fe  Fe8       1.0  0.00947  0.38205  0.63234  1.0000
  S   S18       1.0  0.48826  0.12056  0.63059  1.0000
  C   C55       1.0  0.35388  0.08793  0.65937  1.0000
  C   C56       1.0  0.36384  0.06234  0.62493  1.0000
  H   H68       1.0  0.16053  0.41350  0.68986  1.0000
  H   H69       1.0  0.18781  0.41443  0.70793  1.0000
  C   C57       1.0  0.38443  0.05972  0.66498  1.0000
  C   C58       1.0  0.22108  0.23354  0.70215  1.0000
  H   H70       1.0  0.37118  0.33978  0.73129  1.0000
  S   S19       1.0  0.20662  0.28016  0.73354  1.0000
  H   H71       1.0  0.28095  0.28493  0.72672  1.0000
  H   H72       1.0  0.25170  0.47195  0.69330  1.0000
  N   N2        1.0  0.37696  0.08027  0.65199  1.0000
  C   C59       1.0  0.21656  0.38027  0.69442  1.0000
  H   H73       1.0  0.39327  0.07419  0.69055  1.0000
  H   H74       1.0  0.21198  0.35690  0.72208  1.0000
  H   H75       1.0  0.48025  0.20937  0.65788  1.0000
  H   H76       1.0  0.14579  0.39860  0.71176  1.0000
  H   H77       1.0  0.41795  0.08949  0.62803  1.0000
  H   H78       1.0  0.28512  0.99625  0.70290  1.0000
  S   S20       1.0  0.02504  0.35971  0.60943  1.0000
  H   H79       1.0  0.36640  0.04647  0.63413  1.0000
  S   S21       1.0  0.02194  0.41329  0.62927  1.0000
  H   H80       1.0  0.39524  0.06918  0.62345  1.0000
  H   H81       1.0  0.31680  0.21191  0.72845  1.0000
  C   C60       1.0  0.26778  0.23391  0.67823  1.0000
  H   H82       1.0  0.11240  0.40633  0.63991  1.0000
  H   H83       1.0  0.39982  0.04690  0.69277  1.0000
  H   H84       1.0  0.35381  0.11586  0.67418  1.0000
  C   C61       1.0  0.38740  0.06009  0.68810  1.0000
  H   H85       1.0  0.37247  0.05810  0.69912  1.0000
  C   C62       1.0  0.23616  0.20491  0.72742  1.0000
  Fe  Fe9       1.0  0.11125  0.46607  0.66904  1.0000
  C   C63       1.0  0.34881  0.10013  0.67847  1.0000
  H   H86       1.0  0.37310  0.04847  0.66605  1.0000
  H   H87       1.0  0.16392  0.10999  0.71230  1.0000
  H   H88       1.0  0.44663  0.06187  0.60716  1.0000
  H   H89       1.0  0.39945  0.05158  0.65691  1.0000
  S   S22       1.0  0.13816  0.46159  0.68836  1.0000
  H   H90       1.0  0.27024  0.22267  0.66672  1.0000
  H   H91       1.0  0.99685  0.44397  0.65669  1.0000
  C   C64       1.0  0.17711  0.40348  0.71731  1.0000
  H   H92       1.0  0.20495  0.22719  0.67700  1.0000
  C   C65       1.0  0.21358  0.23936  0.68011  1.0000
  H   H93       1.0  0.48386  0.24013  0.68777  1.0000
  H   H94       1.0  0.28794  0.01104  0.67700  1.0000
  H   H95       1.0  0.25100  0.16969  0.70797  1.0000
  Fe  Fe10      1.0  0.15415  0.23980  0.72003  1.0000
  H   H96       1.0  0.22972  0.38607  0.69949  1.0000
  H   H97       1.0  0.41562  0.16164  0.70289  1.0000
  H   H98       1.0  0.12808  0.40564  0.61447  1.0000
  H   H99       1.0  0.00109  0.24799  0.69724  1.0000
  H   H100      1.0  0.25970  0.23618  0.71116  1.0000
  H   H101      1.0  0.22657  0.24196  0.66687  1.0000
  H   H102      1.0  0.47714  0.11254  0.57180  1.0000
  H   H103      1.0  0.18063  0.46888  0.69193  1.0000
  H   H104      1.0  0.37033  0.20391  0.70751  1.0000
  H   H105      1.0  0.48484  0.04206  0.58840  1.0000
  H   H106      1.0  0.34685  0.06911  0.62809  1.0000
  H   H107      1.0  0.10105  0.40167  0.61789  1.0000
  H   H108      1.0  0.07214  0.35211  0.63145  1.0000
  H   H109      1.0  0.22408  0.36833  0.68406  1.0000
  C   C66       1.0  0.99463  0.24463  0.71436  1.0000
  H   H110      1.0  0.28341  0.23899  0.67778  1.0000
  H   H111      1.0  0.20043  0.15337  0.67252  1.0000
  S   S23       1.0  0.48725  0.06326  0.66515  1.0000
  H   H112      1.0  0.25680  0.24810  0.67314  1.0000
  C   C67       1.0  0.23913  0.20003  0.69030  1.0000
  N   N3        1.0  0.10951  0.36200  0.64798  1.0000
  C   C68       1.0  0.11220  0.33978  0.64340  1.0000
  C   C69       1.0  0.08618  0.37058  0.64938  1.0000
  C   C70       1.0  0.11643  0.36112  0.66935  1.0000
  C   C71       1.0  0.12305  0.37446  0.63061  1.0000
  C   C72       1.0  0.13449  0.32694  0.64429  1.0000
  C   C73       1.0  0.07545  0.36836  0.63043  1.0000
  C   C74       1.0  0.11451  0.38209  0.67768  1.0000
  C   C75       1.0  0.11552  0.39828  0.62575  1.0000
  H   H113      1.0  0.10083  0.33080  0.65466  1.0000
  H   H114      1.0  0.10840  0.33940  0.62729  1.0000
  H   H115      1.0  0.08324  0.38735  0.65110  1.0000
  H   H116      1.0  0.07708  0.36288  0.66397  1.0000
  H   H117      1.0  0.10733  0.35065  0.68171  1.0000
  H   H118      1.0  0.13341  0.35423  0.66918  1.0000
  H   H119      1.0  0.13962  0.37246  0.63417  1.0000
  H   H120      1.0  0.12456  0.36850  0.61518  1.0000
  H   H121      1.0  0.13741  0.32168  0.66098  1.0000
  H   H122      1.0  0.13540  0.31249  0.63715  1.0000
  H   H123      1.0  0.14724  0.33565  0.63527  1.0000
  H   H124      1.0  0.05986  0.37864  0.63090  1.0000
  H   H125      1.0  0.08510  0.37286  0.61492  1.0000
  C   C76       1.0  0.18605  0.18537  0.71961  1.0000
  S   S24       1.0  0.99260  0.32770  0.63355  1.0000
  H   H126      1.0  0.19854  0.46498  0.72357  1.0000
  S   S25       1.0  0.31849  0.07474  0.72566  1.0000
  H   H127      1.0  0.23509  0.03980  0.73349  1.0000
  H   H128      1.0  0.47850  0.21407  0.69454  1.0000
  H   H129      1.0  0.00585  0.39119  0.70826  1.0000
  C   C77       1.0  0.27968  0.99859  0.68727  1.0000
  C   C78       1.0  0.17800  0.10485  0.72069  1.0000
  H   H130      1.0  0.39503  0.12561  0.73138  1.0000
  H   H131      1.0  0.42776  0.13932  0.71911  1.0000
  Fe  Fe11      1.0  0.99185  0.35449  0.60667  1.0000
  H   H132      1.0  0.23865  0.30690  0.72088  1.0000
  C   C79       1.0  0.27650  0.26905  0.73170  1.0000
  C   C80       1.0  0.33309  0.32773  0.72396  1.0000
  H   H133      1.0  0.01497  0.20201  0.73182  1.0000
  C   C81       1.0  0.45155  0.19258  0.72486  1.0000
  H   H134      1.0  0.47523  0.06997  0.72513  1.0000
  C   C82       1.0  0.41437  0.14526  0.70990  1.0000
  H   H135      1.0  0.16700  0.07535  0.73201  1.0000
  H   H136      1.0  0.16709  0.41301  0.72902  1.0000
  H   H137      1.0  0.21602  0.40098  0.72760  1.0000
  H   H138      1.0  0.38079  0.14337  0.71287  1.0000
  H   H139      1.0  0.15493  0.36312  0.72535  1.0000
  N   N4        1.0  0.18950  0.38437  0.72850  1.0000
  H   H140      1.0  0.36135  0.38221  0.72828  1.0000
  C   C83       1.0  0.39274  0.14228  0.72375  1.0000
  H   H141      1.0  0.28959  0.46722  0.73034  1.0000
  H   H142      1.0  0.18194  0.19426  0.73272  1.0000
  H   H143      1.0  0.40932  0.32277  0.72803  1.0000
  S   S26       1.0  0.26137  0.38160  0.73072  1.0000
  H   H144      1.0  0.22162  0.19732  0.73054  1.0000
  Fe  Fe12      1.0  0.37697  0.97998  0.60153  1.0000
  H   H145      1.0  0.24950  0.19213  0.73051  1.0000
  H   H146      1.0  0.19817  0.05323  0.72909  1.0000
  H   H147      1.0  0.48931  0.23439  0.64813  1.0000
  C   C84       1.0  0.37123  0.17627  0.73138  1.0000
  C   C85       1.0  0.48970  0.07444  0.72925  1.0000
  C   C86       1.0  0.48844  0.22426  0.68295  1.0000
  Fe  Fe13      1.0  0.48892  0.14155  0.65460  1.0000
  H   H148      1.0  0.48669  0.22755  0.72406  1.0000
  Fe  Fe14      1.0  0.36935  0.45923  0.88009  1.0000
  H   H149      1.0  0.32579  0.17672  0.80130  1.0000
  S   S27       1.0  0.38509  0.42773  0.89567  1.0000
  H   H150      1.0  0.34071  0.36830  0.77341  1.0000
  H   H151      1.0  0.29782  0.22426  0.80778  1.0000
  H   H152      1.0  0.28202  0.30069  0.75579  1.0000
  H   H153      1.0  0.25091  0.40288  0.84466  1.0000
  H   H154      1.0  0.08095  0.29040  0.80900  1.0000
  H   H155      1.0  0.03710  0.13012  0.90692  1.0000
  H   H156      1.0  0.08024  0.14831  0.80381  1.0000
  S   S28       1.0  0.21804  0.00736  0.81350  1.0000
  Fe  Fe15      1.0  0.14040  0.99627  0.84047  1.0000
  S   S29       1.0  0.10716  0.01509  0.83953  1.0000
  H   H157      1.0  0.24747  0.99243  0.90316  1.0000
  S   S30       1.0  0.34404  0.45874  0.86030  1.0000
  S   S31       1.0  0.16558  0.00079  0.85885  1.0000
  H   H158      1.0  0.30415  0.25229  0.74492  1.0000
  S   S32       1.0  0.23598  0.10115  0.80133  1.0000
  H   H159      1.0  0.26664  0.40896  0.81962  1.0000
  H   H160      1.0  0.25812  0.00650  0.83234  1.0000
  C   C87       1.0  0.32663  0.41599  0.79881  1.0000
  H   H161      1.0  0.48984  0.06933  0.74645  1.0000
  S   S33       1.0  0.44840  0.20282  0.74885  1.0000
  H   H162      1.0  0.33831  0.22585  0.74970  1.0000
  H   H163      1.0  0.47577  0.26481  0.78371  1.0000
  H   H164      1.0  0.23668  0.43727  0.82748  1.0000
  C   C88       1.0  0.32400  0.18431  0.78531  1.0000
  S   S34       1.0  0.40945  0.29083  0.79448  1.0000
  Fe  Fe16      1.0  0.03902  0.13067  0.83766  1.0000
  S   S35       1.0  0.02951  0.15433  0.86040  1.0000
  S   S36       1.0  0.07228  0.11221  0.83969  1.0000
  H   H165      1.0  0.39024  0.42196  0.76696  1.0000
  H   H166      1.0  0.25527  0.44881  0.79381  1.0000
  H   H167      1.0  0.36582  0.18671  0.74360  1.0000
  Fe  Fe17      1.0  0.02117  0.17721  0.83179  1.0000
  S   S37       1.0  0.03037  0.20933  0.81906  1.0000
  H   H168      1.0  0.21182  0.10119  0.74106  1.0000
  H   H169      1.0  0.41407  0.14704  0.75344  1.0000
  S   S38       1.0  0.03230  0.15418  0.80903  1.0000
  S   S39       1.0  0.00646  0.12126  0.84281  1.0000
  S   S40       1.0  0.12395  0.23166  0.79705  1.0000
  C   C89       1.0  0.05759  0.21169  0.81223  1.0000
  C   C90       1.0  0.07054  0.20921  0.82805  1.0000
  C   C91       1.0  0.09097  0.21505  0.82304  1.0000
  C   C92       1.0  0.09869  0.22333  0.80219  1.0000
  C   C93       1.0  0.08615  0.22483  0.78617  1.0000
  C   C94       1.0  0.06561  0.21920  0.79122  1.0000
  H   H170      1.0  0.06440  0.20377  0.84436  1.0000
  H   H171      1.0  0.10057  0.21373  0.83554  1.0000
  H   H172      1.0  0.09206  0.23061  0.76995  1.0000
  H   H173      1.0  0.05567  0.22116  0.77891  1.0000
  S   S41       1.0  0.34805  0.21231  0.79270  1.0000
  H   H174      1.0  0.20009  0.32263  0.79079  1.0000
  C   C95       1.0  0.32938  0.43184  0.78147  1.0000
  H   H175      1.0  0.38584  0.41291  0.80516  1.0000
  C   C96       1.0  0.45746  0.28633  0.84088  1.0000
  C   C97       1.0  0.45069  0.26814  0.83728  1.0000
  C   C98       1.0  0.43652  0.26915  0.82265  1.0000
  C   C99       1.0  0.42857  0.28849  0.81182  1.0000
  C   C100      1.0  0.43539  0.30669  0.81534  1.0000
  C   C101      1.0  0.44995  0.30561  0.82962  1.0000
  H   H176      1.0  0.45636  0.25317  0.84598  1.0000
  H   H177      1.0  0.43127  0.25505  0.82023  1.0000
  H   H178      1.0  0.42930  0.32172  0.80708  1.0000
  H   H179      1.0  0.45509  0.31970  0.83220  1.0000
  C   C102      1.0  0.09843  0.04243  0.83811  1.0000
  C   C103      1.0  0.11121  0.05624  0.84179  1.0000
  C   C104      1.0  0.10307  0.07764  0.84172  1.0000
  C   C105      1.0  0.08218  0.08549  0.83781  1.0000
  C   C106      1.0  0.06957  0.07178  0.83368  1.0000
  C   C107      1.0  0.07762  0.05036  0.83398  1.0000
  H   H180      1.0  0.12718  0.05033  0.84513  1.0000
  H   H181      1.0  0.11290  0.08808  0.84512  1.0000
  H   H182      1.0  0.05359  0.07762  0.83035  1.0000
  H   H183      1.0  0.06767  0.03980  0.83102  1.0000
  C   C108      1.0  0.22221  0.03362  0.81054  1.0000
  C   C109      1.0  0.20848  0.04847  0.82148  1.0000
  C   C110      1.0  0.21294  0.06913  0.81883  1.0000
  C   C111      1.0  0.23094  0.07505  0.80507  1.0000
  C   C112      1.0  0.24458  0.06015  0.79423  1.0000
  C   C113      1.0  0.24030  0.03952  0.79706  1.0000
  H   H184      1.0  0.19457  0.04401  0.83202  1.0000
  H   H185      1.0  0.20238  0.08060  0.82735  1.0000
  H   H186      1.0  0.25865  0.06443  0.78385  1.0000
  H   H187      1.0  0.25108  0.02807  0.78870  1.0000
  H   H188      1.0  0.18267  0.03406  0.75948  1.0000
  C   C114      1.0  0.25182  0.47401  0.82706  1.0000
  C   C115      1.0  0.34945  0.44866  0.80104  1.0000
  C   C116      1.0  0.16371  0.35649  0.73881  1.0000
  H   H189      1.0  0.12979  0.18621  0.80749  1.0000
  C   C117      1.0  0.41167  0.41723  0.88645  1.0000
  C   C118      1.0  0.41848  0.39555  0.89063  1.0000
  C   C119      1.0  0.43937  0.38678  0.88300  1.0000
  C   C120      1.0  0.45370  0.39972  0.87133  1.0000
  C   C121      1.0  0.44707  0.42141  0.86773  1.0000
  C   C122      1.0  0.42621  0.43010  0.87518  1.0000
  H   H190      1.0  0.40744  0.38545  0.89955  1.0000
  H   H191      1.0  0.44427  0.37005  0.88602  1.0000
  H   H192      1.0  0.45810  0.43160  0.85898  1.0000
  H   H193      1.0  0.42145  0.44683  0.87234  1.0000
  C   C123      1.0  0.41279  0.43392  0.81874  1.0000
  H   H194      1.0  0.20754  0.16104  0.73554  1.0000
  H   H195      1.0  0.33438  0.40373  0.83015  1.0000
  H   H196      1.0  0.04419  0.28314  0.82055  1.0000
  H   H197      1.0  0.15954  0.09332  0.75020  1.0000
  C   C124      1.0  0.33605  0.41610  0.81679  1.0000
  C   C125      1.0  0.04838  0.26957  0.81175  1.0000
  S   S42       1.0  0.48516  0.33057  0.88941  1.0000
  H   H198      1.0  0.25034  0.33258  0.73895  1.0000
  Fe  Fe18      1.0  0.13723  0.24767  0.76472  1.0000
  C   C126      1.0  0.34726  0.43232  0.81793  1.0000
  N   N5        1.0  0.12331  0.15689  0.80051  1.0000
  H   H199      1.0  0.02872  0.28053  0.78711  1.0000
  C   C127      1.0  0.11412  0.15212  0.82362  1.0000
  C   C128      1.0  0.10563  0.16683  0.78786  1.0000
  C   C129      1.0  0.13593  0.13795  0.79152  1.0000
  H   H200      1.0  0.99463  0.06672  0.89848  1.0000
  C   C130      1.0  0.13045  0.14365  0.83904  1.0000
  H   H201      1.0  0.16263  0.38360  0.75378  1.0000
  H   H202      1.0  0.47335  0.40922  0.80150  1.0000
  H   H203      1.0  0.06022  0.03868  0.90960  1.0000
  C   C131      1.0  0.20536  0.39161  0.73926  1.0000
  H   H204      1.0  0.10286  0.14072  0.82628  1.0000
  C   C132      1.0  0.34434  0.32753  0.79517  1.0000
  H   H205      1.0  0.09755  0.18155  0.79377  1.0000
  C   C133      1.0  0.14702  0.18244  0.77640  1.0000
  S   S43       1.0  0.29599  0.40929  0.74057  1.0000
  S   S44       1.0  0.25806  0.09495  0.74317  1.0000
  C   C134      1.0  0.23893  0.00832  0.86390  1.0000
  C   C135      1.0  0.40196  0.42589  0.77584  1.0000
  H   H206      1.0  0.99769  0.07010  0.94197  1.0000
  H   H207      1.0  0.46689  0.35913  0.95028  1.0000
  C   C136      1.0  0.26215  0.41345  0.83575  1.0000
  C   C137      1.0  0.30937  0.18612  0.75264  1.0000
  H   H208      1.0  0.40922  0.32241  0.75585  1.0000
  H   H209      1.0  0.27543  0.43721  0.86621  1.0000
  H   H210      1.0  0.21583  0.37793  0.74661  1.0000
  H   H211      1.0  0.47278  0.40693  0.90602  1.0000
  H   H212      1.0  0.41184  0.17759  0.77268  1.0000
  Fe  Fe19      1.0  0.36314  0.47823  0.83514  1.0000
  H   H213      1.0  0.25293  0.47858  0.73936  1.0000
  N   N6        1.0  0.03665  0.07877  0.89877  1.0000
  H   H214      1.0  0.39631  0.44222  0.77876  1.0000
  C   C138      1.0  0.29384  0.28804  0.76275  1.0000
  C   C139      1.0  0.20683  0.06317  0.73590  1.0000
  H   H215      1.0  0.29077  0.29918  0.79388  1.0000
  H   H216      1.0  0.35914  0.12342  0.74165  1.0000
  C   C140      1.0  0.39375  0.39636  0.84370  1.0000
  H   H217      1.0  0.17210  0.07391  0.78117  1.0000
  C   C141      1.0  0.06038  0.07184  0.89500  1.0000
  H   H218      1.0  0.05017  0.26045  0.78162  1.0000
  C   C142      1.0  0.05923  0.27482  0.74142  1.0000
  H   H219      1.0  0.45533  0.42111  0.82184  1.0000
  C   C143      1.0  0.05126  0.31231  0.78319  1.0000
  H   H220      1.0  0.04141  0.10667  0.92540  1.0000
  H   H221      1.0  0.38347  0.36564  0.80561  1.0000
  H   H222      1.0  0.20936  0.40879  0.76384  1.0000
  H   H223      1.0  0.25612  0.03068  0.84186  1.0000
  H   H224      1.0  0.01733  0.19415  0.75928  1.0000
  H   H225      1.0  0.34089  0.14731  0.74476  1.0000
  C   C144      1.0  0.40300  0.16164  0.74928  1.0000
  H   H226      1.0  0.08531  0.04487  0.89565  1.0000
  C   C145      1.0  0.29655  0.25358  0.78619  1.0000
  H   H227      1.0  0.30673  0.31278  0.77253  1.0000
  H   H228      1.0  0.27631  0.41024  0.84403  1.0000
  C   C146      1.0  0.20453  0.99888  0.89835  1.0000
  H   H229      1.0  0.07568  0.16344  0.77903  1.0000
  H   H230      1.0  0.99655  0.09235  0.88285  1.0000
  C   C147      1.0  0.04393  0.11326  0.90835  1.0000
  S   S45       1.0  0.16307  0.99156  0.81040  1.0000
  Fe  Fe20      1.0  0.40217  0.26422  0.77956  1.0000
  H   H231      1.0  0.25307  0.25839  0.77998  1.0000
  C   C148      1.0  0.20835  0.31943  0.77537  1.0000
  C   C149      1.0  0.35079  0.36372  0.75878  1.0000
  H   H232      1.0  0.13614  0.10693  0.81112  1.0000
  C   C150      1.0  0.08821  0.15359  0.78769  1.0000
  C   C151      1.0  0.34091  0.44803  0.78255  1.0000
  H   H233      1.0  0.28147  0.99507  0.88611  1.0000
  H   H234      1.0  0.10036  0.30275  0.78944  1.0000
  Fe  Fe21      1.0  0.99624  0.14639  0.86396  1.0000
  H   H235      1.0  0.39216  0.30771  0.74647  1.0000
  H   H236      1.0  0.35483  0.43168  0.83169  1.0000
  H   H237      1.0  0.02608  0.05335  0.92206  1.0000
  H   H238      1.0  0.20188  0.01498  0.88958  1.0000
  H   H239      1.0  0.30477  0.16236  0.77978  1.0000
  S   S46       1.0  0.47570  0.28404  0.85911  1.0000
  H   H240      1.0  0.29737  0.26129  0.79995  1.0000
  H   H241      1.0  0.25278  0.28353  0.76594  1.0000
  H   H242      1.0  0.41743  0.42476  0.76533  1.0000
  C   C152      1.0  0.23439  0.21885  0.74486  1.0000
  H   H243      1.0  0.01616  0.10896  0.89663  1.0000
  H   H244      1.0  0.28024  0.46638  0.76936  1.0000
  H   H245      1.0  0.38775  0.41174  0.84915  1.0000
  Fe  Fe22      1.0  0.99879  0.14729  0.81636  1.0000
  S   S47       1.0  0.29191  0.11499  0.76405  1.0000
  H   H246      1.0  0.20671  0.98364  0.87100  1.0000
  C   C153      1.0  0.28698  0.25676  0.75083  1.0000
  S   S48       1.0  0.47992  0.38981  0.86062  1.0000
  C   C154      1.0  0.21264  0.30025  0.74554  1.0000
  C   C155      1.0  0.28094  0.46763  0.78612  1.0000
  C   C156      1.0  0.22507  0.04848  0.74586  1.0000
  C   C157      1.0  0.23670  0.32504  0.74623  1.0000
  C   C158      1.0  0.06172  0.33097  0.77034  1.0000
  H   H247      1.0  0.12197  0.13746  0.85472  1.0000
  S   S49       1.0  0.31122  0.39596  0.79935  1.0000
  N   N7        1.0  0.26429  0.45285  0.82388  1.0000
  H   H248      1.0  0.18823  0.29717  0.77260  1.0000
  H   H249      1.0  0.46867  0.22945  0.79484  1.0000
  H   H250      1.0  0.07919  0.32708  0.76648  1.0000
  C   C159      1.0  0.37074  0.14530  0.75837  1.0000
  S   S50       1.0  0.14284  0.28137  0.75789  1.0000
  H   H251      1.0  0.44269  0.39361  0.79302  1.0000
  H   H252      1.0  0.00991  0.09217  0.94212  1.0000
  H   H253      1.0  0.33981  0.35860  0.74981  1.0000
  H   H254      1.0  0.29408  0.46327  0.82486  1.0000
  H   H255      1.0  0.38190  0.39182  0.83548  1.0000
  H   H256      1.0  0.41064  0.46702  0.80601  1.0000
  C   C160      1.0  0.28281  0.45057  0.85681  1.0000
  Fe  Fe23      1.0  0.25704  0.11165  0.77084  1.0000
  C   C161      1.0  0.45813  0.40811  0.81232  1.0000
  H   H257      1.0  0.39505  0.38469  0.85827  1.0000
  H   H258      1.0  0.03900  0.10796  0.87770  1.0000
  C   C162      1.0  0.44012  0.40884  0.79923  1.0000
  H   H259      1.0  0.44296  0.42055  0.78494  1.0000
  N   N8        1.0  0.23907  0.98581  0.87424  1.0000
  C   C163      1.0  0.33099  0.21206  0.75633  1.0000
  H   H260      1.0  0.19741  0.12337  0.76562  1.0000
  Fe  Fe24      1.0  0.41953  0.22695  0.75557  1.0000
  H   H261      1.0  0.19661  0.05726  0.78038  1.0000
  H   H262      1.0  0.48582  0.33814  0.94107  1.0000
  H   H263      1.0  0.06825  0.07658  0.90710  1.0000
  C   C164      1.0  0.02698  0.07062  0.88270  1.0000
  S   S51       1.0  0.23491  0.34602  0.78034  1.0000
  H   H264      1.0  0.42051  0.38013  0.82502  1.0000
  C   C165      1.0  0.23005  0.31050  0.73604  1.0000
  H   H265      1.0  0.15229  0.13513  0.79580  1.0000
  S   S52       1.0  0.40460  0.22930  0.78939  1.0000
  H   H266      1.0  0.15969  0.19153  0.77753  1.0000
  H   H267      1.0  0.05345  0.31155  0.79995  1.0000
  C   C166      1.0  0.35876  0.32667  0.77365  1.0000
  H   H268      1.0  0.03377  0.31664  0.78335  1.0000
  S   S53       1.0  0.25648  0.39771  0.77734  1.0000
  C   C167      1.0  0.22603  0.32932  0.76610  1.0000
  C   C168      1.0  0.20156  0.30507  0.76507  1.0000
  H   H269      1.0  0.46038  0.39295  0.82295  1.0000
  C   C169      1.0  0.21652  0.98297  0.88375  1.0000
  H   H270      1.0  0.24980  0.22394  0.74525  1.0000
  H   H271      1.0  0.43863  0.41313  0.92758  1.0000
  S   S54       1.0  0.23768  0.44101  0.73458  1.0000
  S   S55       1.0  0.29413  0.17697  0.73685  1.0000
  H   H272      1.0  0.44687  0.38597  0.92784  1.0000
  C   C170      1.0  0.31208  0.17616  0.77316  1.0000
  C   C171      1.0  0.08234  0.28447  0.77529  1.0000
  N   N9        1.0  0.41786  0.41292  0.81096  1.0000
  H   H273      1.0  0.08629  0.26744  0.77449  1.0000
  H   H274      1.0  0.42692  0.39686  0.84110  1.0000
  H   H275      1.0  0.06120  0.11250  0.90255  1.0000
  H   H276      1.0  0.29776  0.46607  0.78845  1.0000
  C   C172      1.0  0.39899  0.32252  0.74368  1.0000
  H   H277      1.0  0.29896  0.44909  0.86119  1.0000
  H   H278      1.0  0.28023  0.43558  0.79858  1.0000
  Fe  Fe25      1.0  0.29214  0.39258  0.77393  1.0000
  Fe  Fe26      1.0  0.25921  0.36722  0.76494  1.0000
  C   C173      1.0  0.41586  0.39596  0.82997  1.0000
  H   H279      1.0  0.40526  0.39453  0.79264  1.0000
  H   H280      1.0  0.32089  0.33093  0.73712  1.0000
  H   H281      1.0  0.03982  0.06995  0.93204  1.0000
  H   H282      1.0  0.18854  0.99447  0.90470  1.0000
  H   H283      1.0  0.24597  0.47469  0.84421  1.0000
  H   H284      1.0  0.13863  0.15629  0.84177  1.0000
  Fe  Fe27      1.0  0.17402  0.26973  0.73910  1.0000
  C   C174      1.0  0.19604  0.40535  0.75678  1.0000
  H   H285      1.0  0.21925  0.03657  0.75892  1.0000
  H   H286      1.0  0.34278  0.46037  0.76921  1.0000
  S   S56       1.0  0.29450  0.36042  0.76506  1.0000
  S   S57       1.0  0.36952  0.26705  0.77012  1.0000
  Fe  Fe28      1.0  0.37364  0.23187  0.77665  1.0000
  C   C175      1.0  0.33363  0.20217  0.77689  1.0000
  H   H287      1.0  0.03397  0.07673  0.86629  1.0000
  H   H288      1.0  0.32239  0.43186  0.76740  1.0000
  H   H289      1.0  0.36261  0.15606  0.76987  1.0000
  C   C176      1.0  0.40233  0.41068  0.79681  1.0000
  S   S58       1.0  0.41946  0.26152  0.74663  1.0000
  H   H290      1.0  0.38063  0.13243  0.76755  1.0000
  H   H291      1.0  0.05495  0.33678  0.75535  1.0000
  C   C177      1.0  0.35293  0.13548  0.75216  1.0000
  C   C178      1.0  0.47641  0.35352  0.93597  1.0000
  H   H292      1.0  0.14235  0.13071  0.83347  1.0000
  H   H293      1.0  0.18557  0.39736  0.76994  1.0000
  H   H294      1.0  0.06536  0.04278  0.88071  1.0000
  C   C179      1.0  0.04596  0.27545  0.78808  1.0000
  H   H295      1.0  0.39223  0.16111  0.78371  1.0000
  C   C180      1.0  0.47287  0.40481  0.92346  1.0000
  H   H296      1.0  0.15197  0.16615  0.80716  1.0000
  C   C181      1.0  0.25792  0.01346  0.84689  1.0000
  H   H297      1.0  0.15754  0.05144  0.76123  1.0000
  C   C182      1.0  0.18357  0.06386  0.77086  1.0000
  C   C183      1.0  0.26107  0.27249  0.77801  1.0000
  H   H298      1.0  0.41877  0.43277  0.83412  1.0000
  H   H299      1.0  0.48035  0.23573  0.81548  1.0000
  H   H300      1.0  0.24492  0.43890  0.85182  1.0000
  H   H301      1.0  0.38508  0.18615  0.76813  1.0000
  H   H302      1.0  0.13796  0.14088  0.77382  1.0000
  H   H303      1.0  0.47419  0.42043  0.92731  1.0000
  C   C184      1.0  0.06788  0.04813  0.89538  1.0000
  H   H304      1.0  0.43671  0.45523  0.80969  1.0000
  H   H305      1.0  0.39598  0.35882  0.76832  1.0000
  C   C185      1.0  0.12723  0.11687  0.79884  1.0000
  H   H306      1.0  0.35381  0.32732  0.80803  1.0000
  N   N10       1.0  0.05884  0.29162  0.77517  1.0000
  H   H307      1.0  0.09438  0.14015  0.77894  1.0000
  N   N11       1.0  0.28444  0.26791  0.76994  1.0000
  N   N12       1.0  0.36838  0.34609  0.76370  1.0000
  S   S59       1.0  0.24694  0.14370  0.75354  1.0000
  H   H308      1.0  0.23008  0.20950  0.76060  1.0000
  C   C186      1.0  0.17219  0.04572  0.76857  1.0000
  C   C187      1.0  0.09205  0.28883  0.79416  1.0000
  C   C188      1.0  0.42214  0.45250  0.80424  1.0000
  C   C189      1.0  0.13794  0.17294  0.79903  1.0000
  H   H309      1.0  0.27397  0.46546  0.86161  1.0000
  H   H310      1.0  0.42531  0.45141  0.78710  1.0000
  H   H311      1.0  0.41264  0.17182  0.73733  1.0000
  C   C190      1.0  0.00266  0.07544  0.88393  1.0000
  C   C191      1.0  0.25492  0.28258  0.79847  1.0000
  H   H312      1.0  0.27340  0.00879  0.85267  1.0000
  H   H313      1.0  0.39529  0.43857  0.82225  1.0000
  C   C192      1.0  0.25232  0.98066  0.89207  1.0000
  H   H314      1.0  0.34941  0.32227  0.76261  1.0000
  H   H315      1.0  0.28827  0.22258  0.78404  1.0000
  Fe  Fe29      1.0  0.28180  0.14557  0.74386  1.0000
  C   C193      1.0  0.20356  0.09256  0.75562  1.0000
  C   C194      1.0  0.25106  0.43631  0.83514  1.0000
  H   H316      1.0  0.06454  0.26129  0.81386  1.0000
  H   H317      1.0  0.26549  0.27615  0.81054  1.0000
  H   H318      1.0  0.22190  0.23268  0.74328  1.0000
  C   C195      1.0  0.28486  0.45051  0.83268  1.0000
  H   H319      1.0  0.36807  0.38212  0.78702  1.0000
  H   H320      1.0  0.03717  0.30098  0.75174  1.0000
  H   H321      1.0  0.25433  0.29984  0.79486  1.0000
  H   H322      1.0  0.09150  0.29215  0.76075  1.0000
  H   H323      1.0  0.34426  0.12751  0.76684  1.0000
  H   H324      1.0  0.10434  0.16643  0.82924  1.0000
  C   C196      1.0  0.03315  0.10236  0.89463  1.0000
  C   C197      1.0  0.30250  0.29710  0.77951  1.0000
  H   H325      1.0  0.29538  0.43595  0.82893  1.0000
  H   H326      1.0  0.27135  0.23604  0.80453  1.0000
  H   H327      1.0  0.33677  0.31311  0.79938  1.0000
  H   H328      1.0  0.23893  0.27911  0.80622  1.0000
  S   S60       1.0  0.16994  0.23582  0.74896  1.0000
  H   H329      1.0  0.31732  0.28727  0.78400  1.0000
  S   S61       1.0  0.38888  0.22725  0.74368  1.0000
  H   H330      1.0  0.99803  0.07003  0.87021  1.0000
  H   H331      1.0  0.10463  0.27560  0.79820  1.0000
  H   H332      1.0  0.99629  0.09072  0.92034  1.0000
  C   C198      1.0  0.35796  0.38384  0.74544  1.0000
  H   H333      1.0  0.37130  0.31309  0.77669  1.0000
  H   H334      1.0  0.39042  0.33655  0.78664  1.0000
  C   C199      1.0  0.38258  0.35120  0.77786  1.0000
  C   C200      1.0  0.00599  0.19705  0.74757  1.0000
  H   H335      1.0  0.35758  0.36069  0.80434  1.0000
  C   C201      1.0  0.26948  0.45050  0.80067  1.0000
  Fe  Fe30      1.0  0.18834  0.99384  0.82951  1.0000
  H   H336      1.0  0.46490  0.35042  0.92634  1.0000
  H   H337      1.0  0.18428  0.36342  0.75826  1.0000
  H   H338      1.0  0.19082  0.10253  0.78670  1.0000
  H   H339      1.0  0.23766  0.01878  0.87609  1.0000
  H   H340      1.0  0.33129  0.34092  0.79494  1.0000
  H   H341      1.0  0.34447  0.29637  0.73841  1.0000
  C   C202      1.0  0.37209  0.36569  0.79451  1.0000
  H   H342      1.0  0.06754  0.07977  0.87948  1.0000
  H   H343      1.0  0.03732  0.25827  0.81930  1.0000
  H   H344      1.0  0.05840  0.34415  0.77975  1.0000
  S   S62       1.0  0.12119  0.24938  0.73626  1.0000
  C   C203      1.0  0.31880  0.20413  0.74433  1.0000
  Fe  Fe31      1.0  0.26055  0.41175  0.74292  1.0000
  H   H345      1.0  0.44776  0.39827  0.95086  1.0000
  H   H346      1.0  0.21255  0.99871  0.91225  1.0000
  C   C204      1.0  0.48364  0.23310  0.79868  1.0000
  S   S63       1.0  0.38915  0.47820  0.85457  1.0000
  H   H347      1.0  0.07554  0.26659  0.74254  1.0000
  H   H348      1.0  0.15197  0.35094  0.75239  1.0000
  H   H349      1.0  0.11005  0.11804  0.80471  1.0000
  S   S64       1.0  0.36362  0.46930  0.80238  1.0000
  H   H350      1.0  0.31346  0.24938  0.77918  1.0000
  H   H351      1.0  0.30749  0.28604  0.74974  1.0000
  H   H352      1.0  0.03059  0.05330  0.88416  1.0000
  C   C205      1.0  0.17513  0.37254  0.74561  1.0000
  H   H353      1.0  0.22009  0.47016  0.82116  1.0000
  Fe  Fe32      1.0  0.38718  0.26209  0.73803  1.0000
  C   C206      1.0  0.39740  0.17224  0.76954  1.0000
  H   H354      1.0  0.99416  0.22753  0.75698  1.0000
  H   H355      1.0  0.18762  0.42070  0.75027  1.0000
  C   C207      1.0  0.02810  0.07002  0.92120  1.0000
  H   H356      1.0  0.13011  0.10793  0.78523  1.0000
  C   C208      1.0  0.28770  0.23307  0.79592  1.0000
  H   H357      1.0  0.47676  0.38285  0.96279  1.0000
  H   H358      1.0  0.04756  0.26386  0.74754  1.0000
  H   H359      1.0  0.13478  0.19377  0.76863  1.0000
  C   C209      1.0  0.17327  0.08702  0.73899  1.0000
  C   C210      1.0  0.19048  0.10855  0.76957  1.0000
  C   C211      1.0  0.05419  0.29450  0.75258  1.0000
  C   C212      1.0  0.38151  0.34178  0.74275  1.0000
  H   H360      1.0  0.11190  0.17127  0.77084  1.0000
  C   C213      1.0  0.45051  0.39988  0.93330  1.0000
  H   H361      1.0  0.28018  0.24188  0.75496  1.0000
  C   C214      1.0  0.00690  0.08171  0.93148  1.0000
  H   H362      1.0  0.23566  0.05718  0.75160  1.0000
  N   N13       1.0  0.19176  0.07666  0.75038  1.0000
  H   H363      1.0  0.17379  0.11279  0.76678  1.0000
  H   H364      1.0  0.16729  0.03730  0.78467  1.0000
  H   H365      1.0  0.21670  0.08464  0.76451  1.0000
  Fe  Fe33      1.0  0.29189  0.10037  0.73481  1.0000
  H   H366      1.0  0.15423  0.17036  0.76616  1.0000
  H   H367      1.0  0.48711  0.37122  0.90583  1.0000
  H   H368      1.0  0.22462  0.01377  0.85579  1.0000
  H   H369      1.0  0.34486  0.39712  0.74720  1.0000
  H   H370      1.0  0.37213  0.38796  0.75037  1.0000
  N   N14       1.0  0.38462  0.15661  0.74034  1.0000
  H   H371      1.0  0.00059  0.18183  0.74776  1.0000
  H   H372      1.0  0.06344  0.30613  0.74219  1.0000
  H   H373      1.0  0.38975  0.35530  0.73506  1.0000
  H   H374      1.0  0.48976  0.28068  0.80848  1.0000
  C   C215      1.0  0.48997  0.25240  0.78325  1.0000
  C   C216      1.0  0.27659  0.97965  0.88602  1.0000
  H   H375      1.0  0.25894  0.27010  0.73502  1.0000
  H   H376      1.0  0.17506  0.34242  0.73492  1.0000
  H   H377      1.0  0.48032  0.70498  0.14894  1.0000
  H   H378      1.0  0.08905  0.91611  0.03571  1.0000
  C   C217      1.0  0.38441  0.64103  0.07683  1.0000
  Fe  Fe34      1.0  0.01774  0.81849  0.17249  1.0000
  C   C218      1.0  0.06400  0.77751  0.14269  1.0000
  S   S65       1.0  0.03242  0.79333  0.19682  1.0000
  H   H379      1.0  0.25049  0.76762  0.99194  1.0000
  H   H380      1.0  0.45981  0.71675  0.12003  1.0000
  C   C219      1.0  0.20968  0.74989  0.01427  1.0000
  H   H381      1.0  0.45110  0.50333  0.99055  1.0000
  H   H382      1.0  0.33741  0.63138  0.05069  1.0000
  Fe  Fe35      1.0  0.01813  0.83185  0.12486  1.0000
  S   S66       1.0  0.03776  0.82296  0.09392  1.0000
  Fe  Fe36      1.0  0.34703  0.63918  0.00053  1.0000
  S   S67       1.0  0.02936  0.84568  0.14985  1.0000
  H   H383      1.0  0.40162  0.63762  0.07118  1.0000
  S   S68       1.0  0.31738  0.65744  0.01642  1.0000
  C   C220      1.0  0.45432  0.62114  0.06465  1.0000
  C   C221      1.0  0.10371  0.81728  0.12974  1.0000
  S   S69       1.0  0.44830  0.66732  0.15978  1.0000
  S   S70       1.0  0.45955  0.71953  0.22987  1.0000
  C   C222      1.0  0.45154  0.68107  0.17988  1.0000
  C   C223      1.0  0.43957  0.61255  0.05613  1.0000
  Fe  Fe37      1.0  0.15030  0.82925  0.02104  1.0000
  S   S71       1.0  0.17920  0.84421  0.00507  1.0000
  S   S72       1.0  0.12771  0.84596  0.04636  1.0000
  H   H384      1.0  0.41131  0.57994  0.99790  1.0000
  H   H385      1.0  0.44899  0.58414  0.98906  1.0000
  Fe  Fe38      1.0  0.19696  0.81128  0.00950  1.0000
  S   S73       1.0  0.22991  0.79947  0.01841  1.0000
  H   H386      1.0  0.45838  0.61470  0.08026  1.0000
  S   S74       1.0  0.16880  0.79705  0.02744  1.0000
  Fe  Fe39      1.0  0.26934  0.73852  0.12590  1.0000
  S   S75       1.0  0.26440  0.70521  0.13870  1.0000
  S   S76       1.0  0.24089  0.75984  0.11385  1.0000
  Fe  Fe40      1.0  0.31175  0.73332  0.14313  1.0000
  S   S77       1.0  0.30949  0.70003  0.15671  1.0000
  S   S78       1.0  0.34192  0.74408  0.14797  1.0000
  Fe  Fe41      1.0  0.29909  0.69740  0.12599  1.0000
  S   S79       1.0  0.31590  0.66824  0.11248  1.0000
  Fe  Fe42      1.0  0.27541  0.71104  0.16800  1.0000
  S   S80       1.0  0.26285  0.70271  0.20275  1.0000
  S   S81       1.0  0.30347  0.73029  0.11124  1.0000
  S   S82       1.0  0.27819  0.74477  0.15632  1.0000
  C   C224      1.0  0.23274  0.78782  0.04484  1.0000
  C   C225      1.0  0.25263  0.77727  0.04957  1.0000
  C   C226      1.0  0.25537  0.76814  0.07054  1.0000
  C   C227      1.0  0.23825  0.76980  0.08698  1.0000
  C   C228      1.0  0.21836  0.78022  0.08219  1.0000
  C   C229      1.0  0.21557  0.78906  0.06122  1.0000
  H   H387      1.0  0.26603  0.77634  0.03701  1.0000
  H   H388      1.0  0.27078  0.76025  0.07407  1.0000
  H   H389      1.0  0.20507  0.78164  0.09479  1.0000
  H   H390      1.0  0.20024  0.79727  0.05783  1.0000
  C   C230      1.0  0.31666  0.66017  0.04323  1.0000
  C   C231      1.0  0.30436  0.67771  0.05126  1.0000
  C   C232      1.0  0.30383  0.68036  0.07253  1.0000
  C   C233      1.0  0.31522  0.66520  0.08599  1.0000
  C   C234      1.0  0.32710  0.64743  0.07808  1.0000
  C   C235      1.0  0.32808  0.64504  0.05669  1.0000
  H   H391      1.0  0.29538  0.68937  0.04094  1.0000
  H   H392      1.0  0.29458  0.69407  0.07853  1.0000
  H   H393      1.0  0.33578  0.63556  0.08848  1.0000
  H   H394      1.0  0.20191  0.81186  0.15480  1.0000
  C   C236      1.0  0.19323  0.69329  0.22097  1.0000
  H   H395      1.0  0.42804  0.56155  0.01341  1.0000
  C   C237      1.0  0.23624  0.69846  0.20956  1.0000
  C   C238      1.0  0.22560  0.69193  0.19528  1.0000
  H   H396      1.0  0.23158  0.72407  0.02709  1.0000
  S   S83       1.0  0.00807  0.80385  0.14733  1.0000
  H   H397      1.0  0.47529  0.76332  0.12105  1.0000
  H   H398      1.0  0.23391  0.68898  0.17982  1.0000
  C   C239      1.0  0.06208  0.77317  0.22162  1.0000
  C   C240      1.0  0.06252  0.83002  0.08069  1.0000
  C   C241      1.0  0.07168  0.84564  0.08649  1.0000
  C   C242      1.0  0.09157  0.85042  0.07570  1.0000
  C   C243      1.0  0.10260  0.83952  0.05919  1.0000
  C   C244      1.0  0.09337  0.82400  0.05332  1.0000
  C   C245      1.0  0.07337  0.81942  0.06390  1.0000
  H   H399      1.0  0.06344  0.85406  0.09924  1.0000
  H   H400      1.0  0.09852  0.86254  0.08028  1.0000
  H   H401      1.0  0.10163  0.81548  0.04065  1.0000
  H   H402      1.0  0.06638  0.80737  0.05924  1.0000
  H   H403      1.0  0.32571  0.66031  0.18626  1.0000
  C   C246      1.0  0.20417  0.68910  0.20109  1.0000
  C   C247      1.0  0.10856  0.78122  0.12344  1.0000
  H   H404      1.0  0.41274  0.65542  0.20895  1.0000
  H   H405      1.0  0.07794  0.89496  0.01293  1.0000
  H   H406      1.0  0.05280  0.76047  0.22448  1.0000
  H   H407      1.0  0.14308  0.89361  0.01572  1.0000
  S   S84       1.0  0.15349  0.76334  0.98984  1.0000
  H   H408      1.0  0.09554  0.81838  0.21182  1.0000
  H   H409      1.0  0.36068  0.66481  0.08906  1.0000
  S   S85       1.0  0.14203  0.82389  0.99015  1.0000
  H   H410      1.0  0.38907  0.68798  0.20045  1.0000
  C   C248      1.0  0.09691  0.91596  0.01901  1.0000
  H   H411      1.0  0.09762  0.82320  0.11443  1.0000
  C   C249      1.0  0.43388  0.62077  0.03588  1.0000
  H   H412      1.0  0.41984  0.69797  0.18135  1.0000
  H   H413      1.0  0.21979  0.77342  0.20019  1.0000
  H   H414      1.0  0.33360  0.69883  0.19271  1.0000
  C   C250      1.0  0.34957  0.75344  0.21513  1.0000
  C   C251      1.0  0.32937  0.75292  0.21009  1.0000
  C   C252      1.0  0.32689  0.74987  0.18965  1.0000
  C   C253      1.0  0.34452  0.74804  0.17380  1.0000
  C   C254      1.0  0.36473  0.74878  0.17876  1.0000
  C   C255      1.0  0.36731  0.75109  0.19945  1.0000
  H   H415      1.0  0.35660  0.70869  0.19402  1.0000
  H   H416      1.0  0.31127  0.74931  0.18604  1.0000
  H   H417      1.0  0.37846  0.74734  0.16661  1.0000
  C   C256      1.0  0.38161  0.67359  0.20611  1.0000
  H   H418      1.0  0.48808  0.73307  0.10604  1.0000
  H   H419      1.0  0.43241  0.59948  0.06535  1.0000
  C   C257      1.0  0.43452  0.69529  0.18785  1.0000
  C   C258      1.0  0.43668  0.70676  0.20360  1.0000
  C   C259      1.0  0.45608  0.70432  0.21121  1.0000
  H   H420      1.0  0.38086  0.62969  0.09138  1.0000
  H   H421      1.0  0.34973  0.69998  0.09977  1.0000
  N   N15       1.0  0.38165  0.68078  0.06421  1.0000
  C   C260      1.0  0.40470  0.67875  0.05437  1.0000
  C   C261      1.0  0.36855  0.67957  0.04733  1.0000
  C   C262      1.0  0.37782  0.66344  0.08235  1.0000
  C   C263      1.0  0.37562  0.70133  0.07272  1.0000
  C   C264      1.0  0.42103  0.67634  0.06987  1.0000
  C   C265      1.0  0.36664  0.69871  0.02983  1.0000
  C   C266      1.0  0.35217  0.70659  0.08263  1.0000
  H   H422      1.0  0.40904  0.66524  0.04534  1.0000
  H   H423      1.0  0.40769  0.69266  0.04238  1.0000
  H   H424      1.0  0.35219  0.67691  0.05440  1.0000
  H   H425      1.0  0.37509  0.66578  0.03904  1.0000
  H   H426      1.0  0.38492  0.70169  0.08560  1.0000
  H   H427      1.0  0.38003  0.71471  0.06056  1.0000
  H   H428      1.0  0.43716  0.67624  0.06052  1.0000
  H   H429      1.0  0.42135  0.66132  0.08081  1.0000
  H   H430      1.0  0.35765  0.71283  0.03623  1.0000
  H   H431      1.0  0.38235  0.70201  0.02124  1.0000
  H   H432      1.0  0.35754  0.69537  0.01795  1.0000
  H   H433      1.0  0.37534  0.63795  0.06487  1.0000
  H   H434      1.0  0.34084  0.70099  0.07468  1.0000
  H   H435      1.0  0.34760  0.72385  0.08099  1.0000
  N   N16       1.0  0.19634  0.75946  0.17495  1.0000
  C   C267      1.0  0.19162  0.75256  0.15535  1.0000
  C   C268      1.0  0.19168  0.78304  0.17243  1.0000
  C   C269      1.0  0.18273  0.75060  0.19465  1.0000
  C   C270      1.0  0.21930  0.75173  0.17725  1.0000
  C   C271      1.0  0.19335  0.72874  0.15573  1.0000
  C   C272      1.0  0.20770  0.79479  0.15628  1.0000
  C   C273      1.0  0.15855  0.75517  0.19422  1.0000
  C   C274      1.0  0.22716  0.75776  0.19638  1.0000
  H   H436      1.0  0.17553  0.75980  0.15171  1.0000
  H   H437      1.0  0.20259  0.75818  0.14115  1.0000
  H   H438      1.0  0.19040  0.78885  0.18788  1.0000
  H   H439      1.0  0.17583  0.78869  0.16729  1.0000
  H   H440      1.0  0.18726  0.73339  0.19831  1.0000
  H   H441      1.0  0.18555  0.75674  0.20882  1.0000
  H   H442      1.0  0.22243  0.73439  0.17935  1.0000
  H   H443      1.0  0.23014  0.75623  0.16242  1.0000
  H   H444      1.0  0.18882  0.72589  0.14074  1.0000
  H   H445      1.0  0.20987  0.72072  0.15620  1.0000
  H   H446      1.0  0.18249  0.72138  0.16898  1.0000
  H   H447      1.0  0.22352  0.79237  0.16159  1.0000
  H   H448      1.0  0.20953  0.79031  0.14020  1.0000
  H   H449      1.0  0.15255  0.77217  0.19283  1.0000
  H   H450      1.0  0.15030  0.74777  0.20947  1.0000
  C   C275      1.0  0.08053  0.77081  0.23111  1.0000
  C   C276      1.0  0.39078  0.54983  0.00301  1.0000
  C   C277      1.0  0.32710  0.65825  0.20339  1.0000
  H   H451      1.0  0.10040  0.88229  0.02513  1.0000
  H   H452      1.0  0.24448  0.75839  0.19259  1.0000
  H   H453      1.0  0.09875  0.80045  0.17100  1.0000
  N   N17       1.0  0.36140  0.67510  0.19691  1.0000
  H   H454      1.0  0.27218  0.73276  0.03039  1.0000
  H   H455      1.0  0.41857  0.68952  0.07909  1.0000
  Fe  Fe43      1.0  0.99520  0.86204  0.15522  1.0000
  H   H456      1.0  0.10593  0.76488  0.12921  1.0000
  H   H457      1.0  0.38594  0.66473  0.09585  1.0000
  C   C278      1.0  0.10587  0.78929  0.15973  1.0000
  C   C279      1.0  0.35033  0.65665  0.20716  1.0000
  H   H458      1.0  0.12334  0.78949  0.15750  1.0000
  N   N18       1.0  0.09751  0.79599  0.13879  1.0000
  H   H459      1.0  0.05034  0.77696  0.15570  1.0000
  C   C280      1.0  0.00506  0.74594  0.19471  1.0000
  C   C281      1.0  0.23264  0.73899  0.01595  1.0000
  H   H460      1.0  0.35244  0.70612  0.23020  1.0000
  H   H461      1.0  0.01190  0.72933  0.19920  1.0000
  H   H462      1.0  0.31555  0.75486  0.22203  1.0000
  C   C282      1.0  0.09129  0.85542  0.00075  1.0000
  H   H463      1.0  0.44846  0.74120  0.12971  1.0000
  S   S86       1.0  0.16592  0.69174  0.22736  1.0000
  H   H464      1.0  0.31652  0.67107  0.21083  1.0000
  H   H465      1.0  0.40398  0.65420  0.18459  1.0000
  C   C283      1.0  0.38751  0.55023  0.02723  1.0000
  S   S87       1.0  0.36320  0.60638  0.00895  1.0000
  H   H466      1.0  0.43937  0.64402  0.00849  1.0000
  C   C284      1.0  0.37997  0.69045  0.16007  1.0000
  H   H467      1.0  0.12132  0.81636  0.12596  1.0000
  C   C285      1.0  0.45860  0.64578  0.03240  1.0000
  H   H468      1.0  0.39483  0.53549  0.03603  1.0000
  H   H469      1.0  0.01200  0.74189  0.16136  1.0000
  H   H470      1.0  0.35057  0.65345  0.22461  1.0000
  Fe  Fe44      1.0  0.47838  0.65392  0.14021  1.0000
  H   H471      1.0  0.35899  0.64205  0.20131  1.0000
  H   H472      1.0  0.27844  0.71824  0.98685  1.0000
  H   H473      1.0  0.23956  0.74912  0.02429  1.0000
  C   C286      1.0  0.34083  0.69836  0.22462  1.0000
  H   H474      1.0  0.11339  0.91858  0.01862  1.0000
  H   H475      1.0  0.20224  0.75446  0.02996  1.0000
  H   H476      1.0  0.10888  0.75472  0.16283  1.0000
  C   C287      1.0  0.07357  0.79779  0.14178  1.0000
  H   H477      1.0  0.47886  0.58552  0.10841  1.0000
  H   H478      1.0  0.39277  0.63959  0.20918  1.0000
  H   H479      1.0  0.08515  0.78976  0.10083  1.0000
  H   H480      1.0  0.20912  0.76445  0.00269  1.0000
  H   H481      1.0  0.06274  0.82256  0.19505  1.0000
  H   H482      1.0  0.37321  0.65893  0.16955  1.0000
  H   H483      1.0  0.12613  0.78053  0.12182  1.0000
  C   C288      1.0  0.48209  0.75846  0.13620  1.0000
  C   C289      1.0  0.10174  0.76771  0.17190  1.0000
  C   C290      1.0  0.09531  0.89489  0.01226  1.0000
  C   C291      1.0  0.47331  0.72185  0.14752  1.0000
  H   H484      1.0  0.06712  0.80907  0.12858  1.0000
  H   H485      1.0  0.09862  0.85003  0.13401  1.0000
  H   H486      1.0  0.15384  0.74835  0.18149  1.0000
  H   H487      1.0  0.42621  0.52616  0.01735  1.0000
  H   H488      1.0  0.05728  0.77782  0.12786  1.0000
  H   H489      1.0  0.10890  0.77325  0.09194  1.0000
  H   H490      1.0  0.06647  0.80458  0.15654  1.0000
  H   H491      1.0  0.38293  0.75157  0.20312  1.0000
  H   H492      1.0  0.19966  0.73933  0.01039  1.0000
  S   S88       1.0  0.37695  0.65360  0.99351  1.0000
  C   C292      1.0  0.44334  0.63763  0.02416  1.0000
  C   C293      1.0  0.10255  0.78664  0.10081  1.0000
  H   H493      1.0  0.08454  0.76732  0.17717  1.0000
  C   C294      1.0  0.42325  0.56556  0.99724  1.0000
  C   C295      1.0  0.09565  0.83479  0.14366  1.0000
  H   H494      1.0  0.07834  0.83612  0.14920  1.0000
  H   H495      1.0  0.08832  0.92929  0.00925  1.0000
  H   H496      1.0  0.10917  0.76481  0.18666  1.0000
  C   C296      1.0  0.22546  0.70192  0.22969  1.0000
  H   H497      1.0  0.48415  0.66767  0.18159  1.0000
  C   C297      1.0  0.47094  0.67860  0.18755  1.0000
  C   C298      1.0  0.46421  0.63764  0.05267  1.0000
  C   C299      1.0  0.12991  0.88105  0.99221  1.0000
  S   S89       1.0  0.41603  0.60851  0.02552  1.0000
  H   H498      1.0  0.39648  0.68678  0.16365  1.0000
  C   C300      1.0  0.47326  0.69032  0.20306  1.0000
  H   H499      1.0  0.08734  0.84304  0.99292  1.0000
  H   H500      1.0  0.10438  0.83275  0.15743  1.0000
  C   C301      1.0  0.39851  0.65452  0.20178  1.0000
  H   H501      1.0  0.46617  0.65847  0.02292  1.0000
  H   H502      1.0  0.42352  0.71792  0.20942  1.0000
  H   H503      1.0  0.10984  0.80022  0.09171  1.0000
  H   H504      1.0  0.07476  0.76271  0.14580  1.0000
  C   C302      1.0  0.34782  0.69549  0.20104  1.0000
  C   C303      1.0  0.05560  0.79175  0.20849  1.0000
  H   H505      1.0  0.37820  0.67295  0.22370  1.0000
  C   C304      1.0  0.45491  0.72459  0.13438  1.0000
  H   H506      1.0  0.13082  0.86686  0.00428  1.0000
  Fe  Fe45      1.0  0.39365  0.62057  0.00038  1.0000
  C   C305      1.0  0.27964  0.73321  0.01353  1.0000
  C   C306      1.0  0.06770  0.80809  0.20497  1.0000
  C   C307      1.0  0.36579  0.67476  0.17323  1.0000
  H   H507      1.0  0.37350  0.70688  0.16202  1.0000
  H   H508      1.0  0.14108  0.91158  0.99109  1.0000
  H   H509      1.0  0.22422  0.74606  0.21078  1.0000
  C   C308      1.0  0.99797  0.74706  0.17280  1.0000
  H   H510      1.0  0.01125  0.76381  0.22681  1.0000
  H   H511      1.0  0.38083  0.68940  0.14295  1.0000
  H   H512      1.0  0.41556  0.51425  0.00020  1.0000
  C   C309      1.0  0.14421  0.89500  0.99818  1.0000
  H   H513      1.0  0.35070  0.67801  0.16638  1.0000
  H   H514      1.0  0.01858  0.75504  0.19213  1.0000
  H   H515      1.0  0.14924  0.62550  0.23279  1.0000
  H   H516      1.0  0.19597  0.68412  0.18999  1.0000
  Fe  Fe46      1.0  0.16321  0.79309  0.99509  1.0000
  H   H517      1.0  0.07721  0.85990  0.01243  1.0000
  H   H518      1.0  0.48179  0.58037  0.05326  1.0000
  H   H519      1.0  0.39333  0.56381  0.03130  1.0000
  H   H520      1.0  0.37019  0.55196  0.03314  1.0000
  H   H521      1.0  0.46754  0.78152  0.15709  1.0000
  H   H522      1.0  0.44170  0.71686  0.14404  1.0000
  C   C310      1.0  0.08626  0.80569  0.21449  1.0000
  S   S90       1.0  0.48057  0.62560  0.12416  1.0000
  H   H523      1.0  0.23256  0.70739  0.99535  1.0000
  H   H524      1.0  0.10465  0.84831  0.00950  1.0000
  H   H525      1.0  0.38293  0.53674  0.00072  1.0000
  H   H526      1.0  0.32097  0.64348  0.21084  1.0000
  N   N19       1.0  0.41348  0.54808  0.99196  1.0000
  H   H527      1.0  0.29598  0.72447  0.01364  1.0000
  H   H528      1.0  0.26453  0.70722  0.01064  1.0000
  C   C311      1.0  0.46451  0.76628  0.15384  1.0000
  N   N20       1.0  0.24662  0.73506  0.99529  1.0000
  H   H529      1.0  0.28107  0.74961  0.00641  1.0000
  H   H530      1.0  0.44875  0.76959  0.14827  1.0000
  H   H531      1.0  0.38124  0.56436  0.99601  1.0000
  C   C312      1.0  0.42492  0.52702  0.00025  1.0000
  H   H532      1.0  0.46615  0.72410  0.16394  1.0000
  H   H533      1.0  0.46330  0.75594  0.16928  1.0000
  C   C313      1.0  0.26732  0.72258  0.00097  1.0000
  C   C314      1.0  0.09279  0.78700  0.22756  1.0000
  H   H534      1.0  0.48412  0.56669  0.09047  1.0000
  S   S91       1.0  0.48431  0.64802  0.06172  1.0000
  H   H535      1.0  0.48833  0.68845  0.20886  1.0000
  H   H536      1.0  0.13885  0.65228  0.22578  1.0000
  H   H537      1.0  0.16096  0.88978  0.99167  1.0000
  H   H538      1.0  0.32506  0.70833  0.22627  1.0000
  C   C315      1.0  0.99880  0.75339  0.23110  1.0000
  N   N21       1.0  0.10705  0.89029  0.99081  1.0000
  H   H539      1.0  0.45947  0.52592  0.99726  1.0000
  H   H540      1.0  0.48837  0.72826  0.18470  1.0000
  C   C316      1.0  0.44775  0.52066  0.98937  1.0000
  H   H541      1.0  0.99160  0.76319  0.16616  1.0000
  H   H542      1.0  0.02300  0.72511  0.23030  1.0000
  H   H543      1.0  0.99070  0.78422  0.19388  1.0000
  S   S92       1.0  0.48997  0.67428  0.11040  1.0000
  N   N22       1.0  0.49041  0.73534  0.13873  1.0000
  C   C317      1.0  0.23574  0.72206  0.98455  1.0000
  H   H544      1.0  0.15094  0.75678  0.42501  1.0000
  H   H545      1.0  0.18966  0.69018  0.39958  1.0000
  S   S93       1.0  0.31043  0.85139  0.46186  1.0000
  H   H546      1.0  0.16061  0.60374  0.26028  1.0000
  S   S94       1.0  0.41499  0.84529  0.46475  1.0000
  H   H547      1.0  0.18285  0.61589  0.26098  1.0000
  C   C318      1.0  0.47000  0.89790  0.43238  1.0000
  S   S95       1.0  0.18852  0.65204  0.45126  1.0000
  Fe  Fe47      1.0  0.28905  0.72296  0.38500  1.0000
  S   S96       1.0  0.29635  0.75381  0.36705  1.0000
  S   S97       1.0  0.30655  0.69172  0.37810  1.0000
  Fe  Fe48      1.0  0.25253  0.74259  0.41499  1.0000
  S   S98       1.0  0.25720  0.77532  0.39964  1.0000
  S   S99       1.0  0.22579  0.73710  0.44192  1.0000
  Fe  Fe49      1.0  0.26089  0.76213  0.36890  1.0000
  S   S100      1.0  0.24429  0.77822  0.34089  1.0000
  Fe  Fe50      1.0  0.29220  0.76379  0.39942  1.0000
  S   S101      1.0  0.31955  0.77668  0.40828  1.0000
  S   S102      1.0  0.25403  0.73034  0.38448  1.0000
  S   S103      1.0  0.28705  0.73205  0.41725  1.0000
  S   S104      1.0  0.45495  0.88228  0.37131  1.0000
  Fe  Fe51      1.0  0.41218  0.75972  0.28343  1.0000
  S   S105      1.0  0.43076  0.72758  0.28577  1.0000
  S   S106      1.0  0.41700  0.78389  0.30303  1.0000
  Fe  Fe52      1.0  0.38296  0.74880  0.25458  1.0000
  S   S107      1.0  0.39972  0.71583  0.25522  1.0000
  Fe  Fe53      1.0  0.39921  0.71643  0.28989  1.0000
  S   S108      1.0  0.39262  0.68882  0.31452  1.0000
  Fe  Fe54      1.0  0.42943  0.73040  0.25083  1.0000
  S   S109      1.0  0.38046  0.74835  0.28987  1.0000
  Fe  Fe55      1.0  0.11774  0.71670  0.29244  1.0000
  S   S110      1.0  0.12716  0.74753  0.29493  1.0000
  S   S111      1.0  0.09395  0.70465  0.31986  1.0000
  Fe  Fe56      1.0  0.16085  0.73149  0.28863  1.0000
  S   S112      1.0  0.18680  0.72388  0.30964  1.0000
  H   H548      1.0  0.28216  0.83996  0.43750  1.0000
  S   S113      1.0  0.15113  0.70038  0.28793  1.0000
  Fe  Fe57      1.0  0.02030  0.60124  0.39970  1.0000
  S   S114      1.0  0.03311  0.58189  0.37324  1.0000
  S   S115      1.0  0.04007  0.59345  0.42727  1.0000
  N   N23       1.0  0.00444  0.70747  0.32457  1.0000
  H   H549      1.0  0.28490  0.81055  0.41698  1.0000
  Fe  Fe58      1.0  0.02939  0.61273  0.35188  1.0000
  S   S116      1.0  0.05346  0.62253  0.32345  1.0000
  S   S117      1.0  0.01761  0.63207  0.37814  1.0000
  Fe  Fe59      1.0  0.16316  0.64494  0.47915  1.0000
  C   C319      1.0  0.08373  0.68134  0.32063  1.0000
  C   C320      1.0  0.08723  0.67075  0.30303  1.0000
  C   C321      1.0  0.07780  0.65271  0.30408  1.0000
  C   C322      1.0  0.06522  0.64501  0.32279  1.0000
  C   C323      1.0  0.06218  0.65541  0.34047  1.0000
  C   C324      1.0  0.07123  0.67361  0.33932  1.0000
  H   H550      1.0  0.09668  0.67678  0.28849  1.0000
  H   H551      1.0  0.07994  0.64484  0.29029  1.0000
  H   H552      1.0  0.05284  0.64948  0.35504  1.0000
  H   H553      1.0  0.06851  0.68175  0.35299  1.0000
  H   H554      1.0  0.18181  0.77398  0.40322  1.0000
  C   C325      1.0  0.47497  0.78625  0.33522  1.0000
  C   C326      1.0  0.45634  0.76737  0.31620  1.0000
  C   C327      1.0  0.43949  0.78398  0.31549  1.0000
  C   C328      1.0  0.00927  0.73185  0.24111  1.0000
  H   H555      1.0  0.45580  0.75372  0.30912  1.0000
  H   H556      1.0  0.07618  0.58354  0.44941  1.0000
  C   C329      1.0  0.32994  0.69144  0.35971  1.0000
  C   C330      1.0  0.34485  0.67326  0.36025  1.0000
  C   C331      1.0  0.36387  0.67261  0.34609  1.0000
  C   C332      1.0  0.36794  0.68998  0.33097  1.0000
  C   C333      1.0  0.35272  0.70800  0.32993  1.0000
  C   C334      1.0  0.33388  0.70885  0.34454  1.0000
  H   H557      1.0  0.34183  0.65971  0.37187  1.0000
  H   H558      1.0  0.37552  0.65861  0.34693  1.0000
  H   H559      1.0  0.35563  0.72138  0.31821  1.0000
  H   H560      1.0  0.32235  0.72282  0.34395  1.0000
  C   C335      1.0  0.22937  0.76330  0.33040  1.0000
  C   C336      1.0  0.23275  0.74149  0.33471  1.0000
  C   C337      1.0  0.21999  0.72976  0.32750  1.0000
  C   C338      1.0  0.20379  0.73966  0.31570  1.0000
  C   C339      1.0  0.20097  0.76145  0.31041  1.0000
  C   C340      1.0  0.21382  0.77325  0.31773  1.0000
  H   H561      1.0  0.24520  0.73358  0.34362  1.0000
  H   H562      1.0  0.22243  0.71289  0.33144  1.0000
  H   H563      1.0  0.18854  0.76923  0.30126  1.0000
  H   H564      1.0  0.21129  0.79014  0.31407  1.0000
  C   C341      1.0  0.07406  0.63324  0.45970  1.0000
  Fe  Fe60      1.0  0.15090  0.71092  0.25320  1.0000
  C   C342      1.0  0.04656  0.63096  0.43848  1.0000
  C   C343      1.0  0.05330  0.60947  0.43879  1.0000
  C   C344      1.0  0.07072  0.60007  0.44931  1.0000
  C   C345      1.0  0.08120  0.61189  0.45948  1.0000
  H   H565      1.0  0.04961  0.72985  0.32749  1.0000
  H   H566      1.0  0.12454  0.63596  0.31759  1.0000
  C   C346      1.0  0.19897  0.67554  0.44924  1.0000
  C   C347      1.0  0.21715  0.67899  0.43456  1.0000
  C   C348      1.0  0.22560  0.69774  0.43232  1.0000
  C   C349      1.0  0.21574  0.71331  0.44456  1.0000
  C   C350      1.0  0.19753  0.70990  0.45921  1.0000
  C   C351      1.0  0.18924  0.69103  0.46167  1.0000
  H   H567      1.0  0.22483  0.66703  0.42498  1.0000
  H   H568      1.0  0.23984  0.70001  0.42122  1.0000
  H   H569      1.0  0.99771  0.72065  0.24636  1.0000
  H   H570      1.0  0.47056  0.93291  0.37112  1.0000
  C   C352      1.0  0.42538  0.85617  0.43878  1.0000
  C   C353      1.0  0.44299  0.84464  0.42794  1.0000
  C   C354      1.0  0.45186  0.85235  0.40726  1.0000
  C   C355      1.0  0.44371  0.87201  0.39729  1.0000
  C   C356      1.0  0.42619  0.88372  0.40819  1.0000
  C   C357      1.0  0.41689  0.87575  0.42877  1.0000
  H   H571      1.0  0.44962  0.82946  0.43551  1.0000
  H   H572      1.0  0.46491  0.84288  0.39907  1.0000
  H   H573      1.0  0.41968  0.89896  0.40065  1.0000
  H   H574      1.0  0.40339  0.88486  0.43700  1.0000
  C   C358      1.0  0.31271  0.82988  0.44799  1.0000
  C   C359      1.0  0.33071  0.81461  0.44737  1.0000
  C   C360      1.0  0.33242  0.79821  0.43541  1.0000
  C   C361      1.0  0.31593  0.79661  0.42441  1.0000
  C   C362      1.0  0.29762  0.81150  0.42556  1.0000
  C   C363      1.0  0.29612  0.82817  0.43716  1.0000
  H   H575      1.0  0.34351  0.81566  0.45574  1.0000
  H   H576      1.0  0.34659  0.78670  0.43469  1.0000
  H   H577      1.0  0.12773  0.67560  0.34338  1.0000
  N   N24       1.0  0.28735  0.73494  0.28938  1.0000
  C   C364      1.0  0.26968  0.74818  0.27839  1.0000
  C   C365      1.0  0.29239  0.74722  0.30516  1.0000
  C   C366      1.0  0.27940  0.71492  0.30076  1.0000
  C   C367      1.0  0.30615  0.73034  0.27260  1.0000
  H   H578      1.0  0.45288  0.90272  0.43797  1.0000
  C   C368      1.0  0.16189  0.64200  0.29087  1.0000
  C   C369      1.0  0.28809  0.70449  0.32153  1.0000
  C   C370      1.0  0.32709  0.71976  0.28057  1.0000
  H   H579      1.0  0.25609  0.75356  0.29034  1.0000
  H   H580      1.0  0.27499  0.76265  0.26883  1.0000
  H   H581      1.0  0.30512  0.73825  0.31402  1.0000
  H   H582      1.0  0.27828  0.75014  0.31744  1.0000
  H   H583      1.0  0.26186  0.71763  0.30554  1.0000
  H   H584      1.0  0.28222  0.70286  0.28996  1.0000
  H   H585      1.0  0.30264  0.72004  0.26205  1.0000
  H   H586      1.0  0.30958  0.74497  0.26192  1.0000
  C   C371      1.0  0.99521  0.72485  0.30871  1.0000
  H   H587      1.0  0.16707  0.64915  0.24725  1.0000
  H   H588      1.0  0.46602  0.90924  0.40039  1.0000
  C   C372      1.0  0.16032  0.75308  0.38159  1.0000
  H   H589      1.0  0.05102  0.65918  0.44913  1.0000
  H   H590      1.0  0.30556  0.70109  0.31961  1.0000
  H   H591      1.0  0.28207  0.68931  0.32706  1.0000
  H   H592      1.0  0.28240  0.71413  0.33451  1.0000
  S   S118      1.0  0.99699  0.60863  0.34690  1.0000
  H   H593      1.0  0.15942  0.58831  0.29811  1.0000
  H   H594      1.0  0.32584  0.70403  0.28964  1.0000
  N   N25       1.0  0.11310  0.65500  0.39717  1.0000
  C   C373      1.0  0.11096  0.63244  0.40594  1.0000
  C   C374      1.0  0.13201  0.66003  0.40518  1.0000
  C   C375      1.0  0.11688  0.65693  0.37318  1.0000
  C   C376      1.0  0.09269  0.66830  0.40485  1.0000
  C   C377      1.0  0.09470  0.62280  0.39701  1.0000
  C   C378      1.0  0.13019  0.65890  0.42949  1.0000
  C   C379      1.0  0.09172  0.69222  0.39947  1.0000
  H   H595      1.0  0.12654  0.62218  0.40317  1.0000
  H   H596      1.0  0.10622  0.63045  0.42345  1.0000
  H   H597      1.0  0.13566  0.67590  0.39834  1.0000
  H   H598      1.0  0.10168  0.65764  0.36697  1.0000
  H   H599      1.0  0.07920  0.66464  0.39818  1.0000
  H   H600      1.0  0.08801  0.66440  0.42232  1.0000
  H   H601      1.0  0.09439  0.60644  0.40506  1.0000
  H   H602      1.0  0.07830  0.63110  0.40022  1.0000
  H   H603      1.0  0.09898  0.62202  0.37976  1.0000
  H   H604      1.0  0.12900  0.64289  0.43804  1.0000
  H   H605      1.0  0.14482  0.66330  0.43332  1.0000
  H   H606      1.0  0.11665  0.67004  0.43591  1.0000
  H   H607      1.0  0.11904  0.69088  0.36423  1.0000
  H   H608      1.0  0.08608  0.69807  0.38389  1.0000
  H   H609      1.0  0.10688  0.69777  0.39958  1.0000
  H   H610      1.0  0.08040  0.69969  0.41196  1.0000
  S   S119      1.0  0.35688  0.88007  0.47347  1.0000
  H   H611      1.0  0.04542  0.68799  0.29841  1.0000
  C   C380      1.0  0.05674  0.64268  0.44905  1.0000
  H   H612      1.0  0.13833  0.60957  0.31753  1.0000
  H   H613      1.0  0.48704  0.91052  0.36097  1.0000
  H   H614      1.0  0.33302  0.72965  0.28987  1.0000
  H   H615      1.0  0.14660  0.64929  0.39994  1.0000
  H   H616      1.0  0.18468  0.58191  0.28293  1.0000
  H   H617      1.0  0.37976  0.81537  0.43403  1.0000
  H   H618      1.0  0.23365  0.70685  0.24084  1.0000
  H   H619      1.0  0.02853  0.74397  0.31395  1.0000
  H   H620      1.0  0.27227  0.78770  0.46250  1.0000
  H   H621      1.0  0.09474  0.60451  0.46715  1.0000
  H   H622      1.0  0.45768  0.81570  0.34296  1.0000
  C   C381      1.0  0.47639  0.91205  0.41141  1.0000
  H   H623      1.0  0.16384  0.63183  0.30622  1.0000
  H   H624      1.0  0.12354  0.63647  0.24575  1.0000
  C   C382      1.0  0.17352  0.59503  0.28929  1.0000
  C   C383      1.0  0.47396  0.76850  0.32610  1.0000
  N   N26       1.0  0.37799  0.74237  0.36435  1.0000
  C   C384      1.0  0.37115  0.72245  0.37716  1.0000
  C   C385      1.0  0.39389  0.73624  0.34563  1.0000
  C   C386      1.0  0.35860  0.75559  0.35637  1.0000
  C   C387      1.0  0.38705  0.75352  0.37860  1.0000
  C   C388      1.0  0.35239  0.72516  0.39528  1.0000
  C   C389      1.0  0.41327  0.72012  0.35114  1.0000
  C   C390      1.0  0.36192  0.77641  0.34207  1.0000
  C   C391      1.0  0.40330  0.76825  0.36765  1.0000
  H   H625      1.0  0.36676  0.71257  0.36671  1.0000
  H   H626      1.0  0.38450  0.71262  0.38467  1.0000
  H   H627      1.0  0.40015  0.74988  0.33551  1.0000
  H   H628      1.0  0.38611  0.72945  0.33485  1.0000
  H   H629      1.0  0.35105  0.74651  0.34743  1.0000
  H   H630      1.0  0.34634  0.76002  0.36981  1.0000
  H   H631      1.0  0.37402  0.76269  0.38840  1.0000
  H   H632      1.0  0.39561  0.74184  0.39009  1.0000
  H   H633      1.0  0.35108  0.70980  0.40542  1.0000
  H   H634      1.0  0.35446  0.73633  0.40558  1.0000
  H   H635      1.0  0.33706  0.73013  0.38897  1.0000
  H   H636      1.0  0.40891  0.70411  0.35543  1.0000
  H   H637      1.0  0.42560  0.71978  0.33687  1.0000
  H   H638      1.0  0.42044  0.72395  0.36413  1.0000
  H   H639      1.0  0.36587  0.78771  0.35118  1.0000
  H   H640      1.0  0.34673  0.78358  0.33620  1.0000
  H   H641      1.0  0.37389  0.77448  0.32780  1.0000
  H   H642      1.0  0.40285  0.78039  0.37781  1.0000
  H   H643      1.0  0.40051  0.77655  0.35175  1.0000
  H   H644      1.0  0.41979  0.75975  0.36675  1.0000
  C   C392      1.0  0.02912  0.68920  0.29471  1.0000
  C   C393      1.0  0.18352  0.64960  0.28239  1.0000
  H   H645      1.0  0.12730  0.64274  0.36802  1.0000
  N   N27       1.0  0.38432  0.83886  0.39078  1.0000
  S   S120      1.0  0.16289  0.74085  0.25326  1.0000
  C   C394      1.0  0.12759  0.67552  0.36064  1.0000
  Fe  Fe61      1.0  0.12805  0.75381  0.25923  1.0000
  C   C395      1.0  0.19790  0.74466  0.38980  1.0000
  H   H646      1.0  0.19575  0.70260  0.25077  1.0000
  H   H647      1.0  0.14445  0.67394  0.36300  1.0000
  H   H648      1.0  0.16581  0.71352  0.37673  1.0000
  H   H649      1.0  0.02110  0.67571  0.32686  1.0000
  H   H650      1.0  0.18969  0.72197  0.46857  1.0000
  H   H651      1.0  0.15589  0.76643  0.39065  1.0000
  H   H652      1.0  0.18050  0.71528  0.41982  1.0000
  H   H653      1.0  0.38275  0.86897  0.37044  1.0000
  H   H654      1.0  0.18868  0.65613  0.29514  1.0000
  H   H655      1.0  0.15429  0.72072  0.41332  1.0000
  H   H656      1.0  0.29834  0.79265  0.47968  1.0000
  H   H657      1.0  0.47131  0.92858  0.41429  1.0000
  H   H658      1.0  0.02560  0.70348  0.28334  1.0000
  H   H659      1.0  0.30454  0.77504  0.30888  1.0000
  C   C396      1.0  0.03670  0.72797  0.31888  1.0000
  C   C397      1.0  0.16873  0.72798  0.41307  1.0000
  H   H660      1.0  0.24418  0.79344  0.46398  1.0000
  H   H661      1.0  0.33952  0.71755  0.26664  1.0000
  H   H662      1.0  0.15037  0.65588  0.29511  1.0000
  H   H663      1.0  0.14526  0.74650  0.38295  1.0000
  H   H664      1.0  0.48026  0.73370  0.27549  1.0000
  H   H665      1.0  0.16485  0.75136  0.34725  1.0000
  C   C398      1.0  0.29958  0.76861  0.29596  1.0000
  H   H666      1.0  0.03309  0.63841  0.43066  1.0000
  H   H667      1.0  0.28213  0.71235  0.47149  1.0000
  C   C399      1.0  0.39996  0.82507  0.40397  1.0000
  H   H668      1.0  0.09401  0.56588  0.48117  1.0000
  H   H669      1.0  0.01415  0.72404  0.34687  1.0000
  C   C400      1.0  0.44016  0.80128  0.32536  1.0000
  H   H670      1.0  0.20058  0.77795  0.37914  1.0000
  H   H671      1.0  0.42712  0.81407  0.32517  1.0000
  H   H672      1.0  0.40398  0.79831  0.42872  1.0000
  C   C401      1.0  0.45770  0.80239  0.33519  1.0000
  H   H673      1.0  0.20949  0.76770  0.40373  1.0000
  H   H674      1.0  0.27257  0.73430  0.24889  1.0000
  H   H675      1.0  0.20768  0.73420  0.40111  1.0000
  N   N28       1.0  0.15310  0.63121  0.27616  1.0000
  H   H676      1.0  0.03151  0.70081  0.34179  1.0000
  H   H677      1.0  0.45881  0.76636  0.26498  1.0000
  H   H678      1.0  0.18246  0.66252  0.26885  1.0000
  H   H679      1.0  0.24717  0.74854  0.25677  1.0000
  H   H680      1.0  0.41132  0.84439  0.35006  1.0000
  H   H681      1.0  0.42008  0.86718  0.35495  1.0000
  H   H682      1.0  0.42761  0.84283  0.37074  1.0000
  C   C402      1.0  0.19680  0.76733  0.39421  1.0000
  H   H683      1.0  0.40806  0.83448  0.41198  1.0000
  H   H684      1.0  0.15444  0.77665  0.35417  1.0000
  C   C403      1.0  0.39435  0.85740  0.37893  1.0000
  S   S121      1.0  0.35181  0.75742  0.24107  1.0000
  C   C404      1.0  0.16315  0.74339  0.42937  1.0000
  C   C405      1.0  0.48914  0.74699  0.26842  1.0000
  H   H685      1.0  0.23098  0.68675  0.48126  1.0000
  C   C406      1.0  0.41441  0.85230  0.36283  1.0000
  Fe  Fe62      1.0  0.48467  0.86448  0.35417  1.0000
  H   H686      1.0  0.19614  0.63673  0.27788  1.0000
  H   H687      1.0  0.28638  0.78018  0.29019  1.0000
  H   H688      1.0  0.39904  0.86616  0.39026  1.0000
  C   C407      1.0  0.16599  0.76243  0.35809  1.0000
  H   H689      1.0  0.17756  0.74889  0.43229  1.0000
  H   H690      1.0  0.31343  0.76740  0.28323  1.0000
  H   H691      1.0  0.18753  0.72442  0.36081  1.0000
  H   H692      1.0  0.01567  0.73391  0.25540  1.0000
  H   H693      1.0  0.41312  0.81665  0.39368  1.0000
  H   H694      1.0  0.37301  0.85048  0.34811  1.0000
  H   H695      1.0  0.38125  0.85297  0.42951  1.0000
  C   C408      1.0  0.36420  0.84681  0.40443  1.0000
  H   H696      1.0  0.20744  0.74406  0.37379  1.0000
  C   C409      1.0  0.36507  0.83816  0.35890  1.0000
  C   C410      1.0  0.37880  0.82609  0.37571  1.0000
  H   H697      1.0  0.15643  0.73500  0.44485  1.0000
  H   H698      1.0  0.34916  0.84499  0.36621  1.0000
  H   H699      1.0  0.00003  0.67981  0.31238  1.0000
  H   H700      1.0  0.35473  0.83407  0.41171  1.0000
  H   H701      1.0  0.25429  0.72310  0.27069  1.0000
  N   N29       1.0  0.17715  0.73669  0.39064  1.0000
  H   H702      1.0  0.36712  0.87594  0.41570  1.0000
  H   H703      1.0  0.39339  0.81794  0.36700  1.0000
  H   H704      1.0  0.04447  0.72083  0.30470  1.0000
  H   H705      1.0  0.35331  0.85772  0.39456  1.0000
  C   C411      1.0  0.36686  0.85910  0.42197  1.0000
  H   H706      1.0  0.36994  0.81340  0.38465  1.0000
  H   H707      1.0  0.35338  0.85761  0.43508  1.0000
  C   C412      1.0  0.26066  0.73762  0.26291  1.0000
  H   H708      1.0  0.36242  0.82708  0.34873  1.0000
  H   H709      1.0  0.18202  0.76714  0.35467  1.0000
  C   C413      1.0  0.02143  0.71451  0.33401  1.0000
  C   C414      1.0  0.19667  0.69957  0.38491  1.0000
  S   S122      1.0  0.11623  0.72406  0.25733  1.0000
  C   C415      1.0  0.39076  0.80827  0.42115  1.0000
  H   H710      1.0  0.11081  0.61546  0.31479  1.0000
  H   H711      1.0  0.48065  0.77822  0.25058  1.0000
  H   H712      1.0  0.20039  0.68922  0.37242  1.0000
  C   C416      1.0  0.18101  0.71901  0.37753  1.0000
  H   H713      1.0  0.12728  0.61297  0.27921  1.0000
  H   H714      1.0  0.21198  0.70366  0.38726  1.0000
  H   H715      1.0  0.38264  0.79789  0.41446  1.0000
  C   C417      1.0  0.01299  0.68761  0.31523  1.0000
  H   H716      1.0  0.00556  0.69025  0.36870  1.0000
  H   H717      1.0  0.18182  0.60097  0.30018  1.0000
  S   S123      1.0  0.41290  0.76371  0.24781  1.0000
  H   H718      1.0  0.25967  0.70279  0.46600  1.0000
  C   C418      1.0  0.16771  0.61178  0.27057  1.0000
  Fe  Fe63      1.0  0.99891  0.57972  0.37109  1.0000
  C   C419      1.0  0.13998  0.63940  0.23938  1.0000
  H   H719      1.0  0.47140  0.88135  0.43004  1.0000
  H   H720      1.0  0.11881  0.63972  0.28150  1.0000
  H   H721      1.0  0.25696  0.72849  0.47386  1.0000
  S   S124      1.0  0.48468  0.84593  0.32782  1.0000
  C   C420      1.0  0.48706  0.92603  0.36544  1.0000
  H   H722      1.0  0.47143  0.75730  0.24090  1.0000
  C   C421      1.0  0.12630  0.62147  0.31032  1.0000
  C   C422      1.0  0.47451  0.76305  0.25506  1.0000
  C   C423      1.0  0.13113  0.62626  0.28581  1.0000
  H   H723      1.0  0.48696  0.75572  0.32651  1.0000
  H   H724      1.0  0.25867  0.81403  0.46459  1.0000
  H   H725      1.0  0.02860  0.67608  0.28605  1.0000
  S   S125      1.0  0.08635  0.64895  0.47259  1.0000
  C   C424      1.0  0.15114  0.64626  0.25584  1.0000
  H   H726      1.0  0.00755  0.73047  0.29592  1.0000
  H   H727      1.0  0.14244  0.66181  0.25939  1.0000
  Fe  Fe64      1.0  0.33584  0.85482  0.48097  1.0000
  C   C425      1.0  0.25798  0.79717  0.47005  1.0000
  H   H728      1.0  0.17523  0.68854  0.47307  1.0000
  S   S126      1.0  0.11643  0.78423  0.23891  1.0000
  Fe  Fe65      1.0  0.38209  0.85350  0.48322  1.0000
  H   H729      1.0  0.08515  0.75650  0.24130  1.0000
  C   C426      1.0  0.20396  0.69958  0.23530  1.0000
  H   H730      1.0  0.33885  0.68363  0.23544  1.0000
  S   S127      1.0  0.14412  0.61877  0.48136  1.0000
  H   H731      1.0  0.47864  0.89931  0.44534  1.0000
  C   C427      1.0  0.26485  0.71203  0.47653  1.0000
  H   H732      1.0  0.99738  0.67063  0.35636  1.0000
  C   C428      1.0  0.99281  0.68637  0.36121  1.0000
  H   H733      1.0  0.07022  0.55571  0.48311  1.0000
  Fe  Fe66      1.0  0.34990  0.88338  0.50855  1.0000
  S   S128      1.0  0.37660  0.85853  0.51766  1.0000
  S   S129      1.0  0.33701  0.90987  0.52832  1.0000
  Fe  Fe67      1.0  0.35287  0.83622  0.52271  1.0000
  S   S130      1.0  0.34502  0.81768  0.55525  1.0000
  S   S131      1.0  0.32612  0.86101  0.51452  1.0000
  Fe  Fe68      1.0  0.13947  0.65928  0.52009  1.0000
  S   S132      1.0  0.16921  0.63691  0.51299  1.0000
  S   S133      1.0  0.13895  0.68483  0.54020  1.0000
  H   H734      1.0  0.29863  0.92556  0.68454  1.0000
  N   N30       1.0  0.24846  0.50861  0.71920  1.0000
  Fe  Fe69      1.0  0.14710  0.61312  0.51633  1.0000
  S   S134      1.0  0.15688  0.57984  0.53213  1.0000
  C   C429      1.0  0.21685  0.80191  0.72316  1.0000
  S   S135      1.0  0.11726  0.63504  0.52540  1.0000
  H   H735      1.0  0.23936  0.80140  0.50016  1.0000
  Fe  Fe70      1.0  0.26815  0.73682  0.58998  1.0000
  S   S136      1.0  0.23626  0.74612  0.57909  1.0000
  S   S137      1.0  0.29559  0.74040  0.56330  1.0000
  Fe  Fe71      1.0  0.24860  0.72369  0.63609  1.0000
  S   S138      1.0  0.21540  0.73222  0.62820  1.0000
  S   S139      1.0  0.24948  0.71426  0.67139  1.0000
  Fe  Fe72      1.0  0.22751  0.71644  0.59924  1.0000
  S   S140      1.0  0.21531  0.68913  0.58972  1.0000
  Fe  Fe73      1.0  0.22758  0.76087  0.60907  1.0000
  S   S141      1.0  0.21030  0.79376  0.60941  1.0000
  S   S142      1.0  0.26028  0.70605  0.60844  1.0000
  S   S143      1.0  0.25990  0.75341  0.61863  1.0000
  Fe  Fe74      1.0  0.12652  0.50541  0.64158  1.0000
  S   S144      1.0  0.10410  0.50040  0.67233  1.0000
  S   S145      1.0  0.11390  0.53462  0.61994  1.0000
  H   H736      1.0  0.22224  0.68664  0.53977  1.0000
  C   C430      1.0  0.22470  0.63401  0.67383  1.0000
  H   H737      1.0  0.31075  0.94564  0.64691  1.0000
  H   H738      1.0  0.40832  0.87103  0.55056  1.0000
  H   H739      1.0  0.21981  0.76327  0.65985  1.0000
  Fe  Fe75      1.0  0.13341  0.49635  0.68815  1.0000
  S   S146      1.0  0.13607  0.51073  0.71723  1.0000
  H   H740      1.0  0.20812  0.63543  0.68237  1.0000
  S   S147      1.0  0.15515  0.50332  0.65782  1.0000
  C   C431      1.0  0.38651  0.84531  0.57924  1.0000
  H   H741      1.0  0.28388  0.84253  0.51628  1.0000
  C   C432      1.0  0.28909  0.82596  0.51386  1.0000
  Fe  Fe76      1.0  0.37750  0.96529  0.64828  1.0000
  S   S148      1.0  0.37471  0.93654  0.67309  1.0000
  Fe  Fe77      1.0  0.28914  0.86463  0.68591  1.0000
  S   S149      1.0  0.25728  0.88463  0.68880  1.0000
  S   S150      1.0  0.31316  0.87607  0.65832  1.0000
  Fe  Fe78      1.0  0.24403  0.85443  0.69293  1.0000
  S   S151      1.0  0.21636  0.85184  0.67688  1.0000
  S   S152      1.0  0.27573  0.83487  0.68730  1.0000
  C   C433      1.0  0.35802  0.91936  0.66886  1.0000
  C   C434      1.0  0.35262  0.91974  0.64872  1.0000
  C   C435      1.0  0.33883  0.90645  0.64573  1.0000
  C   C436      1.0  0.33016  0.89274  0.66286  1.0000
  C   C437      1.0  0.33550  0.89235  0.68306  1.0000
  C   C438      1.0  0.34958  0.90545  0.68599  1.0000
  H   H742      1.0  0.35922  0.93015  0.63536  1.0000
  H   H743      1.0  0.33456  0.90714  0.63013  1.0000
  N   N31       1.0  0.38481  0.88124  0.59220  1.0000
  H   H744      1.0  0.40842  0.89180  0.63383  1.0000
  H   H745      1.0  0.25517  0.65871  0.53094  1.0000
  H   H746      1.0  0.28439  0.75751  0.48687  1.0000
  C   C439      1.0  0.10433  0.58409  0.64775  1.0000
  H   H747      1.0  0.13288  0.60545  0.66282  1.0000
  H   H748      1.0  0.19071  0.73180  0.50953  1.0000
  H   H749      1.0  0.24876  0.61921  0.63862  1.0000
  S   S153      1.0  0.27961  0.61930  0.70597  1.0000
  C   C440      1.0  0.17199  0.52965  0.70086  1.0000
  H   H750      1.0  0.17339  0.52163  0.68731  1.0000
  C   C441      1.0  0.24861  0.79908  0.54181  1.0000
  C   C442      1.0  0.25826  0.68796  0.68090  1.0000
  C   C443      1.0  0.24952  0.67922  0.70121  1.0000
  C   C444      1.0  0.25591  0.65814  0.70903  1.0000
  C   C445      1.0  0.27144  0.64582  0.69675  1.0000
  C   C446      1.0  0.28047  0.65469  0.67661  1.0000
  C   C447      1.0  0.27379  0.67567  0.66861  1.0000
  H   H751      1.0  0.23751  0.68867  0.71077  1.0000
  S   S154      1.0  0.38363  0.96812  0.56936  1.0000
  H   H752      1.0  0.28077  0.68238  0.65303  1.0000
  C   C448      1.0  0.21353  0.80947  0.62801  1.0000
  C   C449      1.0  0.23141  0.80604  0.63858  1.0000
  C   C450      1.0  0.23298  0.81922  0.65329  1.0000
  C   C451      1.0  0.21653  0.83561  0.65762  1.0000
  C   C452      1.0  0.19891  0.83896  0.64689  1.0000
  C   C453      1.0  0.19753  0.82617  0.63206  1.0000
  H   H753      1.0  0.24399  0.79335  0.63537  1.0000
  H   H754      1.0  0.24669  0.81657  0.66145  1.0000
  H   H755      1.0  0.18613  0.85156  0.65011  1.0000
  H   H756      1.0  0.18374  0.82904  0.62394  1.0000
  C   C454      1.0  0.14648  0.56861  0.55792  1.0000
  C   C455      1.0  0.12885  0.57884  0.56982  1.0000
  C   C456      1.0  0.11927  0.56825  0.58895  1.0000
  C   C457      1.0  0.12760  0.54763  0.59669  1.0000
  C   C458      1.0  0.14581  0.53775  0.58530  1.0000
  C   C459      1.0  0.15508  0.54815  0.56589  1.0000
  H   H757      1.0  0.12206  0.59456  0.56383  1.0000
  H   H758      1.0  0.10504  0.57593  0.59754  1.0000
  H   H759      1.0  0.15235  0.52187  0.59107  1.0000
  H   H760      1.0  0.16874  0.54012  0.55678  1.0000
  C   C460      1.0  0.16001  0.68580  0.55432  1.0000
  C   C461      1.0  0.17546  0.66842  0.55830  1.0000
  C   C462      1.0  0.19189  0.66965  0.56963  1.0000
  C   C463      1.0  0.19339  0.68838  0.57675  1.0000
  C   C464      1.0  0.17789  0.70575  0.57293  1.0000
  C   C465      1.0  0.16118  0.70438  0.56193  1.0000
  H   H761      1.0  0.17463  0.65396  0.55279  1.0000
  H   H762      1.0  0.20375  0.65609  0.57254  1.0000
  H   H763      1.0  0.17876  0.72023  0.57841  1.0000
  H   H764      1.0  0.14921  0.71786  0.55908  1.0000
  C   C466      1.0  0.35064  0.92526  0.54001  1.0000
  C   C467      1.0  0.37058  0.93046  0.53070  1.0000
  C   C468      1.0  0.38035  0.94361  0.53992  1.0000
  C   C469      1.0  0.37052  0.95146  0.55873  1.0000
  C   C470      1.0  0.35071  0.94601  0.56824  1.0000
  C   C471      1.0  0.34070  0.93325  0.55873  1.0000
  H   H765      1.0  0.37824  0.92477  0.51610  1.0000
  H   H766      1.0  0.39560  0.94786  0.53235  1.0000
  H   H767      1.0  0.34286  0.95208  0.58259  1.0000
  H   H768      1.0  0.32512  0.92961  0.56587  1.0000
  C   C472      1.0  0.30975  0.76151  0.56151  1.0000
  C   C473      1.0  0.32283  0.76751  0.54248  1.0000
  C   C474      1.0  0.33321  0.78512  0.54011  1.0000
  C   C475      1.0  0.33146  0.79615  0.55719  1.0000
  C   C476      1.0  0.31903  0.78968  0.57645  1.0000
  C   C477      1.0  0.30780  0.77275  0.57846  1.0000
  H   H769      1.0  0.32480  0.75860  0.52948  1.0000
  H   H770      1.0  0.34308  0.78977  0.52533  1.0000
  H   H771      1.0  0.31812  0.79779  0.58985  1.0000
  H   H772      1.0  0.29809  0.76807  0.59329  1.0000
  H   H773      1.0  0.11629  0.60222  0.61722  1.0000
  C   C478      1.0  0.21105  0.79055  0.70624  1.0000
  H   H774      1.0  0.23351  0.79964  0.53564  1.0000
  H   H775      1.0  0.25952  0.63984  0.64494  1.0000
  H   H776      1.0  0.20942  0.66274  0.49646  1.0000
  H   H777      1.0  0.19714  0.60940  0.65448  1.0000
  H   H778      1.0  0.27258  0.93805  0.68162  1.0000
  C   C479      1.0  0.39878  0.88664  0.55167  1.0000
  C   C480      1.0  0.36154  0.88623  0.58983  1.0000
  H   H779      1.0  0.23116  0.60523  0.69551  1.0000
  H   H780      1.0  0.23352  0.64231  0.68233  1.0000
  C   C481      1.0  0.39292  0.85811  0.59464  1.0000
  H   H781      1.0  0.24993  0.66670  0.55674  1.0000
  C   C482      1.0  0.26761  0.78705  0.52876  1.0000
  H   H782      1.0  0.13954  0.56410  0.49951  1.0000
  H   H783      1.0  0.19134  0.64565  0.65219  1.0000
  H   H784      1.0  0.26238  0.54952  0.67910  1.0000
  N   N32       1.0  0.22522  0.64405  0.65085  1.0000
  N   N33       1.0  0.12358  0.57629  0.65889  1.0000
  H   H785      1.0  0.25209  0.60877  0.67415  1.0000
  H   H786      1.0  0.21346  0.80073  0.69067  1.0000
  S   S155      1.0  0.35089  0.97452  0.62884  1.0000
  H   H787      1.0  0.08050  0.53885  0.57757  1.0000
  N   N34       1.0  0.22234  0.76860  0.70451  1.0000
  C   C483      1.0  0.20894  0.75740  0.69442  1.0000
  H   H788      1.0  0.30512  0.82457  0.50422  1.0000
  C   C484      1.0  0.20529  0.76657  0.67142  1.0000
  S   S156      1.0  0.36112  0.82822  0.48951  1.0000
  H   H789      1.0  0.34279  0.97196  0.69193  1.0000
  C   C485      1.0  0.29440  0.94261  0.65333  1.0000
  H   H790      1.0  0.19302  0.75886  0.66694  1.0000
  H   H791      1.0  0.27511  0.77731  0.68649  1.0000
  H   H792      1.0  0.21595  0.74064  0.69437  1.0000
  H   H793      1.0  0.26409  0.77211  0.71368  1.0000
  H   H794      1.0  0.22657  0.48744  0.71846  1.0000
  C   C486      1.0  0.28412  0.95475  0.71103  1.0000
  H   H795      1.0  0.26520  0.71358  0.50955  1.0000
  C   C487      1.0  0.21784  0.66656  0.50863  1.0000
  H   H796      1.0  0.19736  0.71208  0.53078  1.0000
  H   H797      1.0  0.22370  0.72187  0.48689  1.0000
  C   C488      1.0  0.14266  0.57383  0.64190  1.0000
  H   H798      1.0  0.40087  0.83806  0.56949  1.0000
  S   S157      1.0  0.29098  0.85947  0.72085  1.0000
  H   H799      1.0  0.09804  0.56708  0.69819  1.0000
  H   H800      1.0  0.27066  0.53079  0.71414  1.0000
  H   H801      1.0  0.38305  0.88726  0.54685  1.0000
  H   H802      1.0  0.30613  0.78763  0.50506  1.0000
  H   H803      1.0  0.19942  0.78359  0.66957  1.0000
  C   C489      1.0  0.25050  0.54053  0.68953  1.0000
  H   H804      1.0  0.09675  0.56796  0.55531  1.0000
  C   C490      1.0  0.07939  0.59783  0.51631  1.0000
  H   H805      1.0  0.16410  0.54896  0.65871  1.0000
  N   N35       1.0  0.28319  0.85200  0.59997  1.0000
  C   C491      1.0  0.28894  0.87283  0.58855  1.0000
  C   C492      1.0  0.26241  0.85638  0.61429  1.0000
  C   C493      1.0  0.28065  0.83919  0.58340  1.0000
  C   C494      1.0  0.30100  0.84151  0.61231  1.0000
  C   C495      1.0  0.30761  0.87184  0.57011  1.0000
  C   C496      1.0  0.26237  0.87025  0.63136  1.0000
  C   C497      1.0  0.26571  0.82243  0.59018  1.0000
  C   C498      1.0  0.29692  0.82197  0.62851  1.0000
  H   H806      1.0  0.27506  0.88258  0.58176  1.0000
  H   H807      1.0  0.29319  0.88209  0.59971  1.0000
  H   H808      1.0  0.25695  0.84173  0.62286  1.0000
  H   H809      1.0  0.24962  0.86399  0.60468  1.0000
  H   H810      1.0  0.27401  0.84952  0.56975  1.0000
  H   H811      1.0  0.29639  0.83141  0.57642  1.0000
  H   H812      1.0  0.31563  0.83666  0.60140  1.0000
  H   H813      1.0  0.30539  0.85273  0.62139  1.0000
  H   H814      1.0  0.30315  0.86661  0.55628  1.0000
  H   H815      1.0  0.31180  0.88781  0.56464  1.0000
  H   H816      1.0  0.32212  0.86164  0.57469  1.0000
  H   H817      1.0  0.24668  0.87115  0.64164  1.0000
  H   H818      1.0  0.27451  0.86370  0.64189  1.0000
  H   H819      1.0  0.26442  0.88654  0.62429  1.0000
  H   H820      1.0  0.26794  0.81236  0.57755  1.0000
  H   H821      1.0  0.24878  0.82977  0.59202  1.0000
  H   H822      1.0  0.26865  0.81197  0.60498  1.0000
  H   H823      1.0  0.28293  0.82508  0.64068  1.0000
  H   H824      1.0  0.31081  0.81692  0.63721  1.0000
  H   H825      1.0  0.29551  0.80864  0.62076  1.0000
  C   C499      1.0  0.28944  0.94055  0.67784  1.0000
  H   H826      1.0  0.35373  0.90500  0.70162  1.0000
  C   C500      1.0  0.26214  0.52317  0.70464  1.0000
  H   H827      1.0  0.29259  0.64525  0.66712  1.0000
  C   C501      1.0  0.11818  0.54538  0.52258  1.0000
  C   C502      1.0  0.23790  0.69078  0.53232  1.0000
  H   H828      1.0  0.08975  0.58700  0.65943  1.0000
  H   H829      1.0  0.25691  0.82813  0.50671  1.0000
  C   C503      1.0  0.22345  0.71690  0.50424  1.0000
  H   H830      1.0  0.14801  0.53673  0.50274  1.0000
  H   H831      1.0  0.28299  0.95498  0.64559  1.0000
  H   H832      1.0  0.24664  0.79084  0.55842  1.0000
  H   H833      1.0  0.08352  0.61347  0.50895  1.0000
  C   C504      1.0  0.18417  0.55476  0.71837  1.0000
  H   H834      1.0  0.19356  0.79054  0.71001  1.0000
  C   C505      1.0  0.32525  0.97574  0.69268  1.0000
  C   C506      1.0  0.10506  0.60460  0.63195  1.0000
  C   C507      1.0  0.24356  0.76874  0.69050  1.0000
  H   H835      1.0  0.26442  0.77062  0.53077  1.0000
  H   H836      1.0  0.24168  0.77707  0.67434  1.0000
  H   H837      1.0  0.29043  0.81717  0.52990  1.0000
  H   H838      1.0  0.10132  0.53941  0.69856  1.0000
  H   H839      1.0  0.24993  0.66888  0.49458  1.0000
  C   C508      1.0  0.08562  0.55283  0.48940  1.0000
  H   H840      1.0  0.27497  0.51468  0.69425  1.0000
  H   H841      1.0  0.28165  0.78592  0.53686  1.0000
  C   C509      1.0  0.28310  0.48146  0.72008  1.0000
  H   H842      1.0  0.24218  0.53407  0.67903  1.0000
  C   C510      1.0  0.23481  0.49948  0.70749  1.0000
  N   N36       1.0  0.23894  0.69720  0.50863  1.0000
  H   H843      1.0  0.27043  0.67681  0.53767  1.0000
  S   S158      1.0  0.24150  0.84973  0.72864  1.0000
  H   H844      1.0  0.10497  0.52928  0.56285  1.0000
  H   H845      1.0  0.29304  0.75291  0.51283  1.0000
  C   C511      1.0  0.26099  0.70246  0.50021  1.0000
  H   H846      1.0  0.19280  0.75731  0.70375  1.0000
  H   H847      1.0  0.20756  0.67213  0.68225  1.0000
  N   N37       1.0  0.09696  0.55940  0.52427  1.0000
  H   H848      1.0  0.08914  0.60994  0.62695  1.0000
  H   H849      1.0  0.41759  0.87054  0.61911  1.0000
  C   C512      1.0  0.38705  0.88964  0.61202  1.0000
  H   H850      1.0  0.25498  0.79630  0.69714  1.0000
  H   H851      1.0  0.08030  0.53483  0.52008  1.0000
  H   H852      1.0  0.34777  0.85701  0.60052  1.0000
  C   C513      1.0  0.24896  0.64562  0.61423  1.0000
  H   H853      1.0  0.19008  0.67663  0.66211  1.0000
  H   H854      1.0  0.24994  0.66257  0.61184  1.0000
  C   C514      1.0  0.31706  0.95746  0.68609  1.0000
  H   H855      1.0  0.39141  0.91017  0.57248  1.0000
  C   C515      1.0  0.16418  0.56474  0.64936  1.0000
  H   H856      1.0  0.10129  0.57201  0.63888  1.0000
  C   C516      1.0  0.13371  0.54880  0.50173  1.0000
  H   H857      1.0  0.26765  0.97705  0.67234  1.0000
  H   H858      1.0  0.32905  0.88174  0.69638  1.0000
  C   C517      1.0  0.25443  0.67212  0.53952  1.0000
  H   H859      1.0  0.37842  0.83221  0.58839  1.0000
  H   H860      1.0  0.23973  0.70417  0.54012  1.0000
  H   H861      1.0  0.22045  0.60860  0.63441  1.0000
  H   H862      1.0  0.22789  0.60043  0.67009  1.0000
  N   N38       1.0  0.27218  0.79582  0.50553  1.0000
  H   H863      1.0  0.37737  0.88218  0.62627  1.0000
  H   H864      1.0  0.23625  0.64275  0.60600  1.0000
  H   H865      1.0  0.20713  0.69502  0.66305  1.0000
  H   H866      1.0  0.26426  0.63797  0.60633  1.0000
  H   H867      1.0  0.23464  0.74010  0.72358  1.0000
  H   H868      1.0  0.20450  0.65050  0.62636  1.0000
  H   H869      1.0  0.34990  0.87018  0.62206  1.0000
  H   H870      1.0  0.07125  0.56656  0.54973  1.0000
  H   H871      1.0  0.22814  0.73004  0.51043  1.0000
  H   H872      1.0  0.32384  0.94285  0.69574  1.0000
  H   H873      1.0  0.19543  0.61799  0.62662  1.0000
  C   C518      1.0  0.18577  0.54413  0.70088  1.0000
  C   C519      1.0  0.24604  0.63642  0.63800  1.0000
  H   H874      1.0  0.41058  0.85543  0.59281  1.0000
  C   C520      1.0  0.24594  0.48871  0.68825  1.0000
  H   H875      1.0  0.19736  0.54751  0.68704  1.0000
  C   C521      1.0  0.20629  0.64042  0.64191  1.0000
  H   H876      1.0  0.22197  0.67580  0.63377  1.0000
  C   C522      1.0  0.22401  0.66740  0.64995  1.0000
  C   C523      1.0  0.40964  0.88698  0.61790  1.0000
  H   H877      1.0  0.25104  0.75247  0.68835  1.0000
  H   H878      1.0  0.32499  0.95654  0.66959  1.0000
  H   H879      1.0  0.23913  0.67123  0.65317  1.0000
  H   H880      1.0  0.22145  0.51132  0.70227  1.0000
  H   H881      1.0  0.29264  0.92764  0.64840  1.0000
  H   H882      1.0  0.06482  0.55948  0.51811  1.0000
  C   C524      1.0  0.20603  0.67804  0.66534  1.0000
  S   S159      1.0  0.25273  0.57146  0.73106  1.0000
  C   C525      1.0  0.08808  0.55886  0.54759  1.0000
  H   H883      1.0  0.35857  0.88530  0.57365  1.0000
  H   H884      1.0  0.10943  0.59906  0.67972  1.0000
  C   C526      1.0  0.12552  0.59215  0.67264  1.0000
  H   H885      1.0  0.17633  0.56287  0.63513  1.0000
  C   C527      1.0  0.23451  0.61078  0.67821  1.0000
  H   H886      1.0  0.07998  0.52661  0.55501  1.0000
  C   C528      1.0  0.20495  0.61773  0.63950  1.0000
  H   H887      1.0  0.07180  0.59938  0.53281  1.0000
  H   H888      1.0  0.41439  0.89152  0.57615  1.0000
  H   H889      1.0  0.06787  0.59422  0.50704  1.0000
  H   H890      1.0  0.12713  0.54721  0.53527  1.0000
  C   C529      1.0  0.15590  0.52622  0.71799  1.0000
  C   C530      1.0  0.26009  0.77923  0.69776  1.0000
  C   C531      1.0  0.34678  0.87255  0.60544  1.0000
  H   H891      1.0  0.11101  0.58705  0.52420  1.0000
  H   H892      1.0  0.27312  0.68825  0.50202  1.0000
  H   H893      1.0  0.25179  0.97267  0.70914  1.0000
  H   H894      1.0  0.22391  0.53451  0.72655  1.0000
  C   C532      1.0  0.27284  0.81900  0.50250  1.0000
  C   C533      1.0  0.39756  0.89312  0.57373  1.0000
  H   H895      1.0  0.20546  0.67382  0.52024  1.0000
  H   H896      1.0  0.25917  0.49628  0.67873  1.0000
  H   H897      1.0  0.25125  0.81515  0.54269  1.0000
  H   H898      1.0  0.24891  0.65144  0.72460  1.0000
  C   C534      1.0  0.08851  0.53701  0.56119  1.0000
  H   H899      1.0  0.38088  0.90672  0.61072  1.0000
  C   C535      1.0  0.13799  0.58418  0.69163  1.0000
  C   C536      1.0  0.19994  0.71604  0.51330  1.0000
  H   H900      1.0  0.41973  0.89741  0.60686  1.0000
  C   C537      1.0  0.10021  0.55470  0.68799  1.0000
  H   H901      1.0  0.21646  0.81876  0.71664  1.0000
  H   H902      1.0  0.22523  0.65124  0.51639  1.0000
  H   H903      1.0  0.14002  0.56367  0.63070  1.0000
  H   H904      1.0  0.10757  0.58351  0.49878  1.0000
  H   H905      1.0  0.35545  0.90287  0.59173  1.0000
  H   H906      1.0  0.16955  0.57548  0.65815  1.0000
  Fe  Fe79      1.0  0.27423  0.83161  0.72280  1.0000
  H   H907      1.0  0.29025  0.93858  0.71824  1.0000
  H   H908      1.0  0.38764  0.85057  0.61110  1.0000
  C   C538      1.0  0.08132  0.55156  0.51379  1.0000
  H   H909      1.0  0.08591  0.55592  0.68019  1.0000
  H   H910      1.0  0.37581  0.85431  0.56817  1.0000
  C   C539      1.0  0.09986  0.58175  0.51552  1.0000
  Fe  Fe80      1.0  0.11564  0.64221  0.48998  1.0000
  H   H911      1.0  0.13396  0.54796  0.68007  1.0000
  H   H912      1.0  0.40717  0.89782  0.53962  1.0000
  H   H913      1.0  0.14975  0.57011  0.68993  1.0000
  Fe  Fe81      1.0  0.25811  0.87801  0.72394  1.0000
  H   H914      1.0  0.33013  0.88036  0.60543  1.0000
  Fe  Fe82      1.0  0.25821  0.60365  0.73316  1.0000
  H   H915      1.0  0.10901  0.61737  0.63912  1.0000
  H   H916      1.0  0.19301  0.70533  0.50581  1.0000
  S   S160      1.0  0.19898  0.57567  0.71596  1.0000
  H   H917      1.0  0.12004  0.54382  0.66057  1.0000
  H   H918      1.0  0.12699  0.58138  0.70672  1.0000
  N   N39       1.0  0.29330  0.95858  0.68780  1.0000
  H   H919      1.0  0.14691  0.59654  0.69380  1.0000
  C   C540      1.0  0.23505  0.68012  0.49736  1.0000
  H   H920      1.0  0.14518  0.58913  0.63216  1.0000
  H   H921      1.0  0.11596  0.52861  0.52532  1.0000
  H   H922      1.0  0.23913  0.55196  0.69811  1.0000
  C   C541      1.0  0.12049  0.55513  0.67147  1.0000
  S   S161      1.0  0.40383  0.96962  0.62085  1.0000
  H   H923      1.0  0.29519  0.49221  0.71689  1.0000
  H   H924      1.0  0.23434  0.48960  0.67712  1.0000
  H   H925      1.0  0.31179  0.75565  0.48918  1.0000
  C   C542      1.0  0.22562  0.75588  0.72578  1.0000
  H   H926      1.0  0.25185  0.77541  0.49868  1.0000
  S   S162      1.0  0.13471  0.66878  0.48580  1.0000
  C   C543      1.0  0.26203  0.49155  0.73190  1.0000
  H   H927      1.0  0.25306  0.94466  0.71107  1.0000
  H   H928      1.0  0.28946  0.96492  0.72045  1.0000
  H   H929      1.0  0.23270  0.79651  0.72801  1.0000
  C   C544      1.0  0.25964  0.95727  0.71607  1.0000
  H   H930      1.0  0.12710  0.54719  0.48753  1.0000
  C   C545      1.0  0.29353  0.78528  0.49629  1.0000
  C   C546      1.0  0.29544  0.76149  0.49643  1.0000
  C   C547      1.0  0.25470  0.79199  0.49453  1.0000
  H   H931      1.0  0.23558  0.76286  0.73417  1.0000
  H   H932      1.0  0.27713  0.82501  0.48538  1.0000
  H   H933      1.0  0.09464  0.53791  0.48470  1.0000
  H   H934      1.0  0.31885  0.97842  0.70916  1.0000
  H   H935      1.0  0.25498  0.95593  0.73358  1.0000
  C   C548      1.0  0.28339  0.97886  0.67609  1.0000
  H   H936      1.0  0.29821  0.59709  0.91505  1.0000
  H   H937      1.0  0.34266  0.57763  0.82035  1.0000
  C   C549      1.0  0.26887  0.75651  0.96415  1.0000
  Fe  Fe83      1.0  0.37808  0.64652  0.96039  1.0000
  H   H938      1.0  0.26985  0.64765  0.94243  1.0000
  S   S163      1.0  0.38052  0.66864  0.92957  1.0000
  H   H939      1.0  0.24343  0.52850  0.74377  1.0000
  H   H940      1.0  0.24756  0.81846  0.83828  1.0000
  S   S164      1.0  0.35685  0.57491  0.96267  1.0000
  H   H941      1.0  0.24269  0.93583  0.77085  1.0000
  S   S165      1.0  0.39778  0.61468  0.96608  1.0000
  H   H942      1.0  0.32891  0.56172  0.79934  1.0000
  Fe  Fe84      1.0  0.27233  0.72134  0.89251  1.0000
  S   S166      1.0  0.25488  0.69390  0.89654  1.0000
  S   S167      1.0  0.29062  0.72287  0.91892  1.0000
  Fe  Fe85      1.0  0.24931  0.74461  0.85558  1.0000
  S   S168      1.0  0.23018  0.71875  0.85706  1.0000
  S   S169      1.0  0.23974  0.77550  0.83527  1.0000
  Fe  Fe86      1.0  0.22621  0.71792  0.89244  1.0000
  S   S170      1.0  0.19454  0.71488  0.91240  1.0000
  Fe  Fe87      1.0  0.26072  0.69716  0.86090  1.0000
  S   S171      1.0  0.27374  0.66844  0.84468  1.0000
  S   S172      1.0  0.24298  0.74517  0.89079  1.0000
  S   S173      1.0  0.28054  0.72323  0.85693  1.0000
  H   H943      1.0  0.32051  0.67831  0.76379  1.0000
  S   S174      1.0  0.34650  0.50884  0.84490  1.0000
  S   S175      1.0  0.29299  0.50104  0.87041  1.0000
  Fe  Fe88      1.0  0.36913  0.50617  0.86842  1.0000
  S   S176      1.0  0.37921  0.53619  0.87500  1.0000
  C   C550      1.0  0.33880  0.57091  0.83731  1.0000
  H   H944      1.0  0.32557  0.69376  0.78239  1.0000
  H   H945      1.0  0.23037  0.94377  0.87216  1.0000
  H   H946      1.0  0.26208  0.48645  0.82228  1.0000
  C   C551      1.0  0.16903  0.55029  0.73611  1.0000
  Fe  Fe89      1.0  0.25448  0.56392  0.76597  1.0000
  S   S177      1.0  0.21938  0.57313  0.77525  1.0000
  S   S178      1.0  0.27309  0.53219  0.77600  1.0000
  H   H947      1.0  0.30316  0.71638  0.75637  1.0000
  Fe  Fe90      1.0  0.16755  0.95742  0.82380  1.0000
  Fe  Fe91      1.0  0.22862  0.60517  0.77441  1.0000
  S   S179      1.0  0.21517  0.62764  0.79820  1.0000
  H   H948      1.0  0.27314  0.48367  0.78823  1.0000
  S   S180      1.0  0.26381  0.59515  0.76717  1.0000
  H   H949      1.0  0.22454  0.88441  0.85223  1.0000
  H   H950      1.0  0.30274  0.55814  0.79740  1.0000
  C   C552      1.0  0.27309  0.73377  0.75020  1.0000
  H   H951      1.0  0.22459  0.49661  0.81895  1.0000
  H   H952      1.0  0.22301  0.89277  0.80379  1.0000
  C   C553      1.0  0.10514  0.90971  0.97451  1.0000
  C   C554      1.0  0.19285  0.90954  0.77368  1.0000
  C   C555      1.0  0.21149  0.90338  0.76004  1.0000
  H   H953      1.0  0.19530  0.87646  0.80682  1.0000
  H   H954      1.0  0.17894  0.90215  0.77450  1.0000
  H   H955      1.0  0.21188  0.89135  0.75036  1.0000
  S   S181      1.0  0.22361  0.61551  0.74024  1.0000
  H   H956      1.0  0.29083  0.61411  0.94707  1.0000
  H   H957      1.0  0.08142  0.88152  0.97786  1.0000
  C   C556      1.0  0.24606  0.97134  0.85772  1.0000
  H   H958      1.0  0.25202  0.68450  0.79118  1.0000
  H   H959      1.0  0.25361  0.73039  0.79571  1.0000
  H   H960      1.0  0.16745  0.55851  0.74960  1.0000
  C   C557      1.0  0.16668  0.88951  0.91007  1.0000
  C   C558      1.0  0.28711  0.50974  0.84426  1.0000
  C   C559      1.0  0.30105  0.50300  0.82686  1.0000
  C   C560      1.0  0.29665  0.51022  0.80609  1.0000
  C   C561      1.0  0.27842  0.52454  0.80238  1.0000
  C   C562      1.0  0.26439  0.53138  0.81972  1.0000
  C   C563      1.0  0.26856  0.52372  0.84062  1.0000
  H   H961      1.0  0.28788  0.72652  0.77872  1.0000
  H   H962      1.0  0.30752  0.50468  0.79282  1.0000
  H   H963      1.0  0.25012  0.54221  0.81704  1.0000
  H   H964      1.0  0.25753  0.52884  0.85397  1.0000
  H   H965      1.0  0.18191  0.85673  0.82248  1.0000
  C   C564      1.0  0.28673  0.71846  0.76519  1.0000
  C   C565      1.0  0.21015  0.93465  0.78518  1.0000
  C   C566      1.0  0.25161  0.78081  0.80862  1.0000
  C   C567      1.0  0.27060  0.76909  0.80064  1.0000
  C   C568      1.0  0.28027  0.77478  0.77966  1.0000
  C   C569      1.0  0.27106  0.79219  0.76662  1.0000
  C   C570      1.0  0.25181  0.80350  0.77447  1.0000
  C   C571      1.0  0.24211  0.79779  0.79537  1.0000
  H   H966      1.0  0.27810  0.75604  0.81079  1.0000
  H   H967      1.0  0.29523  0.76602  0.77368  1.0000
  H   H968      1.0  0.24437  0.81665  0.76446  1.0000
  H   H969      1.0  0.22720  0.80661  0.80131  1.0000
  C   C572      1.0  0.25705  0.65695  0.83243  1.0000
  C   C573      1.0  0.23529  0.66418  0.83345  1.0000
  C   C574      1.0  0.22266  0.65501  0.82295  1.0000
  C   C575      1.0  0.23165  0.63863  0.81125  1.0000
  C   C576      1.0  0.25342  0.63140  0.81029  1.0000
  C   C577      1.0  0.26602  0.64049  0.82087  1.0000
  H   H970      1.0  0.22813  0.67677  0.84239  1.0000
  H   H971      1.0  0.20580  0.66061  0.82392  1.0000
  H   H972      1.0  0.26053  0.61874  0.80151  1.0000
  H   H973      1.0  0.28285  0.63496  0.81980  1.0000
  C   C578      1.0  0.17187  0.88167  0.93053  1.0000
  C   C579      1.0  0.17848  0.89509  0.94193  1.0000
  C   C580      1.0  0.31194  0.56636  0.80555  1.0000
  C   C581      1.0  0.17957  0.91617  0.93302  1.0000
  H   H974      1.0  0.27838  0.85496  0.79299  1.0000
  C   C582      1.0  0.16642  0.74984  0.96877  1.0000
  C   C583      1.0  0.15554  0.73594  0.96231  1.0000
  C   C584      1.0  0.16462  0.72525  0.94523  1.0000
  C   C585      1.0  0.18488  0.72799  0.93457  1.0000
  C   C586      1.0  0.19626  0.74142  0.94136  1.0000
  C   C587      1.0  0.18690  0.75255  0.95835  1.0000
  H   H975      1.0  0.25674  0.73820  0.75818  1.0000
  H   H976      1.0  0.15578  0.71484  0.94018  1.0000
  H   H977      1.0  0.21204  0.74344  0.93335  1.0000
  H   H978      1.0  0.28967  0.56016  0.83343  1.0000
  C   C588      1.0  0.36277  0.56511  0.93776  1.0000
  C   C589      1.0  0.35451  0.54712  0.93584  1.0000
  C   C590      1.0  0.35929  0.53818  0.91684  1.0000
  C   C591      1.0  0.37247  0.54709  0.89934  1.0000
  C   C592      1.0  0.38048  0.56531  0.90113  1.0000
  C   C593      1.0  0.37571  0.57426  0.92018  1.0000
  H   H979      1.0  0.34446  0.53986  0.94924  1.0000
  H   H980      1.0  0.35288  0.52427  0.91584  1.0000
  H   H981      1.0  0.39064  0.57244  0.88774  1.0000
  H   H982      1.0  0.38222  0.58810  0.92129  1.0000
  H   H983      1.0  0.16151  0.87932  0.90110  1.0000
  C   C594      1.0  0.35594  0.68446  0.92630  1.0000
  C   C595      1.0  0.34125  0.68900  0.94408  1.0000
  C   C596      1.0  0.32146  0.70111  0.94149  1.0000
  C   C597      1.0  0.31586  0.70812  0.92115  1.0000
  C   C598      1.0  0.33052  0.70367  0.90329  1.0000
  C   C599      1.0  0.35066  0.69209  0.90588  1.0000
  H   H984      1.0  0.34522  0.68337  0.95988  1.0000
  H   H985      1.0  0.31033  0.70473  0.95536  1.0000
  H   H986      1.0  0.32645  0.70935  0.88753  1.0000
  H   H987      1.0  0.36202  0.68873  0.89207  1.0000
  H   H988      1.0  0.26523  0.88118  0.78481  1.0000
  C   C600      1.0  0.16789  0.91053  0.90112  1.0000
  C   C601      1.0  0.29104  0.64070  0.90392  1.0000
  C   C602      1.0  0.21842  0.50941  0.75144  1.0000
  H   H989      1.0  0.34675  0.55435  0.83879  1.0000
  H   H990      1.0  0.25632  0.64719  0.91255  1.0000
  C   C603      1.0  0.25114  0.71398  0.80155  1.0000
  C   C604      1.0  0.30388  0.59405  0.84051  1.0000
  C   C605      1.0  0.41272  0.55070  0.96838  1.0000
  C   C606      1.0  0.31157  0.59988  0.92239  1.0000
  H   H991      1.0  0.11157  0.92267  0.97900  1.0000
  H   H992      1.0  0.23549  0.97542  0.84521  1.0000
  H   H993      1.0  0.24530  0.85378  0.84818  1.0000
  H   H994      1.0  0.29170  0.65340  0.76797  1.0000
  H   H995      1.0  0.31623  0.58527  0.93319  1.0000
  H   H996      1.0  0.21659  0.90889  0.83653  1.0000
  H   H997      1.0  0.26491  0.63131  0.89216  1.0000
  C   C607      1.0  0.26865  0.63429  0.90744  1.0000
  H   H998      1.0  0.20978  0.94665  0.79489  1.0000
  H   H999      1.0  0.29577  0.68742  0.74328  1.0000
  H   H1000     1.0  0.25705  0.94231  0.87836  1.0000
  H   H1001     1.0  0.19549  0.76309  0.96343  1.0000
  H   H1002     1.0  0.23404  0.71435  0.80808  1.0000
  C   C608      1.0  0.23105  0.88452  0.81738  1.0000
  H   H1003     1.0  0.24544  0.70629  0.77206  1.0000
  H   H1004     1.0  0.26004  0.70766  0.81504  1.0000
  H   H1005     1.0  0.28652  0.60969  0.86711  1.0000
  H   H1006     1.0  0.31924  0.54448  0.86770  1.0000
  S   S182      1.0  0.17582  0.95073  0.90206  1.0000
  H   H1007     1.0  0.31418  0.60138  0.86977  1.0000
  H   H1008     1.0  0.34670  0.62383  0.91404  1.0000
  C   C609      1.0  0.30507  0.61811  0.93567  1.0000
  Fe  Fe92      1.0  0.16950  0.96558  0.86858  1.0000
  H   H1009     1.0  0.20093  0.88855  0.83939  1.0000
  N   N40       1.0  0.27933  0.69756  0.77305  1.0000
  C   C610      1.0  0.25658  0.70002  0.78381  1.0000
  C   C611      1.0  0.44262  0.57266  0.98195  1.0000
  H   H1010     1.0  0.40299  0.56590  0.96318  1.0000
  C   C612      1.0  0.29323  0.68564  0.78896  1.0000
  H   H1011     1.0  0.30138  0.63077  0.89288  1.0000
  C   C613      1.0  0.31716  0.68089  0.78059  1.0000
  H   H1012     1.0  0.41359  0.51774  0.96422  1.0000
  Fe  Fe93      1.0  0.36624  0.60295  0.97415  1.0000
  H   H1013     1.0  0.30526  0.66432  0.95763  1.0000
  C   C614      1.0  0.23216  0.48077  0.81551  1.0000
  C   C615      1.0  0.40400  0.53329  0.96066  1.0000
  H   H1014     1.0  0.28749  0.67082  0.79680  1.0000
  S   S183      1.0  0.34710  0.63438  0.96704  1.0000
  S   S184      1.0  0.19229  0.80540  0.97738  1.0000
  N   N41       1.0  0.30072  0.64000  0.92375  1.0000
  H   H1015     1.0  0.40474  0.53677  0.94310  1.0000
  Fe  Fe94      1.0  0.17182  0.83693  0.97443  1.0000
  H   H1016     1.0  0.10684  0.86742  0.97008  1.0000
  C   C616      1.0  0.30722  0.55944  0.82978  1.0000
  H   H1017     1.0  0.32409  0.66612  0.78978  1.0000
  H   H1018     1.0  0.26402  0.76651  0.94955  1.0000
  N   N42       1.0  0.18292  0.79724  0.89505  1.0000
  C   C617      1.0  0.18115  0.77471  0.89428  1.0000
  C   C618      1.0  0.18156  0.79949  0.91817  1.0000
  C   C619      1.0  0.20430  0.80149  0.88286  1.0000
  C   C620      1.0  0.16511  0.81097  0.88479  1.0000
  C   C621      1.0  0.18352  0.76834  0.87195  1.0000
  C   C622      1.0  0.15990  0.79717  0.93205  1.0000
  C   C623      1.0  0.21388  0.81954  0.88834  1.0000
  C   C624      1.0  0.16227  0.83458  0.88606  1.0000
  H   H1019     1.0  0.19348  0.76402  0.90257  1.0000
  H   H1020     1.0  0.16564  0.77047  0.90270  1.0000
  H   H1021     1.0  0.18511  0.81488  0.92027  1.0000
  H   H1022     1.0  0.19393  0.78792  0.92561  1.0000
  H   H1023     1.0  0.21657  0.78743  0.88526  1.0000
  H   H1024     1.0  0.20378  0.80453  0.86542  1.0000
  H   H1025     1.0  0.16728  0.80982  0.86754  1.0000
  H   H1026     1.0  0.14959  0.80532  0.89097  1.0000
  H   H1027     1.0  0.19899  0.77093  0.86230  1.0000
  H   H1028     1.0  0.18295  0.75126  0.87379  1.0000
  H   H1029     1.0  0.17032  0.77631  0.86322  1.0000
  H   H1030     1.0  0.16096  0.79920  0.94855  1.0000
  H   H1031     1.0  0.14707  0.80942  0.92660  1.0000
  H   H1032     1.0  0.15533  0.78147  0.93312  1.0000
  H   H1033     1.0  0.22821  0.82224  0.87661  1.0000
  H   H1034     1.0  0.21931  0.81534  0.90417  1.0000
  H   H1035     1.0  0.20290  0.83446  0.88787  1.0000
  H   H1036     1.0  0.17195  0.84289  0.87236  1.0000
  H   H1037     1.0  0.16594  0.83819  0.90101  1.0000
  H   H1038     1.0  0.14529  0.84130  0.88582  1.0000
  C   C625      1.0  0.21583  0.85113  0.82463  1.0000
  C   C626      1.0  0.26012  0.82827  0.83152  1.0000
  C   C627      1.0  0.26529  0.86427  0.78485  1.0000
  C   C628      1.0  0.19704  0.85939  0.81204  1.0000
  H   H1039     1.0  0.23211  0.86589  0.78359  1.0000
  H   H1040     1.0  0.21934  0.83409  0.82370  1.0000
  H   H1041     1.0  0.21018  0.85171  0.84184  1.0000
  H   H1042     1.0  0.26736  0.82440  0.81557  1.0000
  H   H1043     1.0  0.27275  0.82355  0.84185  1.0000
  H   H1044     1.0  0.26306  0.66005  0.76977  1.0000
  H   H1045     1.0  0.26894  0.86155  0.76800  1.0000
  H   H1046     1.0  0.19864  0.85143  0.79785  1.0000
  N   N43       1.0  0.23554  0.86123  0.81696  1.0000
  C   C629      1.0  0.24355  0.85749  0.79440  1.0000
  H   H1047     1.0  0.36768  0.57948  0.84394  1.0000
  H   H1048     1.0  0.30708  0.58334  0.80088  1.0000
  H   H1049     1.0  0.18289  0.88921  0.95750  1.0000
  H   H1050     1.0  0.30622  0.62335  0.85107  1.0000
  C   C630      1.0  0.22956  0.91276  0.75905  1.0000
  S   S185      1.0  0.16956  0.85513  0.94105  1.0000
  H   H1051     1.0  0.45567  0.55973  0.97913  1.0000
  H   H1052     1.0  0.28100  0.54833  0.86807  1.0000
  C   C631      1.0  0.25183  0.85184  0.83143  1.0000
  C   C632      1.0  0.24727  0.71580  0.96314  1.0000
  S   S186      1.0  0.28377  0.79922  0.74054  1.0000
  C   C633      1.0  0.20521  0.75244  0.74142  1.0000
  H   H1053     1.0  0.24804  0.72962  0.95060  1.0000
  H   H1054     1.0  0.45040  0.52639  0.97216  1.0000
  C   C634      1.0  0.19218  0.92501  0.78648  1.0000
  H   H1055     1.0  0.24458  0.84075  0.79285  1.0000
  S   S187      1.0  0.19441  0.95923  0.84079  1.0000
  H   H1056     1.0  0.18465  0.92643  0.94199  1.0000
  C   C635      1.0  0.22877  0.92851  0.77153  1.0000
  C   C636      1.0  0.17428  0.92403  0.91258  1.0000
  H   H1057     1.0  0.26588  0.86026  0.82758  1.0000
  H   H1058     1.0  0.16372  0.91634  0.88541  1.0000
  C   C637      1.0  0.27848  0.66262  0.75994  1.0000
  S   S188      1.0  0.16923  0.93093  0.80487  1.0000
  H   H1059     1.0  0.13980  0.73366  0.97035  1.0000
  C   C638      1.0  0.21754  0.89165  0.83771  1.0000
  S   S189      1.0  0.14269  0.96155  0.85241  1.0000
  H   H1060     1.0  0.14260  0.53357  0.74926  1.0000
  N   N44       1.0  0.31512  0.57181  0.84378  1.0000
  H   H1061     1.0  0.38708  0.53261  0.96719  1.0000
  H   H1062     1.0  0.32708  0.65233  0.93160  1.0000
  H   H1063     1.0  0.26717  0.62005  0.91929  1.0000
  C   C639      1.0  0.29218  0.65498  0.95954  1.0000
  H   H1064     1.0  0.31120  0.60275  0.82545  1.0000
  H   H1065     1.0  0.20982  0.52014  0.76270  1.0000
  Fe  Fe95      1.0  0.21811  0.58251  0.74008  1.0000
  C   C640      1.0  0.32068  0.64995  0.91752  1.0000
  H   H1066     1.0  0.31380  0.54256  0.83289  1.0000
  H   H1067     1.0  0.27912  0.65610  0.74501  1.0000
  H   H1068     1.0  0.24610  0.89126  0.81514  1.0000
  H   H1069     1.0  0.10991  0.89559  0.94487  1.0000
  H   H1070     1.0  0.34829  0.57729  0.86681  1.0000
  H   H1071     1.0  0.31709  0.66588  0.90850  1.0000
  H   H1072     1.0  0.35216  0.64814  0.89920  1.0000
  H   H1073     1.0  0.11377  0.92232  0.94127  1.0000
  H   H1074     1.0  0.26661  0.49760  0.74536  1.0000
  C   C641      1.0  0.09664  0.87419  0.98373  1.0000
  C   C642      1.0  0.35033  0.58268  0.84947  1.0000
  H   H1075     1.0  0.28200  0.66985  0.92968  1.0000
  H   H1076     1.0  0.33528  0.63423  0.88961  1.0000
  H   H1077     1.0  0.27704  0.57517  0.87286  1.0000
  C   C643      1.0  0.15487  0.53622  0.73583  1.0000
  C   C644      1.0  0.28071  0.68606  0.75437  1.0000
  H   H1078     1.0  0.28706  0.59421  0.83840  1.0000
  H   H1079     1.0  0.32535  0.60189  0.90992  1.0000
  H   H1080     1.0  0.28980  0.65677  0.89468  1.0000
  C   C645      1.0  0.28538  0.65354  0.93806  1.0000
  C   C646      1.0  0.33950  0.63805  0.90427  1.0000
  H   H1081     1.0  0.20614  0.50457  0.74397  1.0000
  C   C647      1.0  0.31080  0.56090  0.86632  1.0000
  C   C648      1.0  0.28723  0.55981  0.87519  1.0000
  H   H1082     1.0  0.21590  0.96726  0.89343  1.0000
  C   C649      1.0  0.30289  0.60739  0.85834  1.0000
  H   H1083     1.0  0.34568  0.59985  0.84601  1.0000
  H   H1084     1.0  0.28578  0.55412  0.89253  1.0000
  H   H1085     1.0  0.31729  0.56796  0.87772  1.0000
  H   H1086     1.0  0.31773  0.61711  0.94570  1.0000
  H   H1087     1.0  0.42855  0.55170  0.95880  1.0000
  Fe  Fe96      1.0  0.32800  0.48909  0.87049  1.0000
  H   H1088     1.0  0.29227  0.69444  0.80245  1.0000
  H   H1089     1.0  0.43801  0.58100  0.96656  1.0000
  H   H1090     1.0  0.26331  0.70678  0.96419  1.0000
  H   H1091     1.0  0.13368  0.90272  0.95134  1.0000
  H   H1092     1.0  0.29662  0.63942  0.96879  1.0000
  H   H1093     1.0  0.31512  0.49181  0.82935  1.0000
  H   H1094     1.0  0.23634  0.48200  0.79802  1.0000
  H   H1095     1.0  0.20944  0.74628  0.75754  1.0000
  H   H1096     1.0  0.23791  0.70554  0.95770  1.0000
  S   S190      1.0  0.35015  0.48709  0.89459  1.0000
  H   H1097     1.0  0.13798  0.87490  0.97737  1.0000
  H   H1098     1.0  0.27861  0.66326  0.96942  1.0000
  H   H1099     1.0  0.22665  0.49568  0.76094  1.0000
  H   H1100     1.0  0.28303  0.97425  0.87061  1.0000
  S   S191      1.0  0.25367  0.90478  0.74313  1.0000
  H   H1101     1.0  0.27643  0.74131  0.95932  1.0000
  H   H1102     1.0  0.25286  0.93883  0.85262  1.0000
  C   C650      1.0  0.24651  0.94779  0.86604  1.0000
  H   H1103     1.0  0.28106  0.76414  0.96888  1.0000
  C   C651      1.0  0.11630  0.90710  0.95181  1.0000
  H   H1104     1.0  0.08808  0.91583  0.97353  1.0000
  H   H1105     1.0  0.26205  0.97318  0.84891  1.0000
  H   H1106     1.0  0.24917  0.96573  0.90238  1.0000
  H   H1107     1.0  0.26807  0.69330  0.74447  1.0000
  C   C652      1.0  0.24929  0.75590  0.98173  1.0000
  H   H1108     1.0  0.28025  0.74842  0.74534  1.0000
  H   H1109     1.0  0.19393  0.76711  0.74262  1.0000
  H   H1110     1.0  0.27269  0.72743  0.73544  1.0000
  H   H1111     1.0  0.28457  0.96800  0.89790  1.0000
  H   H1112     1.0  0.19714  0.74056  0.73691  1.0000
  C   C653      1.0  0.23398  0.52130  0.73482  1.0000
  H   H1113     1.0  0.23490  0.76228  0.97400  1.0000
  H   H1114     1.0  0.20456  0.80147  0.73746  1.0000
  H   H1115     1.0  0.21999  0.73048  0.98105  1.0000
  H   H1116     1.0  0.75487  0.00482  0.22596  1.0000
  S   S192      1.0  0.65765  0.45526  0.18334  1.0000
  S   S193      1.0  0.68476  0.44537  0.08683  1.0000
  H   H1117     1.0  0.81774  0.16566  0.14887  1.0000
  C   C654      1.0  0.73495  0.28529  0.99880  1.0000
  H   H1118     1.0  0.77420  0.19033  0.07501  1.0000
  H   H1119     1.0  0.78743  0.14520  0.15964  1.0000
  Fe  Fe97      1.0  0.84348  0.01572  0.13648  1.0000
  S   S194      1.0  0.87131  0.01019  0.15456  1.0000
  S   S195      1.0  0.83447  0.04917  0.11981  1.0000
  C   C655      1.0  0.73182  0.31455  0.02968  1.0000
  N   N45       1.0  0.71825  0.28396  0.01830  1.0000
  Fe  Fe98      1.0  0.84884  0.99669  0.18193  1.0000
  H   H1120     1.0  0.63454  0.40440  0.12724  1.0000
  H   H1121     1.0  0.72565  0.32851  0.03774  1.0000
  S   S196      1.0  0.82062  0.00361  0.16462  1.0000
  Fe  Fe99      1.0  0.84490  0.16708  0.02263  1.0000
  S   S197      1.0  0.82422  0.14283  0.02312  1.0000
  S   S198      1.0  0.83883  0.18141  0.05328  1.0000
  C   C656      1.0  0.76544  0.04554  0.22509  1.0000
  H   H1122     1.0  0.66561  0.27499  0.02053  1.0000
  C   C657      1.0  0.90581  0.04211  0.08586  1.0000
  H   H1123     1.0  0.72660  0.47220  0.19193  1.0000
  C   C658      1.0  0.90638  0.98746  0.07002  1.0000
  Fe  Fe100     1.0  0.85392  0.12317  0.01032  1.0000
  S   S199      1.0  0.86163  0.08843  0.02329  1.0000
  H   H1124     1.0  0.80110  0.15987  0.06190  1.0000
  S   S200      1.0  0.87530  0.14662  0.01150  1.0000
  Fe  Fe101     1.0  0.75205  0.29490  0.13964  1.0000
  S   S201      1.0  0.73028  0.27404  0.16031  1.0000
  S   S202      1.0  0.75770  0.32498  0.14978  1.0000
  Fe  Fe102     1.0  0.75899  0.26854  0.10276  1.0000
  S   S203      1.0  0.73726  0.24637  0.12091  1.0000
  S   S204      1.0  0.77285  0.26353  0.06880  1.0000
  Fe  Fe103     1.0  0.71606  0.27517  0.13048  1.0000
  S   S205      1.0  0.68036  0.27977  0.13265  1.0000
  Fe  Fe104     1.0  0.75371  0.24751  0.14854  1.0000
  S   S206      1.0  0.76842  0.21772  0.16718  1.0000
  S   S207      1.0  0.73639  0.29750  0.11035  1.0000
  S   S208      1.0  0.77686  0.26824  0.12982  1.0000
  Fe  Fe105     1.0  0.64075  0.37787  0.01217  1.0000
  S   S209      1.0  0.61060  0.36351  0.02023  1.0000
  S   S210      1.0  0.63735  0.40911  0.02477  1.0000
  H   H1125     1.0  0.90227  0.03796  0.12099  1.0000
  C   C659      1.0  0.61548  0.36771  0.09245  1.0000
  Fe  Fe106     1.0  0.63241  0.33348  0.02777  1.0000
  S   S211      1.0  0.62462  0.31194  0.05824  1.0000
  S   S212      1.0  0.66219  0.34793  0.02122  1.0000
  C   C660      1.0  0.66638  0.28840  0.11080  1.0000
  C   C661      1.0  0.64527  0.28495  0.11341  1.0000
  C   C662      1.0  0.63301  0.29199  0.09699  1.0000
  C   C663      1.0  0.64149  0.30297  0.07780  1.0000
  C   C664      1.0  0.66261  0.30672  0.07510  1.0000
  C   C665      1.0  0.67514  0.29931  0.09157  1.0000
  H   H1126     1.0  0.63835  0.27666  0.12824  1.0000
  H   H1127     1.0  0.61673  0.28905  0.09928  1.0000
  H   H1128     1.0  0.66912  0.31557  0.06053  1.0000
  H   H1129     1.0  0.69136  0.30230  0.08960  1.0000
  H   H1130     1.0  0.72751  0.17319  0.05994  1.0000
  H   H1131     1.0  0.94303  0.03452  0.06176  1.0000
  H   H1132     1.0  0.75784  0.22284  0.05575  1.0000
  H   H1133     1.0  0.77535  0.03948  0.19214  1.0000
  C   C666      1.0  0.82076  0.20452  0.05718  1.0000
  C   C667      1.0  0.81262  0.20832  0.07800  1.0000
  C   C668      1.0  0.79799  0.22634  0.08176  1.0000
  C   C669      1.0  0.79157  0.24091  0.06469  1.0000
  C   C670      1.0  0.79975  0.23715  0.04385  1.0000
  C   C671      1.0  0.81427  0.21904  0.04009  1.0000
  H   H1134     1.0  0.81764  0.19727  0.09132  1.0000
  H   H1135     1.0  0.79180  0.22905  0.09789  1.0000
  H   H1136     1.0  0.79493  0.24836  0.03056  1.0000
  H   H1137     1.0  0.82059  0.21638  0.02399  1.0000
  C   C672      1.0  0.60761  0.38520  0.07509  1.0000
  H   H1138     1.0  0.73148  0.21505  0.06394  1.0000
  C   C673      1.0  0.82619  0.04467  0.19948  1.0000
  H   H1139     1.0  0.63661  0.35993  0.14184  1.0000
  H   H1140     1.0  0.87983  0.03242  0.11056  1.0000
  C   C674      1.0  0.76111  0.18252  0.19465  1.0000
  C   C675      1.0  0.75238  0.20278  0.18656  1.0000
  C   C676      1.0  0.73187  0.21105  0.19510  1.0000
  C   C677      1.0  0.63231  0.34767  0.13418  1.0000
  H   H1141     1.0  0.80956  0.44200  0.22843  1.0000
  H   H1142     1.0  0.77690  0.17607  0.18803  1.0000
  H   H1143     1.0  0.72502  0.22669  0.18890  1.0000
  H   H1144     1.0  0.61236  0.40047  0.07582  1.0000
  C   C678      1.0  0.85306  0.07772  0.04997  1.0000
  C   C679      1.0  0.84352  0.09045  0.06533  1.0000
  C   C680      1.0  0.83755  0.08141  0.08650  1.0000
  C   C681      1.0  0.84117  0.05961  0.09265  1.0000
  C   C682      1.0  0.85017  0.04686  0.07721  1.0000
  C   C683      1.0  0.85620  0.05587  0.05601  1.0000
  H   H1145     1.0  0.84085  0.10726  0.06089  1.0000
  H   H1146     1.0  0.83005  0.09138  0.09814  1.0000
  H   H1147     1.0  0.85217  0.03006  0.08161  1.0000
  H   H1148     1.0  0.86318  0.04589  0.04416  1.0000
  H   H1149     1.0  0.58999  0.38730  0.07692  1.0000
  H   H1150     1.0  0.63744  0.33243  0.14381  1.0000
  C   C684      1.0  0.81556  0.06491  0.20163  1.0000
  H   H1151     1.0  0.82932  0.03947  0.18408  1.0000
  H   H1152     1.0  0.81016  0.07493  0.18791  1.0000
  H   H1153     1.0  0.91807  0.00475  0.11278  1.0000
  C   C685      1.0  0.75925  0.32737  0.17646  1.0000
  C   C686      1.0  0.76302  0.34650  0.18102  1.0000
  C   C687      1.0  0.76400  0.34927  0.20198  1.0000
  C   C688      1.0  0.76176  0.33269  0.21859  1.0000
  C   C689      1.0  0.75821  0.31345  0.21405  1.0000
  C   C690      1.0  0.75679  0.31083  0.19312  1.0000
  H   H1154     1.0  0.76563  0.35911  0.16818  1.0000
  S   S213      1.0  0.85188  0.98423  0.12532  1.0000
  H   H1155     1.0  0.75401  0.29600  0.18981  1.0000
  C   C691      1.0  0.67122  0.43526  0.06990  1.0000
  C   C692      1.0  0.68156  0.41810  0.05977  1.0000
  C   C693      1.0  0.67146  0.40979  0.04602  1.0000
  C   C694      1.0  0.65084  0.41852  0.04227  1.0000
  C   C695      1.0  0.64049  0.43557  0.05253  1.0000
  C   C696      1.0  0.65054  0.44383  0.06634  1.0000
  H   H1156     1.0  0.69762  0.41146  0.06225  1.0000
  H   H1157     1.0  0.67980  0.39697  0.03792  1.0000
  H   H1158     1.0  0.62462  0.44257  0.04965  1.0000
  H   H1159     1.0  0.64239  0.45706  0.07393  1.0000
  C   C697      1.0  0.68196  0.45058  0.19347  1.0000
  C   C698      1.0  0.68625  0.43295  0.20861  1.0000
  C   C699      1.0  0.74788  0.21302  0.06764  1.0000
  C   C700      1.0  0.73884  0.17869  0.04586  1.0000
  C   C701      1.0  0.71532  0.46126  0.19671  1.0000
  C   C702      1.0  0.69679  0.46449  0.18717  1.0000
  H   H1160     1.0  0.67512  0.42183  0.21310  1.0000
  H   H1161     1.0  0.72583  0.25158  0.03233  1.0000
  C   C703      1.0  0.81115  0.07187  0.22151  1.0000
  H   H1162     1.0  0.91282  0.05114  0.04178  1.0000
  H   H1163     1.0  0.72995  0.29875  0.98668  1.0000
  H   H1164     1.0  0.69451  0.28892  0.99742  1.0000
  H   H1165     1.0  0.78666  0.45101  0.21571  1.0000
  C   C704      1.0  0.72957  0.17921  0.22071  1.0000
  C   C705      1.0  0.69890  0.27816  0.01180  1.0000
  C   C706      1.0  0.70481  0.42973  0.21806  1.0000
  C   C707      1.0  0.72693  0.26752  0.03536  1.0000
  H   H1166     1.0  0.75278  0.05888  0.19563  1.0000
  H   H1167     1.0  0.78279  0.04569  0.22299  1.0000
  H   H1168     1.0  0.78917  0.98515  0.22230  1.0000
  H   H1169     1.0  0.67293  0.29379  0.03337  1.0000
  H   H1170     1.0  0.68036  0.26576  0.04188  1.0000
  H   H1171     1.0  0.91774  0.05283  0.08467  1.0000
  C   C708      1.0  0.71678  0.26930  0.05862  1.0000
  S   S214      1.0  0.63991  0.47242  0.12650  1.0000
  H   H1172     1.0  0.75968  0.21888  0.22129  1.0000
  H   H1173     1.0  0.75633  0.15487  0.21711  1.0000
  N   N46       1.0  0.91651  0.02082  0.08066  1.0000
  C   C709      1.0  0.92895  0.01051  0.09845  1.0000
  H   H1174     1.0  0.74156  0.30325  0.04033  1.0000
  H   H1175     1.0  0.80351  0.10641  0.15912  1.0000
  H   H1176     1.0  0.70011  0.27680  0.06073  1.0000
  H   H1177     1.0  0.75662  0.30048  0.22674  1.0000
  H   H1178     1.0  0.81020  0.20743  0.22867  1.0000
  H   H1179     1.0  0.92137  0.98659  0.05891  1.0000
  H   H1180     1.0  0.71714  0.25339  0.06794  1.0000
  H   H1181     1.0  0.75376  0.21543  0.02498  1.0000
  C   C710      1.0  0.71295  0.30548  0.02482  1.0000
  N   N47       1.0  0.82921  0.12373  0.14431  1.0000
  C   C711      1.0  0.84260  0.10367  0.13845  1.0000
  C   C712      1.0  0.81824  0.13379  0.12543  1.0000
  C   C713      1.0  0.84334  0.13736  0.15004  1.0000
  C   C714      1.0  0.85540  0.09041  0.15550  1.0000
  C   C715      1.0  0.83307  0.14012  0.10468  1.0000
  C   C716      1.0  0.83505  0.16114  0.14850  1.0000
  H   H1182     1.0  0.83254  0.09326  0.13415  1.0000
  H   H1183     1.0  0.85455  0.10688  0.12418  1.0000
  H   H1184     1.0  0.80701  0.14802  0.12866  1.0000
  H   H1185     1.0  0.80810  0.12308  0.12180  1.0000
  H   H1186     1.0  0.84704  0.13176  0.16650  1.0000
  H   H1187     1.0  0.85894  0.13590  0.13950  1.0000
  H   H1188     1.0  0.86563  0.07710  0.14851  1.0000
  H   H1189     1.0  0.86603  0.09937  0.16088  1.0000
  H   H1190     1.0  0.84504  0.08328  0.16933  1.0000
  H   H1191     1.0  0.84591  0.14823  0.10717  1.0000
  H   H1192     1.0  0.84016  0.12642  0.09656  1.0000
  H   H1193     1.0  0.82373  0.15113  0.09344  1.0000
  H   H1194     1.0  0.89418  0.98522  0.06071  1.0000
  H   H1195     1.0  0.84333  0.16988  0.13406  1.0000
  H   H1196     1.0  0.90870  0.02562  0.03749  1.0000
  C   C717      1.0  0.62645  0.39777  0.11663  1.0000
  H   H1197     1.0  0.80462  0.14548  0.17929  1.0000
  H   H1198     1.0  0.61744  0.41153  0.10779  1.0000
  Fe  Fe107     1.0  0.82171  0.15685  0.98924  1.0000
  H   H1199     1.0  0.70226  0.26216  0.00730  1.0000
  H   H1200     1.0  0.61526  0.38816  0.12703  1.0000
  H   H1201     1.0  0.93275  0.03566  0.02615  1.0000
  C   C718      1.0  0.94647  0.99198  0.09396  1.0000
  H   H1202     1.0  0.89492  0.04980  0.07426  1.0000
  H   H1203     1.0  0.75026  0.16907  0.01410  1.0000
  C   C719      1.0  0.67858  0.27832  0.02817  1.0000
  H   H1204     1.0  0.61488  0.34902  0.13501  1.0000
  H   H1205     1.0  0.93705  0.02212  0.10355  1.0000
  N   N48       1.0  0.76039  0.17803  0.05221  1.0000
  C   C720      1.0  0.89944  0.00832  0.07904  1.0000
  H   H1206     1.0  0.60450  0.36985  0.10729  1.0000
  N   N49       1.0  0.63843  0.36634  0.09524  1.0000
  C   C721      1.0  0.65163  0.36247  0.07422  1.0000
  C   C722      1.0  0.64416  0.34757  0.11141  1.0000
  C   C723      1.0  0.64347  0.38607  0.10112  1.0000
  C   C724      1.0  0.67599  0.35879  0.07366  1.0000
  H   H1207     1.0  0.64719  0.34890  0.06862  1.0000
  H   H1208     1.0  0.64831  0.37592  0.06162  1.0000
  H   H1209     1.0  0.61259  0.35262  0.08845  1.0000
  H   H1210     1.0  0.64159  0.33305  0.10608  1.0000
  H   H1211     1.0  0.66126  0.34544  0.11312  1.0000
  H   H1212     1.0  0.65864  0.38282  0.10790  1.0000
  H   H1213     1.0  0.64619  0.39770  0.08657  1.0000
  H   H1214     1.0  0.68164  0.37137  0.07968  1.0000
  H   H1215     1.0  0.68167  0.34334  0.08242  1.0000
  H   H1216     1.0  0.68370  0.35872  0.05692  1.0000
  H   H1217     1.0  0.61346  0.38088  0.05903  1.0000
  H   H1218     1.0  0.75580  0.14793  0.07119  1.0000
  H   H1219     1.0  0.74419  0.26797  0.03491  1.0000
  H   H1220     1.0  0.76711  0.36402  0.20520  1.0000
  H   H1221     1.0  0.72640  0.27740  0.06642  1.0000
  C   C725      1.0  0.77629  0.18601  0.03395  1.0000
  C   C726      1.0  0.78832  0.15129  0.07101  1.0000
  H   H1222     1.0  0.96020  0.99715  0.08267  1.0000
  H   H1223     1.0  0.70807  0.41614  0.22959  1.0000
  H   H1224     1.0  0.75013  0.28833  0.00281  1.0000
  C   C727      1.0  0.71903  0.44425  0.21271  1.0000
  H   H1225     1.0  0.77237  0.14610  0.04639  1.0000
  C   C728      1.0  0.72054  0.19930  0.21228  1.0000
  C   C729      1.0  0.73839  0.16557  0.02828  1.0000
  H   H1226     1.0  0.76620  0.20134  0.00349  1.0000
  C   C730      1.0  0.79676  0.13558  0.17168  1.0000
  H   H1227     1.0  0.79041  0.18906  0.03990  1.0000
  H   H1228     1.0  0.78261  0.17366  0.02372  1.0000
  H   H1229     1.0  0.79475  0.13434  0.07256  1.0000
  H   H1230     1.0  0.79563  0.24487  0.21889  1.0000
  H   H1231     1.0  0.78446  0.15548  0.08732  1.0000
  C   C731      1.0  0.92049  0.03482  0.04048  1.0000
  C   C732      1.0  0.75831  0.19000  0.07066  1.0000
  C   C733      1.0  0.74960  0.17063  0.21136  1.0000
  H   H1232     1.0  0.74460  0.25122  0.99860  1.0000
  C   C734      1.0  0.78792  0.00021  0.22844  1.0000
  C   C735      1.0  0.83253  0.03118  0.21724  1.0000
  S   S215      1.0  0.74064  0.44235  0.22671  1.0000
  Fe  Fe108     1.0  0.65795  0.47683  0.15198  1.0000
  H   H1233     1.0  0.77502  0.24998  0.20267  1.0000
  N   N50       1.0  0.71537  0.40420  0.14126  1.0000
  C   C736      1.0  0.71692  0.39411  0.12161  1.0000
  C   C737      1.0  0.72057  0.42613  0.13432  1.0000
  C   C738      1.0  0.69335  0.40535  0.15371  1.0000
  C   C739      1.0  0.73067  0.39126  0.15527  1.0000
  C   C740      1.0  0.70963  0.37240  0.12509  1.0000
  C   C741      1.0  0.74417  0.42797  0.12638  1.0000
  C   C742      1.0  0.67525  0.41660  0.14125  1.0000
  C   C743      1.0  0.73190  0.39980  0.17589  1.0000
  H   H1234     1.0  0.70780  0.40444  0.10963  1.0000
  H   H1235     1.0  0.73361  0.39199  0.11348  1.0000
  H   H1236     1.0  0.71512  0.43597  0.14721  1.0000
  H   H1237     1.0  0.71175  0.43424  0.12112  1.0000
  H   H1238     1.0  0.68964  0.38947  0.16084  1.0000
  H   H1239     1.0  0.69222  0.41378  0.16754  1.0000
  H   H1240     1.0  0.72639  0.37528  0.16058  1.0000
  H   H1241     1.0  0.74697  0.38827  0.14633  1.0000
  H   H1242     1.0  0.71121  0.36702  0.10941  1.0000
  H   H1243     1.0  0.71977  0.36042  0.13477  1.0000
  H   H1244     1.0  0.69274  0.37280  0.13222  1.0000
  H   H1245     1.0  0.75077  0.41889  0.11316  1.0000
  H   H1246     1.0  0.74561  0.44464  0.12022  1.0000
  H   H1247     1.0  0.75395  0.42315  0.13943  1.0000
  H   H1248     1.0  0.67412  0.40885  0.12762  1.0000
  H   H1249     1.0  0.67697  0.43322  0.13554  1.0000
  H   H1250     1.0  0.65989  0.41657  0.15203  1.0000
  H   H1251     1.0  0.72123  0.39256  0.18949  1.0000
  H   H1252     1.0  0.72778  0.41698  0.17479  1.0000
  H   H1253     1.0  0.74844  0.39609  0.17956  1.0000
  H   H1254     1.0  0.78097  0.21595  0.01452  1.0000
  C   C744      1.0  0.93130  0.02451  0.06006  1.0000
  C   C745      1.0  0.76841  0.20573  0.01875  1.0000
  H   H1255     1.0  0.70495  0.20595  0.21931  1.0000
  H   H1256     1.0  0.72250  0.16922  0.02300  1.0000
  H   H1257     1.0  0.83917  0.16713  0.16214  1.0000
  H   H1258     1.0  0.73155  0.19478  0.04026  1.0000
  H   H1259     1.0  0.74907  0.18201  0.08503  1.0000
  H   H1260     1.0  0.79400  0.01155  0.21496  1.0000
  H   H1261     1.0  0.94118  0.00989  0.05576  1.0000
  H   H1262     1.0  0.74091  0.14855  0.03419  1.0000
  S   S216      1.0  0.63441  0.32478  0.99514  1.0000
  C   C746      1.0  0.78441  0.23742  0.21261  1.0000
  S   S217      1.0  0.84478  0.00530  0.21500  1.0000
  C   C747      1.0  0.89238  0.04248  0.10800  1.0000
  H   H1263     1.0  0.88747  0.01786  0.06948  1.0000
  H   H1264     1.0  0.88418  0.05867  0.10926  1.0000
  C   C748      1.0  0.81282  0.11772  0.16302  1.0000
  H   H1265     1.0  0.82057  0.10961  0.17691  1.0000
  C   C749      1.0  0.76838  0.15537  0.05986  1.0000
  H   H1266     1.0  0.78506  0.12865  0.18448  1.0000
  H   H1267     1.0  0.70078  0.30600  0.03903  1.0000
  H   H1268     1.0  0.74676  0.21928  0.08282  1.0000
  C   C750      1.0  0.76902  0.22631  0.23011  1.0000
  H   H1269     1.0  0.80607  0.46797  0.21290  1.0000
  H   H1270     1.0  0.75805  0.06143  0.22869  1.0000
  H   H1271     1.0  0.89008  0.00431  0.09493  1.0000
  S   S218      1.0  0.79718  0.09722  0.22325  1.0000
  H   H1272     1.0  0.70570  0.31687  0.01217  1.0000
  H   H1273     1.0  0.79328  0.22650  0.20166  1.0000
  H   H1274     1.0  0.74210  0.31992  0.01483  1.0000
  H   H1275     1.0  0.69369  0.47814  0.17549  1.0000
  C   C751      1.0  0.76039  0.04345  0.20300  1.0000
  H   H1276     1.0  0.74972  0.03206  0.20288  1.0000
  Fe  Fe109     1.0  0.67130  0.47274  0.10546  1.0000
  H   H1277     1.0  0.95260  0.98487  0.10907  1.0000
  C   C752      1.0  0.79801  0.45609  0.22424  1.0000
  H   H1278     1.0  0.79471  0.18886  0.22556  1.0000
  S   S219      1.0  0.84051  0.18240  0.98956  1.0000
  C   C753      1.0  0.74073  0.26572  0.98748  1.0000
  Fe  Fe110     1.0  0.61558  0.35642  0.98662  1.0000
  H   H1279     1.0  0.72034  0.04541  0.22439  1.0000
  S   S220      1.0  0.68952  0.47584  0.13142  1.0000
  Fe  Fe111     1.0  0.66290  0.34147  0.98786  1.0000
  H   H1280     1.0  0.72159  0.01722  0.23255  1.0000
  Fe  Fe112     1.0  0.89710  0.45191  0.35065  1.0000
  S   S221      1.0  0.87511  0.46470  0.37756  1.0000
  S   S222      1.0  0.91933  0.42149  0.35710  1.0000
  H   H1281     1.0  0.68414  0.11006  0.35629  1.0000
  C   C754      1.0  0.95974  0.46287  0.40877  1.0000
  S   S223      1.0  0.81771  0.46086  0.35810  1.0000
  H   H1282     1.0  0.60700  0.08572  0.39242  1.0000
  S   S224      1.0  0.87256  0.45598  0.32892  1.0000
  H   H1283     1.0  0.66391  0.44614  0.29623  1.0000
  S   S225      1.0  0.76407  0.33509  0.24504  1.0000
  Fe  Fe113     1.0  0.73346  0.38738  0.29215  1.0000
  S   S226      1.0  0.76394  0.36539  0.29138  1.0000
  S   S227      1.0  0.70565  0.38528  0.31812  1.0000
  Fe  Fe114     1.0  0.77929  0.39447  0.28156  1.0000
  S   S228      1.0  0.80757  0.39680  0.29736  1.0000
  Fe  Fe115     1.0  0.76159  0.36632  0.25677  1.0000
  S   S229      1.0  0.74874  0.41652  0.28444  1.0000
  S   S230      1.0  0.72975  0.38639  0.25849  1.0000
  S   S231      1.0  0.66867  0.01067  0.30719  1.0000
  Fe  Fe116     1.0  0.73805  0.13956  0.26060  1.0000
  S   S232      1.0  0.77284  0.14132  0.25536  1.0000
  H   H1284     1.0  0.76901  0.01669  0.27446  1.0000
  Fe  Fe117     1.0  0.74312  0.09907  0.29164  1.0000
  S   S233      1.0  0.77859  0.09811  0.28818  1.0000
  S   S234      1.0  0.72954  0.07401  0.31649  1.0000
  Fe  Fe118     1.0  0.77083  0.13260  0.29064  1.0000
  S   S235      1.0  0.78776  0.14818  0.31046  1.0000
  Fe  Fe119     1.0  0.77688  0.10706  0.25322  1.0000
  C   C755      1.0  0.96285  0.41480  0.41150  1.0000
  S   S236      1.0  0.73562  0.13299  0.29626  1.0000
  S   S237      1.0  0.74188  0.10572  0.25649  1.0000
  Fe  Fe120     1.0  0.90245  0.33813  0.46514  1.0000
  C   C756      1.0  0.91066  0.46764  0.41580  1.0000
  S   S238      1.0  0.92472  0.34727  0.43500  1.0000
  C   C757      1.0  0.76457  0.00718  0.23765  1.0000
  C   C758      1.0  0.69511  0.06846  0.38097  1.0000
  S   S239      1.0  0.88156  0.31400  0.46553  1.0000
  H   H1285     1.0  0.68511  0.07710  0.34004  1.0000
  Fe  Fe121     1.0  0.75843  0.24860  0.37014  1.0000
  S   S240      1.0  0.72672  0.25101  0.39094  1.0000
  S   S241      1.0  0.75718  0.23827  0.33842  1.0000
  Fe  Fe122     1.0  0.77864  0.26778  0.40128  1.0000
  S   S242      1.0  0.74846  0.27079  0.42405  1.0000
  S   S243      1.0  0.80860  0.27776  0.40825  1.0000
  Fe  Fe123     1.0  0.74524  0.23883  0.41792  1.0000
  S   S244      1.0  0.73847  0.21272  0.44484  1.0000
  Fe  Fe124     1.0  0.73310  0.28265  0.39469  1.0000
  S   S245      1.0  0.70762  0.31077  0.39473  1.0000
  S   S246      1.0  0.77687  0.23455  0.39705  1.0000
  S   S247      1.0  0.76347  0.28146  0.37201  1.0000
  H   H1286     1.0  0.83337  0.02783  0.25090  1.0000
  C   C759      1.0  0.69995  0.20716  0.43485  1.0000
  C   C760      1.0  0.68263  0.19611  0.43708  1.0000
  H   H1287     1.0  0.70091  0.22108  0.42325  1.0000
  H   H1288     1.0  0.67032  0.20160  0.42713  1.0000
  C   C761      1.0  0.81833  0.32076  0.45435  1.0000
  C   C762      1.0  0.79910  0.32399  0.44588  1.0000
  C   C763      1.0  0.79519  0.31029  0.43271  1.0000
  C   C764      1.0  0.81063  0.29336  0.42763  1.0000
  C   C765      1.0  0.82955  0.28997  0.43645  1.0000
  H   H1289     1.0  0.70393  0.07702  0.36685  1.0000
  H   H1290     1.0  0.78731  0.33729  0.44928  1.0000
  H   H1291     1.0  0.78052  0.31314  0.42602  1.0000
  H   H1292     1.0  0.79339  0.19306  0.47922  1.0000
  H   H1293     1.0  0.95263  0.42502  0.38093  1.0000
  C   C766      1.0  0.77813  0.17266  0.31932  1.0000
  C   C767      1.0  0.75911  0.18466  0.31413  1.0000
  C   C768      1.0  0.75258  0.20452  0.32058  1.0000
  C   C769      1.0  0.76459  0.21228  0.33288  1.0000
  C   C770      1.0  0.78317  0.19994  0.33877  1.0000
  C   C771      1.0  0.78996  0.18030  0.33188  1.0000
  H   H1294     1.0  0.74949  0.17862  0.30512  1.0000
  H   H1295     1.0  0.73810  0.21389  0.31612  1.0000
  H   H1296     1.0  0.79267  0.20582  0.34805  1.0000
  H   H1297     1.0  0.80461  0.17106  0.33611  1.0000
  H   H1298     1.0  0.77308  0.27799  0.31317  1.0000
  H   H1299     1.0  0.70230  0.42840  0.26532  1.0000
  H   H1300     1.0  0.97627  0.43374  0.38386  1.0000
  H   H1301     1.0  0.95767  0.45600  0.42588  1.0000
  H   H1302     1.0  0.81448  0.06377  0.25465  1.0000
  H   H1303     1.0  0.80168  0.22677  0.46815  1.0000
  C   C772      1.0  0.68666  0.02763  0.30898  1.0000
  C   C773      1.0  0.69810  0.02427  0.32608  1.0000
  C   C774      1.0  0.71168  0.03830  0.32768  1.0000
  C   C775      1.0  0.71412  0.05582  0.31215  1.0000
  C   C776      1.0  0.70313  0.05903  0.29470  1.0000
  C   C777      1.0  0.68947  0.04492  0.29311  1.0000
  H   H1304     1.0  0.69643  0.01098  0.33824  1.0000
  H   H1305     1.0  0.72010  0.03573  0.34125  1.0000
  H   H1306     1.0  0.70464  0.07270  0.28280  1.0000
  H   H1307     1.0  0.68055  0.04776  0.27990  1.0000
  C   C778      1.0  0.70691  0.36415  0.33895  1.0000
  C   C779      1.0  0.69062  0.36415  0.35623  1.0000
  C   C780      1.0  0.69107  0.34767  0.37319  1.0000
  C   C781      1.0  0.70780  0.33100  0.37301  1.0000
  C   C782      1.0  0.72418  0.33096  0.35575  1.0000
  C   C783      1.0  0.72365  0.34745  0.33866  1.0000
  H   H1308     1.0  0.67761  0.37697  0.35661  1.0000
  H   H1309     1.0  0.67839  0.34782  0.38652  1.0000
  H   H1310     1.0  0.73719  0.31824  0.35560  1.0000
  H   H1311     1.0  0.73618  0.34719  0.32532  1.0000
  H   H1312     1.0  0.69844  0.03118  0.42174  1.0000
  C   C784      1.0  0.91917  0.40186  0.37983  1.0000
  C   C785      1.0  0.90443  0.40288  0.39855  1.0000
  C   C786      1.0  0.90591  0.38655  0.41607  1.0000
  C   C787      1.0  0.92193  0.36911  0.41469  1.0000
  C   C788      1.0  0.93651  0.36843  0.39605  1.0000
  C   C789      1.0  0.93515  0.38457  0.37887  1.0000
  H   H1313     1.0  0.89193  0.41612  0.39950  1.0000
  H   H1314     1.0  0.89460  0.38729  0.43045  1.0000
  H   H1315     1.0  0.94898  0.35517  0.39480  1.0000
  H   H1316     1.0  0.94665  0.38359  0.36463  1.0000
  C   C790      1.0  0.81462  0.44307  0.34124  1.0000
  C   C791      1.0  0.79517  0.44425  0.33370  1.0000
  C   C792      1.0  0.79263  0.43031  0.32016  1.0000
  C   C793      1.0  0.80949  0.41491  0.31425  1.0000
  C   C794      1.0  0.82867  0.41344  0.32222  1.0000
  C   C795      1.0  0.83118  0.42731  0.33567  1.0000
  H   H1317     1.0  0.78214  0.45618  0.33812  1.0000
  H   H1318     1.0  0.77770  0.43153  0.31428  1.0000
  H   H1319     1.0  0.84177  0.40151  0.31792  1.0000
  H   H1320     1.0  0.84589  0.42549  0.34207  1.0000
  C   C796      1.0  0.71779  0.33202  0.28910  1.0000
  H   H1321     1.0  0.67610  0.04535  0.35988  1.0000
  H   H1322     1.0  0.64840  0.03153  0.34840  1.0000
  H   H1323     1.0  0.94804  0.40790  0.41757  1.0000
  H   H1324     1.0  0.86052  0.30208  0.39825  1.0000
  C   C797      1.0  0.77223  0.02937  0.26097  1.0000
  H   H1325     1.0  0.62037  0.06026  0.38847  1.0000
  H   H1326     1.0  0.70040  0.44942  0.27993  1.0000
  C   C798      1.0  0.95997  0.43183  0.39206  1.0000
  C   C799      1.0  0.63745  0.03573  0.43678  1.0000
  H   H1327     1.0  0.62956  0.07506  0.40536  1.0000
  N   N51       1.0  0.78406  0.36026  0.36414  1.0000
  C   C800      1.0  0.79268  0.33916  0.35718  1.0000
  C   C801      1.0  0.77371  0.35615  0.38695  1.0000
  C   C802      1.0  0.80261  0.37194  0.36258  1.0000
  C   C803      1.0  0.76872  0.37169  0.34935  1.0000
  C   C804      1.0  0.80686  0.33947  0.33530  1.0000
  C   C805      1.0  0.79926  0.39061  0.37502  1.0000
  C   C806      1.0  0.75466  0.39193  0.35542  1.0000
  H   H1328     1.0  0.80215  0.32903  0.36905  1.0000
  H   H1329     1.0  0.77955  0.33049  0.35630  1.0000
  H   H1330     1.0  0.66904  0.09305  0.38779  1.0000
  H   H1331     1.0  0.81638  0.36112  0.36833  1.0000
  H   H1332     1.0  0.80812  0.37799  0.34570  1.0000
  H   H1333     1.0  0.77736  0.37622  0.33321  1.0000
  H   H1334     1.0  0.75803  0.36121  0.34655  1.0000
  H   H1335     1.0  0.81134  0.32318  0.33171  1.0000
  H   H1336     1.0  0.79852  0.34854  0.32224  1.0000
  H   H1337     1.0  0.82189  0.34557  0.33512  1.0000
  C   C807      1.0  0.71441  0.18208  0.46275  1.0000
  H   H1338     1.0  0.78583  0.40263  0.37083  1.0000
  H   H1339     1.0  0.81365  0.39847  0.37097  1.0000
  H   H1340     1.0  0.79744  0.38550  0.39245  1.0000
  H   H1341     1.0  0.76193  0.40590  0.34736  1.0000
  H   H1342     1.0  0.75103  0.39260  0.37263  1.0000
  H   H1343     1.0  0.73896  0.39313  0.35008  1.0000
  N   N52       1.0  0.94738  0.45269  0.39655  1.0000
  S   S248      1.0  0.71650  0.16565  0.24387  1.0000
  Fe  Fe125     1.0  0.85591  0.33611  0.48116  1.0000
  H   H1344     1.0  0.75354  0.18075  0.37189  1.0000
  H   H1345     1.0  0.97706  0.45945  0.40298  1.0000
  C   C808      1.0  0.88262  0.33047  0.40805  1.0000
  H   H1346     1.0  0.73351  0.33670  0.28873  1.0000
  H   H1347     1.0  0.68181  0.40687  0.25663  1.0000
  C   C809      1.0  0.84903  0.35387  0.40598  1.0000
  S   S249      1.0  0.69556  0.11203  0.46771  1.0000
  H   H1348     1.0  0.65334  0.40958  0.32818  1.0000
  H   H1349     1.0  0.65221  0.05551  0.33180  1.0000
  H   H1350     1.0  0.76049  0.99559  0.25187  1.0000
  H   H1351     1.0  0.78033  0.04873  0.28171  1.0000
  H   H1352     1.0  0.88898  0.36820  0.39111  1.0000
  H   H1353     1.0  0.78574  0.24851  0.45508  1.0000
  H   H1354     1.0  0.63463  0.39292  0.32542  1.0000
  H   H1355     1.0  0.69825  0.05149  0.37996  1.0000
  H   H1356     1.0  0.83888  0.44838  0.28587  1.0000
  C   C810      1.0  0.76880  0.04997  0.27043  1.0000
  H   H1357     1.0  0.88838  0.33979  0.41814  1.0000
  C   C811      1.0  0.63680  0.45704  0.26612  1.0000
  H   H1358     1.0  0.73389  0.20178  0.37943  1.0000
  N   N53       1.0  0.73337  0.29271  0.29467  1.0000
  C   C812      1.0  0.75634  0.29494  0.28671  1.0000
  C   C813      1.0  0.71974  0.31018  0.28253  1.0000
  C   C814      1.0  0.72843  0.27208  0.29110  1.0000
  C   C815      1.0  0.72914  0.29369  0.31817  1.0000
  C   C816      1.0  0.77305  0.27765  0.29606  1.0000
  C   C817      1.0  0.73345  0.26775  0.26789  1.0000
  C   C818      1.0  0.70612  0.29218  0.32908  1.0000
  H   H1359     1.0  0.75977  0.29576  0.26914  1.0000
  H   H1360     1.0  0.75995  0.30999  0.28991  1.0000
  H   H1361     1.0  0.70334  0.30663  0.28352  1.0000
  H   H1362     1.0  0.72599  0.31195  0.26521  1.0000
  H   H1363     1.0  0.73674  0.25878  0.30122  1.0000
  H   H1364     1.0  0.71126  0.27100  0.29626  1.0000
  H   H1365     1.0  0.73910  0.28061  0.32686  1.0000
  H   H1366     1.0  0.73428  0.30779  0.32188  1.0000
  H   H1367     1.0  0.77111  0.26182  0.29364  1.0000
  H   H1368     1.0  0.92845  0.43816  0.42454  1.0000
  H   H1369     1.0  0.68082  0.42236  0.30102  1.0000
  H   H1370     1.0  0.72468  0.27987  0.25708  1.0000
  H   H1371     1.0  0.72832  0.25265  0.26707  1.0000
  H   H1372     1.0  0.75069  0.26639  0.26196  1.0000
  H   H1373     1.0  0.70421  0.27563  0.33538  1.0000
  H   H1374     1.0  0.69407  0.29870  0.31851  1.0000
  H   H1375     1.0  0.70232  0.30138  0.34254  1.0000
  N   N54       1.0  0.73277  0.14823  0.39902  1.0000
  C   C819      1.0  0.71669  0.13868  0.41611  1.0000
  C   C820      1.0  0.75379  0.14394  0.40734  1.0000
  C   C821      1.0  0.73477  0.13709  0.38000  1.0000
  C   C822      1.0  0.72498  0.17134  0.39360  1.0000
  C   C823      1.0  0.69443  0.13943  0.41002  1.0000
  C   C824      1.0  0.75351  0.15107  0.42898  1.0000
  C   C825      1.0  0.75070  0.14395  0.36057  1.0000
  C   C826      1.0  0.74192  0.18595  0.38527  1.0000
  H   H1376     1.0  0.72269  0.12199  0.42169  1.0000
  H   H1377     1.0  0.71393  0.14676  0.43037  1.0000
  H   H1378     1.0  0.76623  0.15133  0.39597  1.0000
  H   H1379     1.0  0.75989  0.12685  0.40915  1.0000
  H   H1380     1.0  0.73909  0.11988  0.38460  1.0000
  H   H1381     1.0  0.71939  0.13931  0.37380  1.0000
  H   H1382     1.0  0.71390  0.17400  0.38161  1.0000
  H   H1383     1.0  0.71536  0.17772  0.40767  1.0000
  H   H1384     1.0  0.69449  0.12819  0.39899  1.0000
  H   H1385     1.0  0.68345  0.13456  0.42455  1.0000
  H   H1386     1.0  0.68766  0.15543  0.40336  1.0000
  H   H1387     1.0  0.74640  0.14010  0.44229  1.0000
  H   H1388     1.0  0.77005  0.15119  0.43157  1.0000
  H   H1389     1.0  0.74474  0.16702  0.42978  1.0000
  H   H1390     1.0  0.74477  0.15969  0.35261  1.0000
  H   H1391     1.0  0.75208  0.13316  0.34870  1.0000
  H   H1392     1.0  0.76694  0.14335  0.36425  1.0000
  H   H1393     1.0  0.75058  0.18799  0.39803  1.0000
  C   C827      1.0  0.81053  0.18155  0.25353  1.0000
  H   H1394     1.0  0.73269  0.02258  0.26746  1.0000
  H   H1395     1.0  0.83635  0.37478  0.42935  1.0000
  C   C828      1.0  0.65963  0.05298  0.36449  1.0000
  H   H1396     1.0  0.65416  0.04405  0.38012  1.0000
  H   H1397     1.0  0.67806  0.01128  0.40488  1.0000
  H   H1398     1.0  0.66964  0.37368  0.26002  1.0000
  H   H1399     1.0  0.70188  0.07054  0.39506  1.0000
  C   C829      1.0  0.64650  0.04869  0.34828  1.0000
  H   H1400     1.0  0.76840  0.37072  0.39406  1.0000
  C   C830      1.0  0.85137  0.31377  0.38741  1.0000
  C   C831      1.0  0.67108  0.07677  0.38417  1.0000
  H   H1401     1.0  0.78546  0.34683  0.39701  1.0000
  H   H1402     1.0  0.73200  0.21533  0.25079  1.0000
  H   H1403     1.0  0.64064  0.05775  0.45714  1.0000
  H   H1404     1.0  0.83537  0.31890  0.39581  1.0000
  H   H1405     1.0  0.66073  0.43798  0.24737  1.0000
  N   N55       1.0  0.65929  0.07565  0.36625  1.0000
  C   C832      1.0  0.66959  0.08627  0.34540  1.0000
  H   H1406     1.0  0.82633  0.45109  0.25185  1.0000
  H   H1407     1.0  0.65988  0.08694  0.33257  1.0000
  H   H1408     1.0  0.68120  0.11473  0.32892  1.0000
  H   H1409     1.0  0.70935  0.34379  0.27767  1.0000
  C   C833      1.0  0.68137  0.03245  0.42603  1.0000
  H   H1410     1.0  0.85255  0.34288  0.36693  1.0000
  C   C834      1.0  0.78554  0.46504  0.24409  1.0000
  S   S250      1.0  0.82358  0.33909  0.46968  1.0000
  H   H1411     1.0  0.78590  0.20877  0.27912  1.0000
  H   H1412     1.0  0.83750  0.36276  0.39558  1.0000
  H   H1413     1.0  0.62929  0.05407  0.35234  1.0000
  H   H1414     1.0  0.72670  0.17648  0.47271  1.0000
  H   H1415     1.0  0.84775  0.30005  0.45657  1.0000
  C   C835      1.0  0.67334  0.10894  0.34505  1.0000
  H   H1416     1.0  0.73008  0.19277  0.27026  1.0000
  H   H1417     1.0  0.66432  0.06759  0.39912  1.0000
  H   H1418     1.0  0.65825  0.11962  0.34813  1.0000
  C   C836      1.0  0.79908  0.23531  0.25999  1.0000
  H   H1419     1.0  0.62835  0.08821  0.35696  1.0000
  C   C837      1.0  0.83324  0.30335  0.44984  1.0000
  Fe  Fe126     1.0  0.74821  0.41338  0.25038  1.0000
  H   H1420     1.0  0.74739  0.34338  0.40788  1.0000
  C   C838      1.0  0.75418  0.34466  0.39077  1.0000
  N   N56       1.0  0.77848  0.21034  0.24712  1.0000
  C   C839      1.0  0.63683  0.08653  0.37094  1.0000
  C   C840      1.0  0.78218  0.22055  0.26511  1.0000
  H   H1421     1.0  0.62839  0.40995  0.29171  1.0000
  C   C841      1.0  0.62293  0.07608  0.39042  1.0000
  C   C842      1.0  0.67097  0.04592  0.44065  1.0000
  H   H1422     1.0  0.74145  0.35339  0.38176  1.0000
  H   H1423     1.0  0.78387  0.22275  0.45098  1.0000
  H   H1424     1.0  0.63675  0.10277  0.37386  1.0000
  H   H1425     1.0  0.80092  0.16966  0.26262  1.0000
  H   H1426     1.0  0.75829  0.32842  0.38709  1.0000
  C   C843      1.0  0.71595  0.20007  0.44761  1.0000
  C   C844      1.0  0.66987  0.02103  0.41653  1.0000
  H   H1427     1.0  0.91179  0.30873  0.41044  1.0000
  S   S251      1.0  0.87663  0.36119  0.47946  1.0000
  H   H1428     1.0  0.87736  0.32669  0.36665  1.0000
  H   H1429     1.0  0.89476  0.35450  0.36926  1.0000
  C   C845      1.0  0.81465  0.45704  0.26501  1.0000
  C   C846      1.0  0.68134  0.17788  0.45194  1.0000
  H   H1430     1.0  0.82456  0.17289  0.24460  1.0000
  H   H1431     1.0  0.75282  0.05299  0.27974  1.0000
  S   S252      1.0  0.66018  0.16354  0.45377  1.0000
  H   H1432     1.0  0.83829  0.47448  0.27245  1.0000
  H   H1433     1.0  0.80560  0.23572  0.27476  1.0000
  H   H1434     1.0  0.86196  0.37415  0.35467  1.0000
  H   H1435     1.0  0.70833  0.33288  0.30505  1.0000
  C   C847      1.0  0.64890  0.04748  0.44595  1.0000
  H   H1436     1.0  0.78953  0.02628  0.25529  1.0000
  C   C848      1.0  0.94363  0.46542  0.37538  1.0000
  H   H1437     1.0  0.89867  0.30552  0.38927  1.0000
  C   C849      1.0  0.92629  0.44855  0.40931  1.0000
  H   H1438     1.0  0.69641  0.15700  0.47641  1.0000
  C   C850      1.0  0.86874  0.37950  0.36709  1.0000
  S   S253      1.0  0.78025  0.39331  0.24657  1.0000
  H   H1439     1.0  0.86097  0.35947  0.43431  1.0000
  H   H1440     1.0  0.85606  0.38873  0.37697  1.0000
  C   C851      1.0  0.71999  0.03258  0.23802  1.0000
  H   H1441     1.0  0.62038  0.03707  0.44107  1.0000
  C   C852      1.0  0.82805  0.46263  0.28036  1.0000
  H   H1442     1.0  0.86020  0.38169  0.41334  1.0000
  C   C853      1.0  0.86308  0.33251  0.37753  1.0000
  H   H1443     1.0  0.68236  0.39395  0.28269  1.0000
  S   S254      1.0  0.63233  0.00845  0.41065  1.0000
  S   S255      1.0  0.62390  0.99559  0.35577  1.0000
  H   H1444     1.0  0.66097  0.38836  0.31281  1.0000
  Fe  Fe127     1.0  0.67631  0.08540  0.47394  1.0000
  H   H1445     1.0  0.84160  0.27693  0.43276  1.0000
  H   H1446     1.0  0.87980  0.39052  0.35872  1.0000
  C   C854      1.0  0.85217  0.36826  0.42143  1.0000
  S   S256      1.0  0.68625  0.06080  0.45118  1.0000
  C   C855      1.0  0.64103  0.41616  0.29748  1.0000
  H   H1447     1.0  0.63692  0.42745  0.25640  1.0000
  C   C856      1.0  0.64779  0.02252  0.42195  1.0000
  H   H1448     1.0  0.70383  0.03511  0.24725  1.0000
  C   C857      1.0  0.90265  0.31738  0.39769  1.0000
  C   C858      1.0  0.88134  0.36128  0.38049  1.0000
  H   H1449     1.0  0.87324  0.31952  0.41942  1.0000
  N   N57       1.0  0.86898  0.34454  0.39301  1.0000
  H   H1450     1.0  0.77783  0.45221  0.25449  1.0000
  H   H1451     1.0  0.77172  0.06359  0.25813  1.0000
  Fe  Fe128     1.0  0.85072  0.47012  0.35502  1.0000
  C   C859      1.0  0.67128  0.40245  0.27162  1.0000
  H   H1452     1.0  0.84071  0.34134  0.41605  1.0000
  H   H1453     1.0  0.81658  0.18933  0.26475  1.0000
  H   H1454     1.0  0.84893  0.30553  0.37454  1.0000
  C   C860      1.0  0.76733  0.23124  0.48175  1.0000
  C   C861      1.0  0.64808  0.40105  0.31701  1.0000
  Fe  Fe129     1.0  0.64099  0.98750  0.38445  1.0000
  H   H1455     1.0  0.81822  0.46792  0.29483  1.0000
  C   C862      1.0  0.64862  0.43536  0.26164  1.0000
  H   H1456     1.0  0.78907  0.28049  0.28782  1.0000
  C   C863      1.0  0.78588  0.23209  0.46313  1.0000
  C   C864      1.0  0.65841  0.38652  0.26681  1.0000
  H   H1457     1.0  0.91337  0.32729  0.38683  1.0000
  H   H1458     1.0  0.64776  0.39356  0.25489  1.0000
  H   H1459     1.0  0.75280  0.23554  0.47384  1.0000
  H   H1460     1.0  0.76800  0.18418  0.26962  1.0000
  N   N58       1.0  0.65848  0.42171  0.27978  1.0000
  H   H1461     1.0  0.76862  0.19296  0.47127  1.0000
  C   C865      1.0  0.73981  0.20548  0.26387  1.0000
  Fe  Fe130     1.0  0.66447  0.13234  0.47486  1.0000
  H   H1462     1.0  0.76735  0.23010  0.27155  1.0000
  S   S257      1.0  0.67324  0.98290  0.36531  1.0000
  C   C866      1.0  0.69106  0.44127  0.27188  1.0000
  H   H1463     1.0  0.73915  0.21449  0.27701  1.0000
  H   H1464     1.0  0.89546  0.46233  0.42379  1.0000
  H   H1465     1.0  0.91793  0.44023  0.40038  1.0000
  C   C867      1.0  0.69726  0.17096  0.46482  1.0000
  C   C868      1.0  0.67301  0.43290  0.28827  1.0000
  H   H1466     1.0  0.64913  0.37920  0.28141  1.0000
  C   C869      1.0  0.76263  0.19548  0.25603  1.0000
  H   H1467     1.0  0.76119  0.18589  0.24388  1.0000
  Fe  Fe131     1.0  0.65638  0.98936  0.33684  1.0000
  H   H1468     1.0  0.80695  0.44335  0.27346  1.0000
  N   N59       1.0  0.79829  0.47446  0.25656  1.0000
  H   H1469     1.0  0.93391  0.45757  0.36737  1.0000
  H   H1470     1.0  0.64728  0.46676  0.27059  1.0000
  H   H1471     1.0  0.96827  0.42069  0.42446  1.0000
  H   H1472     1.0  0.68512  0.45274  0.25871  1.0000
  H   H1473     1.0  0.73244  0.04952  0.25689  1.0000
  H   H1474     1.0  0.78122  0.46962  0.28860  1.0000
  C   C870      1.0  0.73634  0.03349  0.25249  1.0000
  S   S258      1.0  0.64476  0.10614  0.47902  1.0000
  N   N60       1.0  0.75951  0.02901  0.24345  1.0000
  H   H1475     1.0  0.79210  0.25145  0.25383  1.0000
  H   H1476     1.0  0.63242  0.43045  0.30393  1.0000
  C   C871      1.0  0.81761  0.05846  0.23930  1.0000
  H   H1477     1.0  0.75748  0.23870  0.23733  1.0000
  H   H1478     1.0  0.97143  0.45484  0.35281  1.0000
  C   C872      1.0  0.82837  0.03817  0.23713  1.0000
  H   H1479     1.0  0.97507  0.40172  0.40656  1.0000
  H   H1480     1.0  0.79862  0.99731  0.24071  1.0000
  C   C873      1.0  0.79843  0.19752  0.23761  1.0000
  C   C874      1.0  0.96380  0.46927  0.35951  1.0000
  H   H1481     1.0  0.62266  0.45582  0.27843  1.0000
  H   H1482     1.0  0.67361  0.98464  0.44927  1.0000
  H   H1483     1.0  0.81301  0.22993  0.24871  1.0000
  H   H1484     1.0  0.91652  0.47495  0.42751  1.0000
  H   H1485     1.0  0.97545  0.47538  0.36665  1.0000
  H   H1486     1.0  0.77215  0.47640  0.23847  1.0000
  H   H1487     1.0  0.63094  0.46560  0.25134  1.0000
  H   H1488     1.0  0.70710  0.98125  0.41758  1.0000
  H   H1489     1.0  0.90671  0.47935  0.40202  1.0000
  H   H1490     1.0  0.95747  0.30024  0.58615  1.0000
  S   S259      1.0  0.55933  0.11998  0.68276  1.0000
  Fe  Fe132     1.0  0.53164  0.11999  0.66553  1.0000
  S   S260      1.0  0.52215  0.14774  0.64182  1.0000
  H   H1491     1.0  0.54843  0.04466  0.59905  1.0000
  S   S261      1.0  0.59233  0.22768  0.71632  1.0000
  Fe  Fe133     1.0  0.52284  0.12409  0.62021  1.0000
  S   S262      1.0  0.53642  0.13024  0.58518  1.0000
  H   H1492     1.0  0.59194  0.13987  0.69261  1.0000
  S   S263      1.0  0.53448  0.09649  0.64314  1.0000
  C   C875      1.0  0.49667  0.08193  0.57331  1.0000
  H   H1493     1.0  0.93100  0.36257  0.63266  1.0000
  H   H1494     1.0  0.53270  0.04829  0.62415  1.0000
  H   H1495     1.0  0.73502  0.22736  0.53101  1.0000
  S   S264      1.0  0.94981  0.34664  0.67953  1.0000
  H   H1496     1.0  0.97204  0.46176  0.65974  1.0000
  H   H1497     1.0  0.54155  0.08203  0.68870  1.0000
  H   H1498     1.0  0.97493  0.28226  0.60162  1.0000
  C   C876      1.0  0.52661  0.24300  0.65274  1.0000
  S   S265      1.0  0.92398  0.25539  0.69645  1.0000
  S   S266      1.0  0.82141  0.23488  0.70546  1.0000
  Fe  Fe134     1.0  0.88835  0.30145  0.49859  1.0000
  S   S267      1.0  0.86224  0.32301  0.51445  1.0000
  S   S268      1.0  0.88723  0.26820  0.51496  1.0000
  Fe  Fe135     1.0  0.88683  0.34453  0.51088  1.0000
  S   S269      1.0  0.89252  0.35905  0.53920  1.0000
  C   C877      1.0  0.51758  0.04743  0.57484  1.0000
  N   N61       1.0  0.53111  0.06628  0.72006  1.0000
  H   H1499     1.0  0.92896  0.32544  0.58886  1.0000
  Fe  Fe136     1.0  0.69616  0.10841  0.50279  1.0000
  S   S270      1.0  0.66599  0.13017  0.50962  1.0000
  S   S271      1.0  0.72591  0.11056  0.51641  1.0000
  Fe  Fe137     1.0  0.64943  0.10193  0.51358  1.0000
  S   S272      1.0  0.62867  0.09128  0.54468  1.0000
  H   H1500     1.0  0.55942  0.05132  0.55551  1.0000
  H   H1501     1.0  0.53913  0.03271  0.72823  1.0000
  S   S273      1.0  0.68009  0.07967  0.50867  1.0000
  H   H1502     1.0  0.81020  0.19753  0.50486  1.0000
  Fe  Fe138     1.0  0.74508  0.23297  0.60960  1.0000
  S   S274      1.0  0.75307  0.19812  0.61652  1.0000
  S   S275      1.0  0.71894  0.25235  0.62928  1.0000
  Fe  Fe139     1.0  0.77850  0.23533  0.56904  1.0000
  S   S276      1.0  0.78850  0.20060  0.57336  1.0000
  S   S277      1.0  0.79031  0.25643  0.53933  1.0000
  Fe  Fe140     1.0  0.75354  0.19814  0.58144  1.0000
  S   S278      1.0  0.72980  0.18455  0.56723  1.0000
  Fe  Fe141     1.0  0.78694  0.20431  0.60792  1.0000
  S   S279      1.0  0.81319  0.19014  0.62774  1.0000
  S   S280      1.0  0.74377  0.23294  0.57520  1.0000
  S   S281      1.0  0.77885  0.23930  0.60279  1.0000
  C   C878      1.0  0.90881  0.30161  0.59411  1.0000
  C   C879      1.0  0.57711  0.14570  0.70176  1.0000
  H   H1503     1.0  0.54116  0.22940  0.68080  1.0000
  H   H1504     1.0  0.69477  0.07270  0.55268  1.0000
  H   H1505     1.0  0.66861  0.07320  0.61202  1.0000
  C   C880      1.0  0.73025  0.16447  0.55194  1.0000
  C   C881      1.0  0.74729  0.14830  0.54964  1.0000
  C   C882      1.0  0.74600  0.13208  0.53829  1.0000
  C   C883      1.0  0.72780  0.13203  0.52902  1.0000
  C   C884      1.0  0.71113  0.14861  0.53080  1.0000
  C   C885      1.0  0.71228  0.16460  0.54234  1.0000
  H   H1506     1.0  0.76122  0.14800  0.55698  1.0000
  H   H1507     1.0  0.75902  0.11934  0.53695  1.0000
  H   H1508     1.0  0.69724  0.14906  0.52343  1.0000
  H   H1509     1.0  0.69912  0.17719  0.54379  1.0000
  C   C886      1.0  0.86085  0.26271  0.52039  1.0000
  C   C887      1.0  0.85445  0.24868  0.53836  1.0000
  C   C888      1.0  0.83292  0.24603  0.54419  1.0000
  C   C889      1.0  0.81788  0.25675  0.53138  1.0000
  C   C890      1.0  0.82473  0.26921  0.51233  1.0000
  C   C891      1.0  0.84593  0.27278  0.50726  1.0000
  H   H1510     1.0  0.86619  0.24033  0.54796  1.0000
  H   H1511     1.0  0.82794  0.23594  0.55863  1.0000
  H   H1512     1.0  0.81347  0.27686  0.50179  1.0000
  C   C892      1.0  0.73010  0.22673  0.51553  1.0000
  C   C893      1.0  0.81962  0.22187  0.68413  1.0000
  C   C894      1.0  0.80260  0.22901  0.67253  1.0000
  C   C895      1.0  0.80035  0.21923  0.65547  1.0000
  C   C896      1.0  0.81498  0.20200  0.64995  1.0000
  C   C897      1.0  0.83180  0.19455  0.66182  1.0000
  C   C898      1.0  0.83425  0.20456  0.67874  1.0000
  H   H1513     1.0  0.79110  0.24227  0.67672  1.0000
  H   H1514     1.0  0.78717  0.22496  0.64672  1.0000
  H   H1515     1.0  0.84308  0.18108  0.65780  1.0000
  H   H1516     1.0  0.84723  0.19871  0.68778  1.0000
  C   C899      1.0  0.95626  0.35276  0.56590  1.0000
  C   C900      1.0  0.95491  0.34228  0.54898  1.0000
  C   C901      1.0  0.93570  0.34411  0.54065  1.0000
  C   C902      1.0  0.91738  0.35660  0.54898  1.0000
  C   C903      1.0  0.91872  0.36722  0.56586  1.0000
  C   C904      1.0  0.93799  0.36539  0.57422  1.0000
  H   H1517     1.0  0.96888  0.33258  0.54225  1.0000
  H   H1518     1.0  0.93514  0.33587  0.52767  1.0000
  H   H1519     1.0  0.90477  0.37706  0.57240  1.0000
  H   H1520     1.0  0.93875  0.37386  0.58697  1.0000
  C   C905      1.0  0.94328  0.32093  0.68578  1.0000
  C   C906      1.0  0.95741  0.30392  0.67888  1.0000
  C   C907      1.0  0.95139  0.28389  0.68259  1.0000
  C   C908      1.0  0.93133  0.28053  0.69360  1.0000
  C   C909      1.0  0.91741  0.29732  0.70125  1.0000
  C   C910      1.0  0.92337  0.31748  0.69729  1.0000
  C   C911      1.0  0.98071  0.44823  0.65211  1.0000
  H   H1521     1.0  0.96233  0.27096  0.67680  1.0000
  H   H1522     1.0  0.90191  0.29488  0.70985  1.0000
  H   H1523     1.0  0.91238  0.33048  0.70288  1.0000
  C   C912      1.0  0.67149  0.21840  0.67831  1.0000
  C   C913      1.0  0.69010  0.20715  0.66886  1.0000
  C   C914      1.0  0.70513  0.21754  0.65458  1.0000
  C   C915      1.0  0.70154  0.23928  0.64928  1.0000
  C   C916      1.0  0.68318  0.25067  0.65922  1.0000
  C   C917      1.0  0.66815  0.24026  0.67375  1.0000
  H   H1524     1.0  0.69280  0.19025  0.67238  1.0000
  H   H1525     1.0  0.71929  0.20862  0.64741  1.0000
  H   H1526     1.0  0.68033  0.26753  0.65529  1.0000
  C   C918      1.0  0.56265  0.12028  0.57456  1.0000
  C   C919      1.0  0.57549  0.10502  0.58655  1.0000
  C   C920      1.0  0.59569  0.09643  0.57713  1.0000
  C   C921      1.0  0.60346  0.10328  0.55581  1.0000
  C   C922      1.0  0.59082  0.11886  0.54395  1.0000
  C   C923      1.0  0.57042  0.12715  0.55325  1.0000
  H   H1527     1.0  0.56972  0.09958  0.60294  1.0000
  H   H1528     1.0  0.60530  0.08429  0.58639  1.0000
  H   H1529     1.0  0.59656  0.12420  0.52750  1.0000
  H   H1530     1.0  0.56058  0.13892  0.54384  1.0000
  H   H1531     1.0  0.74349  0.34828  0.55565  1.0000
  H   H1532     1.0  0.55491  0.03406  0.69473  1.0000
  H   H1533     1.0  0.55270  0.20184  0.65951  1.0000
  C   C924      1.0  0.93170  0.40531  0.67366  1.0000
  C   C925      1.0  0.94559  0.29415  0.62063  1.0000
  N   N62       1.0  0.86757  0.23782  0.61328  1.0000
  C   C926      1.0  0.86021  0.24292  0.63560  1.0000
  C   C927      1.0  0.85282  0.25168  0.59918  1.0000
  C   C928      1.0  0.88972  0.24327  0.60652  1.0000
  C   C929      1.0  0.86737  0.21478  0.61352  1.0000
  C   C930      1.0  0.87451  0.23230  0.65247  1.0000
  C   C931      1.0  0.82908  0.24969  0.60557  1.0000
  C   C932      1.0  0.89998  0.24113  0.58349  1.0000
  C   C933      1.0  0.86549  0.20767  0.59236  1.0000
  H   H1534     1.0  0.85827  0.26012  0.63577  1.0000
  H   H1535     1.0  0.84425  0.23831  0.64186  1.0000
  H   H1536     1.0  0.85695  0.24889  0.58250  1.0000
  H   H1537     1.0  0.85436  0.26845  0.59860  1.0000
  H   H1538     1.0  0.88996  0.25969  0.60872  1.0000
  H   H1539     1.0  0.90098  0.23321  0.61662  1.0000
  H   H1540     1.0  0.88168  0.20526  0.61961  1.0000
  H   H1541     1.0  0.85356  0.20974  0.62475  1.0000
  H   H1542     1.0  0.87792  0.21509  0.65292  1.0000
  H   H1543     1.0  0.88954  0.23897  0.65019  1.0000
  H   H1544     1.0  0.86609  0.23528  0.66844  1.0000
  H   H1545     1.0  0.82203  0.25736  0.61972  1.0000
  H   H1546     1.0  0.82035  0.25778  0.59234  1.0000
  H   H1547     1.0  0.82628  0.23318  0.60869  1.0000
  H   H1548     1.0  0.89053  0.25058  0.57143  1.0000
  H   H1549     1.0  0.90365  0.22451  0.58097  1.0000
  H   H1550     1.0  0.91549  0.24706  0.58046  1.0000
  H   H1551     1.0  0.87402  0.19147  0.59210  1.0000
  H   H1552     1.0  0.87226  0.21719  0.57788  1.0000
  H   H1553     1.0  0.84870  0.20654  0.59146  1.0000
  C   C934      1.0  0.55756  0.06765  0.55866  1.0000
  H   H1554     1.0  0.97088  0.18908  0.73317  1.0000
  C   C935      1.0  0.91781  0.31856  0.60219  1.0000
  H   H1555     1.0  0.97857  0.39679  0.71911  1.0000
  H   H1556     1.0  0.71309  0.11823  0.57293  1.0000
  H   H1557     1.0  0.93976  0.27952  0.61955  1.0000
  H   H1558     1.0  0.89987  0.28059  0.63260  1.0000
  H   H1559     1.0  0.89231  0.28453  0.65967  1.0000
  H   H1560     1.0  0.77025  0.22518  0.52365  1.0000
  H   H1561     1.0  0.78472  0.15859  0.48902  1.0000
  H   H1562     1.0  0.64164  0.07198  0.61037  1.0000
  Fe  Fe142     1.0  0.85040  0.23440  0.72128  1.0000
  H   H1563     1.0  0.76731  0.24447  0.49053  1.0000
  H   H1564     1.0  0.80555  0.29289  0.55969  1.0000
  H   H1565     1.0  0.95246  0.39069  0.69607  1.0000
  H   H1566     1.0  0.70025  0.13950  0.58724  1.0000
  H   H1567     1.0  0.53316  0.03747  0.57550  1.0000
  H   H1568     1.0  0.82101  0.34819  0.53218  1.0000
  H   H1569     1.0  0.94721  0.32602  0.63881  1.0000
  H   H1570     1.0  0.62359  0.23061  0.64081  1.0000
  S   S282      1.0  0.91326  0.32224  0.49628  1.0000
  H   H1571     1.0  0.93048  0.43651  0.72231  1.0000
  C   C936      1.0  0.55827  0.13882  0.69962  1.0000
  S   S283      1.0  0.88366  0.21657  0.72020  1.0000
  H   H1572     1.0  0.52463  0.14092  0.71038  1.0000
  H   H1573     1.0  0.97613  0.41818  0.64589  1.0000
  H   H1574     1.0  0.91181  0.35691  0.61852  1.0000
  H   H1575     1.0  0.96219  0.44716  0.69335  1.0000
  H   H1576     1.0  0.51567  0.20157  0.65548  1.0000
  H   H1577     1.0  0.94544  0.21071  0.71028  1.0000
  S   S284      1.0  0.97629  0.37870  0.62740  1.0000
  H   H1578     1.0  0.82986  0.30123  0.54531  1.0000
  C   C937      1.0  0.53976  0.05656  0.60875  1.0000
  C   C938      1.0  0.93746  0.33069  0.62567  1.0000
  H   H1579     1.0  0.89636  0.31860  0.64016  1.0000
  N   N63       1.0  0.51823  0.06987  0.57693  1.0000
  H   H1580     1.0  0.90439  0.33153  0.60407  1.0000
  C   C939      1.0  0.90543  0.28520  0.64609  1.0000
  H   H1581     1.0  0.91811  0.28586  0.59673  1.0000
  H   H1582     1.0  0.91156  0.34713  0.64668  1.0000
  N   N64       1.0  0.92783  0.31233  0.62224  1.0000
  H   H1583     1.0  0.91690  0.30978  0.65609  1.0000
  H   H1584     1.0  0.54935  0.18613  0.68532  1.0000
  C   C940      1.0  0.91138  0.30748  0.64133  1.0000
  H   H1585     1.0  0.91885  0.27350  0.65125  1.0000
  C   C941      1.0  0.51936  0.19813  0.67196  1.0000
  H   H1586     1.0  0.54688  0.17576  0.66232  1.0000
  S   S285      1.0  0.65245  0.20420  0.69444  1.0000
  C   C942      1.0  0.53922  0.14625  0.71171  1.0000
  H   H1587     1.0  0.71297  0.08676  0.55939  1.0000
  H   H1588     1.0  0.90959  0.30544  0.57654  1.0000
  C   C943      1.0  0.54762  0.04914  0.68648  1.0000
  C   C944      1.0  0.92174  0.35025  0.63115  1.0000
  H   H1589     1.0  0.65380  0.24906  0.68098  1.0000
  H   H1590     1.0  0.52663  0.23131  0.64228  1.0000
  H   H1591     1.0  0.94850  0.33610  0.61141  1.0000
  C   C945      1.0  0.52479  0.23396  0.67654  1.0000
  H   H1592     1.0  0.69563  0.07295  0.57993  1.0000
  C   C946      1.0  0.96347  0.29697  0.60167  1.0000
  H   H1593     1.0  0.56265  0.06770  0.70189  1.0000
  H   H1594     1.0  0.73555  0.20661  0.49137  1.0000
  H   H1595     1.0  0.73565  0.33367  0.53751  1.0000
  H   H1596     1.0  0.96389  0.38931  0.66972  1.0000
  N   N65       1.0  0.66716  0.22030  0.60257  1.0000
  C   C947      1.0  0.69018  0.21165  0.60405  1.0000
  C   C948      1.0  0.66673  0.24142  0.58885  1.0000
  C   C949      1.0  0.65856  0.20564  0.59169  1.0000
  C   C950      1.0  0.65543  0.22138  0.62479  1.0000
  C   C951      1.0  0.69462  0.18894  0.61540  1.0000
  C   C952      1.0  0.67743  0.25741  0.59663  1.0000
  C   C953      1.0  0.63552  0.21192  0.58714  1.0000
  C   C954      1.0  0.63477  0.23723  0.62728  1.0000
  H   H1597     1.0  0.69970  0.21247  0.58794  1.0000
  H   H1598     1.0  0.69735  0.22132  0.61263  1.0000
  H   H1599     1.0  0.65039  0.24904  0.58688  1.0000
  H   H1600     1.0  0.67473  0.23963  0.57239  1.0000
  H   H1601     1.0  0.66882  0.20332  0.57626  1.0000
  H   H1602     1.0  0.65888  0.18988  0.60140  1.0000
  H   H1603     1.0  0.65162  0.20569  0.63263  1.0000
  H   H1604     1.0  0.66590  0.22580  0.63473  1.0000
  H   H1605     1.0  0.68478  0.18642  0.63118  1.0000
  H   H1606     1.0  0.69263  0.17746  0.60538  1.0000
  H   H1607     1.0  0.71146  0.18549  0.61807  1.0000
  H   H1608     1.0  0.69500  0.25390  0.59307  1.0000
  H   H1609     1.0  0.67277  0.27328  0.58802  1.0000
  H   H1610     1.0  0.67281  0.25807  0.61386  1.0000
  H   H1611     1.0  0.62408  0.21120  0.60206  1.0000
  H   H1612     1.0  0.63190  0.20037  0.57802  1.0000
  H   H1613     1.0  0.63285  0.22739  0.57719  1.0000
  H   H1614     1.0  0.93218  0.41098  0.65641  1.0000
  H   H1615     1.0  0.62623  0.24117  0.61338  1.0000
  H   H1616     1.0  0.63797  0.25179  0.63199  1.0000
  N   N66       1.0  0.78209  0.33012  0.53261  1.0000
  C   C955      1.0  0.77415  0.33644  0.51142  1.0000
  C   C956      1.0  0.78621  0.34953  0.53988  1.0000
  C   C957      1.0  0.76600  0.31992  0.54904  1.0000
  C   C958      1.0  0.80197  0.31452  0.53001  1.0000
  C   C959      1.0  0.74360  0.20859  0.50471  1.0000
  C   C960      1.0  0.80633  0.35857  0.52823  1.0000
  H   H1617     1.0  0.50669  0.19403  0.71264  1.0000
  C   C961      1.0  0.81267  0.30642  0.55012  1.0000
  H   H1618     1.0  0.76013  0.34893  0.51233  1.0000
  C   C962      1.0  0.49408  0.10588  0.57241  1.0000
  H   H1619     1.0  0.78730  0.34687  0.55718  1.0000
  H   H1620     1.0  0.77263  0.36235  0.53798  1.0000
  H   H1621     1.0  0.76465  0.30412  0.54568  1.0000
  H   H1622     1.0  0.77134  0.31687  0.56495  1.0000
  H   H1623     1.0  0.71237  0.16089  0.72693  1.0000
  H   H1624     1.0  0.81393  0.32005  0.51656  1.0000
  H   H1625     1.0  0.53101  0.20427  0.70921  1.0000
  Fe  Fe143     1.0  0.89392  0.24817  0.71822  1.0000
  H   H1626     1.0  0.59145  0.16576  0.71672  1.0000
  H   H1627     1.0  0.80663  0.37377  0.53347  1.0000
  H   H1628     1.0  0.51388  0.04645  0.55881  1.0000
  H   H1629     1.0  0.80682  0.36155  0.51074  1.0000
  C   C963      1.0  0.95412  0.40029  0.68017  1.0000
  C   C964      1.0  0.50421  0.22374  0.72319  1.0000
  C   C965      1.0  0.94541  0.42654  0.71668  1.0000
  H   H1630     1.0  0.51085  0.18467  0.67942  1.0000
  H   H1631     1.0  0.81179  0.31854  0.56033  1.0000
  H   H1632     1.0  0.97268  0.30935  0.60292  1.0000
  H   H1633     1.0  0.53531  0.09526  0.56105  1.0000
  H   H1634     1.0  0.50766  0.04783  0.71548  1.0000
  C   C966      1.0  0.76831  0.31871  0.50157  1.0000
  C   C967      1.0  0.50938  0.06449  0.71524  1.0000
  H   H1635     1.0  0.78625  0.34362  0.49939  1.0000
  S   S286      1.0  0.86125  0.26587  0.71646  1.0000
  H   H1636     1.0  0.73175  0.20060  0.72377  1.0000
  H   H1637     1.0  0.53204  0.04744  0.68245  1.0000
  H   H1638     1.0  0.94133  0.41054  0.71965  1.0000
  H   H1639     1.0  0.92099  0.41657  0.68306  1.0000
  C   C968      1.0  0.98044  0.22737  0.71730  1.0000
  H   H1640     1.0  0.97304  0.30614  0.67072  1.0000
  H   H1641     1.0  0.50728  0.07211  0.69880  1.0000
  C   C969      1.0  0.72395  0.16911  0.73192  1.0000
  C   C970      1.0  0.53446  0.07878  0.55960  1.0000
  H   H1642     1.0  0.77413  0.19756  0.52834  1.0000
  H   H1643     1.0  0.80524  0.22604  0.50129  1.0000
  H   H1644     1.0  0.95247  0.43585  0.65134  1.0000
  H   H1645     1.0  0.64396  0.12995  0.55178  1.0000
  H   H1646     1.0  0.62756  0.13750  0.57554  1.0000
  H   H1647     1.0  0.89195  0.30116  0.60117  1.0000
  H   H1648     1.0  0.93361  0.19153  0.72938  1.0000
  H   H1649     1.0  0.66075  0.06849  0.58754  1.0000
  H   H1650     1.0  0.71704  0.11810  0.59965  1.0000
  H   H1651     1.0  0.96782  0.23373  0.70715  1.0000
  H   H1652     1.0  0.54211  0.24885  0.64760  1.0000
  C   C971      1.0  0.54344  0.19023  0.66984  1.0000
  C   C972      1.0  0.57690  0.16029  0.71547  1.0000
  H   H1653     1.0  0.49843  0.11036  0.58668  1.0000
  N   N67       1.0  0.67024  0.11168  0.58230  1.0000
  C   C973      1.0  0.66192  0.13462  0.57649  1.0000
  C   C974      1.0  0.68607  0.11037  0.59735  1.0000
  C   C975      1.0  0.65172  0.10097  0.59368  1.0000
  C   C976      1.0  0.67994  0.10277  0.56215  1.0000
  C   C977      1.0  0.64248  0.13965  0.56451  1.0000
  C   C978      1.0  0.70507  0.12231  0.58856  1.0000
  C   C979      1.0  0.65642  0.07732  0.60124  1.0000
  C   C980      1.0  0.69664  0.08278  0.56423  1.0000
  H   H1654     1.0  0.65741  0.14247  0.59097  1.0000
  H   H1655     1.0  0.67448  0.14296  0.56625  1.0000
  H   H1656     1.0  0.69281  0.09405  0.60281  1.0000
  H   H1657     1.0  0.67808  0.11652  0.61223  1.0000
  H   H1658     1.0  0.64388  0.10861  0.60774  1.0000
  H   H1659     1.0  0.63935  0.10251  0.58326  1.0000
  H   H1660     1.0  0.66737  0.09942  0.55398  1.0000
  H   H1661     1.0  0.68812  0.11456  0.55068  1.0000
  H   H1662     1.0  0.64080  0.15629  0.55698  1.0000
  H   H1663     1.0  0.56748  0.07608  0.54522  1.0000
  N   N68       1.0  0.51171  0.21647  0.68404  1.0000
  H   H1664     1.0  0.79813  0.30037  0.52527  1.0000
  Fe  Fe144     1.0  0.62668  0.21636  0.71969  1.0000
  C   C981      1.0  0.95273  0.43456  0.69312  1.0000
  H   H1665     1.0  0.56440  0.06843  0.57303  1.0000
  H   H1666     1.0  0.55191  0.06499  0.61241  1.0000
  H   H1667     1.0  0.75880  0.16676  0.50186  1.0000
  H   H1668     1.0  0.95310  0.29060  0.63542  1.0000
  H   H1669     1.0  0.51821  0.24749  0.68516  1.0000
  S   S287      1.0  0.98101  0.34909  0.57606  1.0000
  H   H1670     1.0  0.76096  0.32567  0.48712  1.0000
  N   N69       1.0  0.76661  0.21085  0.49689  1.0000
  C   C982      1.0  0.77526  0.17051  0.49854  1.0000
  Fe  Fe145     1.0  0.49988  0.09448  0.65506  1.0000
  C   C983      1.0  0.52237  0.07254  0.59857  1.0000
  H   H1671     1.0  0.52552  0.10008  0.71717  1.0000
  H   H1672     1.0  0.92452  0.39064  0.67674  1.0000
  H   H1673     1.0  0.70003  0.23030  0.70444  1.0000
  H   H1674     1.0  0.73039  0.24212  0.50533  1.0000
  H   H1675     1.0  0.71017  0.19612  0.71309  1.0000
  H   H1676     1.0  0.73355  0.32407  0.56524  1.0000
  H   H1677     1.0  0.55810  0.05251  0.67115  1.0000
  H   H1678     1.0  0.52970  0.07923  0.54370  1.0000
  H   H1679     1.0  0.50757  0.07220  0.61027  1.0000
  Fe  Fe146     1.0  0.97826  0.35192  0.65440  1.0000
  H   H1680     1.0  0.52660  0.08835  0.59810  1.0000
  C   C984      1.0  0.74347  0.33246  0.55178  1.0000
  H   H1681     1.0  0.71331  0.22388  0.51899  1.0000
  C   C985      1.0  0.50139  0.03632  0.59145  1.0000
  C   C986      1.0  0.53056  0.08630  0.72889  1.0000
  H   H1682     1.0  0.68724  0.25232  0.71682  1.0000
  C   C987      1.0  0.53917  0.16016  0.72609  1.0000
  H   H1683     1.0  0.78202  0.16850  0.51354  1.0000
  H   H1684     1.0  0.95755  0.42747  0.72664  1.0000
  H   H1685     1.0  0.74216  0.19434  0.51663  1.0000
  C   C988      1.0  0.77718  0.21115  0.51591  1.0000
  C   C989      1.0  0.68947  0.23495  0.71882  1.0000
  N   N70       1.0  0.96530  0.41883  0.67953  1.0000
  C   C990      1.0  0.98719  0.41147  0.68575  1.0000
  H   H1686     1.0  0.93856  0.44318  0.68604  1.0000
  H   H1687     1.0  0.67359  0.23045  0.71952  1.0000
  C   C991      1.0  0.51403  0.20856  0.70708  1.0000
  H   H1688     1.0  0.75670  0.30980  0.51241  1.0000
  H   H1689     1.0  0.85078  0.28328  0.49310  1.0000
  H   H1690     1.0  0.75440  0.28372  0.72619  1.0000
  C   C992      1.0  0.80130  0.21148  0.51158  1.0000
  H   H1691     1.0  0.78265  0.30785  0.49620  1.0000
  C   C993      1.0  0.54615  0.06729  0.69937  1.0000
  H   H1692     1.0  0.51369  0.25623  0.64980  1.0000
  H   H1693     1.0  0.73970  0.16520  0.72231  1.0000
  H   H1694     1.0  0.80709  0.21141  0.52683  1.0000
  C   C994      1.0  0.96807  0.42956  0.65677  1.0000
  H   H1695     1.0  0.51152  0.23825  0.71997  1.0000
  H   H1696     1.0  0.67641  0.19469  0.73146  1.0000
  C   C995      1.0  0.55792  0.16752  0.72776  1.0000
  H   H1697     1.0  0.50277  0.03785  0.60798  1.0000
  H   H1698     1.0  0.50427  0.01934  0.59026  1.0000
  C   C996      1.0  0.71716  0.19299  0.72815  1.0000
  S   S288      1.0  0.49832  0.11533  0.67991  1.0000
  H   H1699     1.0  0.98544  0.25952  0.71888  1.0000
  H   H1700     1.0  0.56456  0.09068  0.72181  1.0000
  H   H1701     1.0  0.98697  0.37849  0.70022  1.0000
  H   H1702     1.0  0.50332  0.11345  0.55791  1.0000
  C   C997      1.0  0.94064  0.20615  0.72754  1.0000
  C   C998      1.0  0.98938  0.39353  0.70449  1.0000
  H   H1703     1.0  0.98298  0.45357  0.63468  1.0000
  H   H1704     1.0  0.81120  0.28570  0.72997  1.0000
  H   H1705     1.0  0.92788  0.21809  0.73368  1.0000
  H   H1706     1.0  0.78371  0.29607  0.73226  1.0000
  H   H1707     1.0  0.49227  0.07902  0.55820  1.0000
  H   H1708     1.0  0.98985  0.21388  0.70993  1.0000
  C   C999      1.0  0.77640  0.19245  0.48549  1.0000
  Fe  Fe147     1.0  0.53476  0.32647  0.84595  1.0000
  S   S289      1.0  0.56648  0.31874  0.82570  1.0000
  S   S290      1.0  0.52985  0.34944  0.86911  1.0000
  H   H1709     1.0  0.66741  0.25716  0.84925  1.0000
  S   S291      1.0  0.84502  0.23157  0.75695  1.0000
  H   H1710     1.0  0.75892  0.24422  0.79571  1.0000
  Fe  Fe148     1.0  0.61894  0.21339  0.76774  1.0000
  H   H1711     1.0  0.66370  0.29861  0.97230  1.0000
  S   S292      1.0  0.63441  0.20407  0.79770  1.0000
  H   H1712     1.0  0.79953  0.29869  0.75205  1.0000
  S   S293      1.0  0.88838  0.19081  0.78189  1.0000
  H   H1713     1.0  0.81192  0.22961  0.93668  1.0000
  H   H1714     1.0  0.94867  0.11726  0.93114  1.0000
  S   S294      1.0  0.58381  0.22348  0.76870  1.0000
  C   C1000     1.0  0.70970  0.19764  0.76670  1.0000
  H   H1715     1.0  0.84805  0.23345  0.88236  1.0000
  H   H1716     1.0  0.71142  0.18069  0.77281  1.0000
  S   S295      1.0  0.59211  0.36562  0.96226  1.0000
  H   H1717     1.0  0.52934  0.26234  0.74386  1.0000
  Fe  Fe149     1.0  0.72432  0.24122  0.84269  1.0000
  S   S296      1.0  0.72179  0.27007  0.85790  1.0000
  S   S297      1.0  0.71115  0.24661  0.81142  1.0000
  Fe  Fe150     1.0  0.75014  0.21449  0.87597  1.0000
  S   S298      1.0  0.74918  0.24123  0.89369  1.0000
  S   S299      1.0  0.77092  0.18395  0.88502  1.0000
  Fe  Fe151     1.0  0.71510  0.24905  0.88870  1.0000
  S   S300      1.0  0.68797  0.25817  0.91396  1.0000
  Fe  Fe152     1.0  0.75611  0.25945  0.86130  1.0000
  S   S301      1.0  0.77995  0.28170  0.85564  1.0000
  S   S302      1.0  0.71516  0.22062  0.87338  1.0000
  S   S303      1.0  0.75941  0.23237  0.84371  1.0000
  Fe  Fe153     1.0  0.85764  0.26187  0.75204  1.0000
  H   H1718     1.0  0.51893  0.22651  0.81698  1.0000
  S   S304      1.0  0.84218  0.28937  0.76843  1.0000
  S   S305      1.0  0.52662  0.29990  0.87100  1.0000
  S   S306      1.0  0.53267  0.31584  0.92564  1.0000
  C   C1001     1.0  0.81988  0.21595  0.86577  1.0000
  H   H1719     1.0  0.73279  0.28568  0.79146  1.0000
  H   H1720     1.0  0.80530  0.26561  0.91697  1.0000
  Fe  Fe154     1.0  0.51983  0.32336  0.89380  1.0000
  N   N71       1.0  0.70181  0.20263  0.74542  1.0000
  H   H1721     1.0  0.62375  0.30267  0.84696  1.0000
  C   C1002     1.0  0.94508  0.15386  0.77178  1.0000
  H   H1722     1.0  0.65145  0.27610  0.81463  1.0000
  H   H1723     1.0  0.54889  0.10511  0.74124  1.0000
  C   C1003     1.0  0.92658  0.18471  0.79696  1.0000
  N   N72       1.0  0.50912  0.26089  0.78688  1.0000
  H   H1724     1.0  0.78546  0.24774  0.79616  1.0000
  C   C1004     1.0  0.79745  0.28275  0.83153  1.0000
  C   C1005     1.0  0.80617  0.26479  0.82218  1.0000
  C   C1006     1.0  0.82047  0.26636  0.80301  1.0000
  C   C1007     1.0  0.82564  0.28596  0.79306  1.0000
  C   C1008     1.0  0.81694  0.30375  0.80257  1.0000
  C   C1009     1.0  0.80314  0.30211  0.82180  1.0000
  H   H1725     1.0  0.80210  0.24974  0.82980  1.0000
  H   H1726     1.0  0.82733  0.25251  0.79591  1.0000
  H   H1727     1.0  0.82094  0.31890  0.79503  1.0000
  H   H1728     1.0  0.79664  0.31600  0.82904  1.0000
  C   C1010     1.0  0.69308  0.30715  0.95466  1.0000
  C   C1011     1.0  0.67627  0.29546  0.95951  1.0000
  C   C1012     1.0  0.67548  0.27971  0.94758  1.0000
  C   C1013     1.0  0.69154  0.27543  0.93070  1.0000
  C   C1014     1.0  0.70901  0.28628  0.92649  1.0000
  C   C1015     1.0  0.70978  0.30209  0.93851  1.0000
  H   H1729     1.0  0.96391  0.25140  0.74905  1.0000
  H   H1730     1.0  0.66207  0.27118  0.95109  1.0000
  H   H1731     1.0  0.72149  0.28308  0.91348  1.0000
  H   H1732     1.0  0.72299  0.31089  0.93478  1.0000
  C   C1016     1.0  0.94217  0.13354  0.92721  1.0000
  C   C1017     1.0  0.92320  0.14183  0.93928  1.0000
  C   C1018     1.0  0.79368  0.25455  0.91899  1.0000
  H   H1733     1.0  0.91526  0.13196  0.95232  1.0000
  C   C1019     1.0  0.78436  0.17183  0.95381  1.0000
  C   C1020     1.0  0.76695  0.18633  0.94798  1.0000
  C   C1021     1.0  0.76273  0.19009  0.92693  1.0000
  C   C1022     1.0  0.77562  0.17900  0.91165  1.0000
  C   C1023     1.0  0.79278  0.16411  0.91757  1.0000
  H   H1734     1.0  0.75664  0.19470  0.95979  1.0000
  H   H1735     1.0  0.74918  0.20121  0.92266  1.0000
  H   H1736     1.0  0.74887  0.27262  0.81176  1.0000
  H   H1737     1.0  0.98021  0.20709  0.77053  1.0000
  C   C1024     1.0  0.65479  0.21687  0.80220  1.0000
  C   C1025     1.0  0.66617  0.20845  0.81918  1.0000
  C   C1026     1.0  0.68303  0.21784  0.82271  1.0000
  C   C1027     1.0  0.68873  0.23563  0.80912  1.0000
  C   C1028     1.0  0.67704  0.24434  0.79248  1.0000
  C   C1029     1.0  0.66001  0.23511  0.78913  1.0000
  H   H1738     1.0  0.66213  0.19440  0.82946  1.0000
  H   H1739     1.0  0.69197  0.21096  0.83556  1.0000
  H   H1740     1.0  0.68124  0.25823  0.78203  1.0000
  H   H1741     1.0  0.65109  0.24201  0.77631  1.0000
  C   C1030     1.0  0.55028  0.32927  0.93485  1.0000
  C   C1031     1.0  0.55891  0.32050  0.95357  1.0000
  C   C1032     1.0  0.57214  0.33110  0.96195  1.0000
  C   C1033     1.0  0.57648  0.35089  0.95196  1.0000
  C   C1034     1.0  0.56780  0.35966  0.93326  1.0000
  C   C1035     1.0  0.55516  0.34877  0.92451  1.0000
  H   H1742     1.0  0.55522  0.30543  0.96175  1.0000
  H   H1743     1.0  0.57092  0.37502  0.92546  1.0000
  H   H1744     1.0  0.54886  0.35564  0.91000  1.0000
  C   C1036     1.0  0.56667  0.30724  0.80289  1.0000
  C   C1037     1.0  0.57911  0.28779  0.80068  1.0000
  C   C1038     1.0  0.58127  0.27921  0.78181  1.0000
  C   C1039     1.0  0.57116  0.29019  0.76485  1.0000
  C   C1040     1.0  0.55860  0.30962  0.76705  1.0000
  C   C1041     1.0  0.55623  0.31807  0.78608  1.0000
  H   H1745     1.0  0.58708  0.27933  0.81359  1.0000
  H   H1746     1.0  0.59105  0.26427  0.78027  1.0000
  S   S307      1.0  0.55685  0.18614  0.74490  1.0000
  H   H1747     1.0  0.54688  0.33326  0.78751  1.0000
  C   C1042     1.0  0.95269  0.14607  0.91010  1.0000
  H   H1748     1.0  0.62871  0.25650  0.88486  1.0000
  S   S308      1.0  0.69334  0.32838  0.96813  1.0000
  Fe  Fe155     1.0  0.87926  0.21682  0.75560  1.0000
  H   H1749     1.0  0.78449  0.25830  0.90549  1.0000
  C   C1043     1.0  0.83655  0.19559  0.93168  1.0000
  H   H1750     1.0  0.58770  0.27456  0.85205  1.0000
  H   H1751     1.0  0.85539  0.25803  0.90736  1.0000
  H   H1752     1.0  0.84576  0.17958  0.93267  1.0000
  H   H1753     1.0  0.72852  0.28512  0.74202  1.0000
  C   C1044     1.0  0.51151  0.39758  0.91886  1.0000
  H   H1754     1.0  0.69771  0.20485  0.77889  1.0000
  N   N73       1.0  0.90801  0.14578  0.86127  1.0000
  C   C1045     1.0  0.89791  0.16017  0.87735  1.0000
  C   C1046     1.0  0.90436  0.12393  0.87137  1.0000
  C   C1047     1.0  0.89655  0.15231  0.84213  1.0000
  C   C1048     1.0  0.93126  0.14799  0.85544  1.0000
  C   C1049     1.0  0.89833  0.18378  0.86994  1.0000
  C   C1050     1.0  0.91382  0.11562  0.89215  1.0000
  C   C1051     1.0  0.90307  0.13889  0.82406  1.0000
  C   C1052     1.0  0.94636  0.12954  0.84640  1.0000
  H   H1755     1.0  0.88100  0.15806  0.88301  1.0000
  H   H1756     1.0  0.90590  0.15631  0.89177  1.0000
  H   H1757     1.0  0.91067  0.11227  0.86050  1.0000
  H   H1758     1.0  0.88700  0.12304  0.87498  1.0000
  H   H1759     1.0  0.87908  0.15276  0.84702  1.0000
  H   H1760     1.0  0.89887  0.16844  0.83446  1.0000
  H   H1761     1.0  0.93331  0.16239  0.84384  1.0000
  H   H1762     1.0  0.93773  0.15021  0.86967  1.0000
  H   H1763     1.0  0.89262  0.19222  0.88385  1.0000
  H   H1764     1.0  0.91460  0.18730  0.86362  1.0000
  H   H1765     1.0  0.88747  0.19031  0.85806  1.0000
  H   H1766     1.0  0.93059  0.11802  0.89076  1.0000
  H   H1767     1.0  0.90434  0.12289  0.90575  1.0000
  H   H1768     1.0  0.91338  0.09853  0.89620  1.0000
  H   H1769     1.0  0.89284  0.14522  0.81153  1.0000
  H   H1770     1.0  0.90072  0.12236  0.82919  1.0000
  H   H1771     1.0  0.91956  0.14004  0.81626  1.0000
  H   H1772     1.0  0.95835  0.13594  0.83362  1.0000
  H   H1773     1.0  0.93888  0.11905  0.83930  1.0000
  H   H1774     1.0  0.95562  0.12019  0.85871  1.0000
  H   H1775     1.0  0.50291  0.41599  0.88860  1.0000
  H   H1776     1.0  0.95572  0.17793  0.81051  1.0000
  C   C1053     1.0  0.53934  0.04729  0.73475  1.0000
  H   H1777     1.0  0.84569  0.19910  0.89779  1.0000
  S   S309      1.0  0.97627  0.13446  0.89520  1.0000
  H   H1778     1.0  0.79184  0.22137  0.92628  1.0000
  S   S310      1.0  0.89044  0.17409  0.94879  1.0000
  C   C1054     1.0  0.55151  0.08978  0.73533  1.0000
  H   H1779     1.0  0.84652  0.20573  0.93618  1.0000
  C   C1055     1.0  0.91460  0.16286  0.93451  1.0000
  H   H1780     1.0  0.91580  0.16049  0.75836  1.0000
  H   H1781     1.0  0.63954  0.27961  0.87396  1.0000
  H   H1782     1.0  0.82922  0.25490  0.88829  1.0000
  H   H1783     1.0  0.53045  0.40666  0.88849  1.0000
  C   C1056     1.0  0.50442  0.26893  0.80799  1.0000
  H   H1784     1.0  0.78219  0.25743  0.93345  1.0000
  Fe  Fe156     1.0  0.49322  0.30995  0.86362  1.0000
  H   H1785     1.0  0.83245  0.22517  0.85730  1.0000
  C   C1057     1.0  0.80454  0.23156  0.92205  1.0000
  H   H1786     1.0  0.95149  0.22736  0.78234  1.0000
  H   H1787     1.0  0.86431  0.23023  0.91248  1.0000
  H   H1788     1.0  0.51274  0.41226  0.92480  1.0000
  N   N74       1.0  0.97074  0.22042  0.73981  1.0000
  H   H1789     1.0  0.79383  0.21666  0.89132  1.0000
  H   H1790     1.0  0.66793  0.25119  0.87712  1.0000
  C   C1058     1.0  0.59261  0.29173  0.87598  1.0000
  H   H1791     1.0  0.59534  0.25892  0.87565  1.0000
  H   H1792     1.0  0.79857  0.22549  0.76729  1.0000
  H   H1793     1.0  0.59075  0.30668  0.86494  1.0000
  H   H1794     1.0  0.57679  0.29068  0.88577  1.0000
  H   H1795     1.0  0.60394  0.29221  0.88693  1.0000
  H   H1796     1.0  0.52122  0.28953  0.73623  1.0000
  H   H1797     1.0  0.53803  0.27056  0.81016  1.0000
  C   C1059     1.0  0.53299  0.22886  0.80497  1.0000
  H   H1798     1.0  0.54322  0.25287  0.78034  1.0000
  C   C1060     1.0  0.74572  0.28452  0.74251  1.0000
  H   H1799     1.0  0.93076  0.22244  0.76906  1.0000
  H   H1800     1.0  0.52548  0.37639  0.95730  1.0000
  N   N75       1.0  0.77155  0.26619  0.76933  1.0000
  C   C1061     1.0  0.77420  0.24653  0.78532  1.0000
  H   H1801     1.0  0.72787  0.26407  0.97871  1.0000
  C   C1062     1.0  0.52888  0.24484  0.78493  1.0000
  C   C1063     1.0  0.68020  0.19593  0.74736  1.0000
  C   C1064     1.0  0.78225  0.22585  0.77614  1.0000
  C   C1065     1.0  0.74741  0.28556  0.79834  1.0000
  C   C1066     1.0  0.94177  0.23352  0.76945  1.0000
  C   C1067     1.0  0.51225  0.27955  0.76997  1.0000
  H   H1802     1.0  0.95204  0.14171  0.76219  1.0000
  H   H1803     1.0  0.66000  0.28934  0.83366  1.0000
  S   S311      1.0  0.89143  0.24723  0.75341  1.0000
  C   C1068     1.0  0.76741  0.28455  0.78147  1.0000
  H   H1804     1.0  0.81068  0.14937  0.94301  1.0000
  H   H1805     1.0  0.82047  0.19123  0.90712  1.0000
  C   C1069     1.0  0.95535  0.23849  0.74762  1.0000
  H   H1806     1.0  0.73924  0.26066  0.76934  1.0000
  H   H1807     1.0  0.77151  0.22258  0.76587  1.0000
  H   H1808     1.0  0.51085  0.04114  0.75742  1.0000
  Fe  Fe157     1.0  0.49564  0.35572  0.86341  1.0000
  C   C1070     1.0  0.95968  0.20195  0.73997  1.0000
  H   H1809     1.0  0.75754  0.25210  0.74824  1.0000
  C   C1071     1.0  0.51434  0.40243  0.89438  1.0000
  C   C1072     1.0  0.92463  0.16461  0.76946  1.0000
  C   C1073     1.0  0.91530  0.18007  0.78203  1.0000
  H   H1810     1.0  0.84125  0.24275  0.92819  1.0000
  H   H1811     1.0  0.52584  0.38646  0.92268  1.0000
  S   S312      1.0  0.62831  0.23895  0.74176  1.0000
  H   H1812     1.0  0.51089  0.35524  0.95708  1.0000
  N   N76       1.0  0.64814  0.33899  0.90899  1.0000
  C   C1074     1.0  0.66533  0.32140  0.90301  1.0000
  C   C1075     1.0  0.63491  0.33055  0.92923  1.0000
  C   C1076     1.0  0.65898  0.35609  0.91341  1.0000
  C   C1077     1.0  0.63554  0.34647  0.89076  1.0000
  C   C1078     1.0  0.68199  0.32669  0.88349  1.0000
  C   C1079     1.0  0.62426  0.31152  0.92810  1.0000
  C   C1080     1.0  0.64456  0.37586  0.91999  1.0000
  C   C1081     1.0  0.61268  0.35792  0.89608  1.0000
  H   H1813     1.0  0.67422  0.31515  0.91650  1.0000
  H   H1814     1.0  0.65850  0.30806  0.89966  1.0000
  H   H1815     1.0  0.62212  0.34254  0.93504  1.0000
  H   H1816     1.0  0.64471  0.32600  0.94239  1.0000
  H   H1817     1.0  0.66914  0.34988  0.92615  1.0000
  H   H1818     1.0  0.66983  0.36190  0.89917  1.0000
  H   H1819     1.0  0.64424  0.35701  0.87815  1.0000
  H   H1820     1.0  0.63387  0.33289  0.88321  1.0000
  H   H1821     1.0  0.67467  0.33441  0.86928  1.0000
  H   H1822     1.0  0.69315  0.33631  0.88702  1.0000
  H   H1823     1.0  0.69185  0.31187  0.87942  1.0000
  H   H1824     1.0  0.61565  0.31392  0.91425  1.0000
  H   H1825     1.0  0.63595  0.29699  0.92794  1.0000
  H   H1826     1.0  0.61248  0.30888  0.94263  1.0000
  H   H1827     1.0  0.63663  0.38493  0.90664  1.0000
  H   H1828     1.0  0.65455  0.38624  0.92429  1.0000
  H   H1829     1.0  0.63274  0.37247  0.93420  1.0000
  H   H1830     1.0  0.60910  0.37038  0.88264  1.0000
  H   H1831     1.0  0.60973  0.36565  0.91041  1.0000
  H   H1832     1.0  0.60087  0.34713  0.89735  1.0000
  N   N77       1.0  0.82019  0.22473  0.90345  1.0000
  C   C1082     1.0  0.95634  0.15837  0.78678  1.0000
  S   S313      1.0  0.98172  0.14403  0.78955  1.0000
  C   C1083     1.0  0.92520  0.17544  0.91746  1.0000
  C   C1084     1.0  0.52196  0.27948  0.81350  1.0000
  H   H1833     1.0  0.55082  0.31823  0.75394  1.0000
  H   H1834     1.0  0.52895  0.23578  0.77180  1.0000
  H   H1835     1.0  0.95201  0.17700  0.89226  1.0000
  S   S314      1.0  0.50179  0.33554  0.83720  1.0000
  C   C1085     1.0  0.65818  0.25130  0.86448  1.0000
  S   S315      1.0  0.61935  0.19005  0.74585  1.0000
  H   H1836     1.0  0.55666  0.07774  0.74846  1.0000
  H   H1837     1.0  0.74554  0.30027  0.80526  1.0000
  H   H1838     1.0  0.64694  0.30378  0.81249  1.0000
  H   H1839     1.0  0.52652  0.05793  0.76577  1.0000
  H   H1840     1.0  0.76617  0.29974  0.77089  1.0000
  H   H1841     1.0  0.78117  0.28463  0.78970  1.0000
  C   C1086     1.0  0.83649  0.23925  0.89567  1.0000
  H   H1842     1.0  0.67540  0.17680  0.77889  1.0000
  H   H1843     1.0  0.52616  0.28652  0.77190  1.0000
  H   H1844     1.0  0.95408  0.19519  0.75649  1.0000
  S   S316      1.0  0.84954  0.13492  0.97592  1.0000
  H   H1845     1.0  0.72944  0.22200  0.76642  1.0000
  H   H1846     1.0  0.91877  0.19177  0.91371  1.0000
  H   H1847     1.0  0.53954  0.21331  0.80004  1.0000
  H   H1848     1.0  0.66748  0.20792  0.75387  1.0000
  C   C1087     1.0  0.63636  0.26480  0.86971  1.0000
  C   C1088     1.0  0.94713  0.17408  0.79914  1.0000
  H   H1849     1.0  0.54554  0.23307  0.81259  1.0000
  C   C1089     1.0  0.59897  0.27276  0.86378  1.0000
  C   C1090     1.0  0.73102  0.20474  0.76761  1.0000
  H   H1850     1.0  0.62276  0.21833  0.84303  1.0000
  C   C1091     1.0  0.79739  0.16079  0.93854  1.0000
  C   C1092     1.0  0.94407  0.16711  0.90526  1.0000
  C   C1093     1.0  0.64733  0.28916  0.82410  1.0000
  H   H1851     1.0  0.68943  0.23401  0.75221  1.0000
  H   H1852     1.0  0.61504  0.25655  0.82640  1.0000
  N   N78       1.0  0.62173  0.26940  0.85296  1.0000
  H   H1853     1.0  0.72639  0.16271  0.74843  1.0000
  H   H1854     1.0  0.50164  0.27251  0.74150  1.0000
  H   H1855     1.0  0.62219  0.22690  0.86811  1.0000
  H   H1856     1.0  0.59896  0.23272  0.85471  1.0000
  H   H1857     1.0  0.80854  0.21651  0.85446  1.0000
  C   C1094     1.0  0.80764  0.22525  0.88556  1.0000
  C   C1095     1.0  0.62402  0.25173  0.84013  1.0000
  C   C1096     1.0  0.62549  0.28925  0.83806  1.0000
  H   H1858     1.0  0.82661  0.19925  0.86953  1.0000
  H   H1859     1.0  0.52166  0.29567  0.80492  1.0000
  H   H1860     1.0  0.80268  0.15535  0.90585  1.0000
  C   C1097     1.0  0.83082  0.20247  0.90900  1.0000
  H   H1861     1.0  0.64067  0.24754  0.83278  1.0000
  H   H1862     1.0  0.91930  0.19639  0.80700  1.0000
  H   H1863     1.0  0.80083  0.24153  0.87958  1.0000
  C   C1098     1.0  0.61655  0.23133  0.85245  1.0000
  H   H1864     1.0  0.61323  0.29357  0.82718  1.0000
  H   H1865     1.0  0.82210  0.19450  0.94367  1.0000
  C   C1099     1.0  0.85007  0.24244  0.91197  1.0000
  S   S317      1.0  0.78872  0.16742  0.98050  1.0000
  H   H1866     1.0  0.51892  0.28079  0.83072  1.0000
  H   H1867     1.0  0.65658  0.23476  0.86439  1.0000
  S   S318      1.0  0.64444  0.37297  0.97785  1.0000
  S   S319      1.0  0.57385  0.27978  0.74093  1.0000
  Fe  Fe158     1.0  0.59305  0.24758  0.74129  1.0000
  H   H1868     1.0  0.75500  0.26755  0.97538  1.0000
  H   H1869     1.0  0.73603  0.19827  0.78336  1.0000
  H   H1870     1.0  0.51323  0.38870  0.88701  1.0000
  Fe  Fe159     1.0  0.58513  0.20286  0.74389  1.0000
  C   C1100     1.0  0.79207  0.26678  0.75411  1.0000
  C   C1101     1.0  0.51626  0.27536  0.74669  1.0000
  H   H1871     1.0  0.80588  0.26123  0.76291  1.0000
  H   H1872     1.0  0.50732  0.21590  0.73929  1.0000
  C   C1102     1.0  0.98738  0.21383  0.75443  1.0000
  H   H1873     1.0  0.74694  0.29955  0.74738  1.0000
  C   C1103     1.0  0.75333  0.26507  0.75795  1.0000
  H   H1874     1.0  0.78294  0.21272  0.78953  1.0000
  H   H1875     1.0  0.51863  0.08748  0.74335  1.0000
  H   H1876     1.0  0.53537  0.03054  0.76686  1.0000
  H   H1877     1.0  0.55628  0.04741  0.73604  1.0000
  H   H1878     1.0  0.93177  0.24818  0.77374  1.0000
  S   S320      1.0  0.98693  0.17176  0.83756  1.0000
  Fe  Fe160     1.0  0.86902  0.15973  0.97795  1.0000
  C   C1104     1.0  0.52710  0.04438  0.75742  1.0000
  H   H1879     1.0  0.50761  0.35928  0.92063  1.0000
  H   H1880     1.0  0.66101  0.17117  0.75997  1.0000
  H   H1881     1.0  0.49836  0.29219  0.77154  1.0000
  C   C1105     1.0  0.69936  0.22610  0.73923  1.0000
  C   C1106     1.0  0.67652  0.17518  0.76187  1.0000
  C   C1107     1.0  0.50984  0.37082  0.96199  1.0000
  H   H1882     1.0  0.57853  0.32416  0.97642  1.0000
  H   H1883     1.0  0.79339  0.25591  0.74228  1.0000
  H   H1884     1.0  0.50076  0.25661  0.82150  1.0000
  H   H1885     1.0  0.52450  0.16541  0.73584  1.0000
  C   C1108     1.0  0.79644  0.28818  0.74150  1.0000
  H   H1886     1.0  0.68873  0.16186  0.75805  1.0000
  H   H1887     1.0  0.50686  0.36858  0.97964  1.0000
  H   H1888     1.0  0.74383  0.19893  0.75534  1.0000
  H   H1889     1.0  0.49300  0.40230  0.95771  1.0000
  H   H1890     1.0  0.49573  0.21909  0.79665  1.0000
  H   H1891     1.0  0.94429  0.24549  0.73594  1.0000
  H   H1892     1.0  0.71497  0.23182  0.73665  1.0000
  C   C1109     1.0  0.49133  0.36841  0.92221  1.0000
  H   H1893     1.0  0.49243  0.24750  0.76726  1.0000
  N   N79       1.0  0.49149  0.38896  0.92965  1.0000
  C   C1110     1.0  0.49177  0.38691  0.95327  1.0000
  C   C1111     1.0  0.74802  0.66955  0.17820  1.0000
  C   C1112     1.0  0.50180  0.73570  0.17531  1.0000
  H   H1894     1.0  0.80496  0.95268  0.19859  1.0000
  Fe  Fe161     1.0  0.52239  0.66315  0.12000  1.0000
  S   S321      1.0  0.51043  0.64453  0.15073  1.0000
  S   S322      1.0  0.54639  0.68535  0.11857  1.0000
  Fe  Fe162     1.0  0.51418  0.61819  0.13165  1.0000
  S   S323      1.0  0.52801  0.58599  0.14655  1.0000
  H   H1895     1.0  0.92376  0.65507  0.18271  1.0000
  C   C1113     1.0  0.79994  0.77445  0.23351  1.0000
  S   S324      1.0  0.52819  0.63613  0.10120  1.0000
  C   C1114     1.0  0.88988  0.66974  0.13734  1.0000
  C   C1115     1.0  0.71565  0.69544  0.17749  1.0000
  S   S325      1.0  0.63455  0.72741  0.20333  1.0000
  H   H1896     1.0  0.83612  0.85762  0.18675  1.0000
  H   H1897     1.0  0.78175  0.93728  0.23002  1.0000
  S   S326      1.0  0.58999  0.75982  0.21279  1.0000
  H   H1898     1.0  0.90757  0.97406  0.08307  1.0000
  Fe  Fe163     1.0  0.59935  0.72540  0.21025  1.0000
  S   S327      1.0  0.57934  0.70406  0.20027  1.0000
  Fe  Fe164     1.0  0.62525  0.76090  0.20950  1.0000
  S   S328      1.0  0.64492  0.78573  0.19212  1.0000
  C   C1116     1.0  0.69188  0.70173  0.18566  1.0000
  H   H1899     1.0  0.67273  0.53328  0.17088  1.0000
  Fe  Fe165     1.0  0.63554  0.50773  0.11862  1.0000
  S   S329      1.0  0.66610  0.50775  0.09580  1.0000
  S   S330      1.0  0.60862  0.53000  0.10442  1.0000
  C   C1117     1.0  0.94886  0.92607  0.16786  1.0000
  C   C1118     1.0  0.96188  0.91256  0.15462  1.0000
  C   C1119     1.0  0.83043  0.66463  0.22914  1.0000
  H   H1900     1.0  0.73591  0.69917  0.20784  1.0000
  S   S331      1.0  0.65001  0.51191  0.14662  1.0000
  C   C1120     1.0  0.92780  0.68194  0.15990  1.0000
  H   H1901     1.0  0.52157  0.73786  0.14567  1.0000
  S   S332      1.0  0.75080  0.60087  0.19814  1.0000
  H   H1902     1.0  0.55779  0.52607  0.08460  1.0000
  H   H1903     1.0  0.95857  0.77536  0.14531  1.0000
  S   S333      1.0  0.79204  0.57220  0.21753  1.0000
  H   H1904     1.0  0.68995  0.56604  0.21229  1.0000
  Fe  Fe166     1.0  0.77748  0.60617  0.21418  1.0000
  S   S334      1.0  0.79392  0.63477  0.20237  1.0000
  Fe  Fe167     1.0  0.76325  0.56658  0.20504  1.0000
  S   S335      1.0  0.76420  0.53895  0.18779  1.0000
  C   C1121     1.0  0.55416  0.54132  0.07438  1.0000
  H   H1905     1.0  0.89159  0.65849  0.12589  1.0000
  S   S336      1.0  0.81146  0.94671  0.15410  1.0000
  H   H1906     1.0  0.90481  0.64473  0.15865  1.0000
  H   H1907     1.0  0.94022  0.93145  0.10923  1.0000
  C   C1122     1.0  0.84028  0.81431  0.21706  1.0000
  H   H1908     1.0  0.96860  0.90446  0.12301  1.0000
  H   H1909     1.0  0.73461  0.78889  0.20685  1.0000
  H   H1910     1.0  0.71359  0.57081  0.13803  1.0000
  H   H1911     1.0  0.66807  0.49871  0.21126  1.0000
  H   H1912     1.0  0.62641  0.88918  0.23245  1.0000
  C   C1123     1.0  0.72987  0.68387  0.21102  1.0000
  S   S337      1.0  0.72783  0.85715  0.22282  1.0000
  C   C1124     1.0  0.97166  0.73883  0.21662  1.0000
  S   S338      1.0  0.91530  0.72472  0.18894  1.0000
  H   H1913     1.0  0.72336  0.70960  0.17639  1.0000
  H   H1914     1.0  0.76166  0.66796  0.21749  1.0000
  H   H1915     1.0  0.90164  0.76365  0.20647  1.0000
  Fe  Fe168     1.0  0.49415  0.64534  0.09475  1.0000
  S   S339      1.0  0.98289  0.89440  0.16473  1.0000
  H   H1916     1.0  0.84448  0.79993  0.20937  1.0000
  H   H1917     1.0  0.55107  0.61642  0.04584  1.0000
  H   H1918     1.0  0.62344  0.80026  0.23165  1.0000
  H   H1919     1.0  0.88301  0.62856  0.21892  1.0000
  H   H1920     1.0  0.80700  0.51588  0.21594  1.0000
  C   C1125     1.0  0.92038  0.78598  0.18687  1.0000
  C   C1126     1.0  0.91421  0.76606  0.19330  1.0000
  C   C1127     1.0  0.92372  0.74954  0.18217  1.0000
  H   H1921     1.0  0.91257  0.79880  0.19523  1.0000
  C   C1128     1.0  0.52914  0.71685  0.22809  1.0000
  C   C1129     1.0  0.49154  0.57435  0.10073  1.0000
  S   S340      1.0  0.98483  0.85004  0.12868  1.0000
  H   H1922     1.0  0.52477  0.61894  0.05957  1.0000
  C   C1130     1.0  0.82431  0.88620  0.19926  1.0000
  H   H1923     1.0  0.80208  0.86652  0.17451  1.0000
  S   S341      1.0  0.98503  0.83591  0.18020  1.0000
  H   H1924     1.0  0.51569  0.72994  0.18383  1.0000
  H   H1925     1.0  0.52540  0.70939  0.21527  1.0000
  H   H1926     1.0  0.49539  0.76765  0.13476  1.0000
  C   C1131     1.0  0.83075  0.86213  0.20290  1.0000
  C   C1132     1.0  0.92916  0.94309  0.13905  1.0000
  C   C1133     1.0  0.94241  0.92984  0.12571  1.0000
  C   C1134     1.0  0.93239  0.94107  0.16024  1.0000
  H   H1927     1.0  0.92252  0.95132  0.17063  1.0000
  C   C1135     1.0  0.79507  0.93613  0.17684  1.0000
  C   C1136     1.0  0.78209  0.92163  0.17485  1.0000
  C   C1137     1.0  0.76880  0.91296  0.19263  1.0000
  C   C1138     1.0  0.76848  0.91869  0.21258  1.0000
  C   C1139     1.0  0.78166  0.93298  0.21461  1.0000
  C   C1140     1.0  0.79490  0.94167  0.19684  1.0000
  H   H1928     1.0  0.78208  0.91735  0.15939  1.0000
  H   H1929     1.0  0.75843  0.90231  0.19080  1.0000
  C   C1141     1.0  0.95848  0.91448  0.13349  1.0000
  C   C1142     1.0  0.81178  0.63983  0.21808  1.0000
  H   H1930     1.0  0.82341  0.48462  0.23180  1.0000
  H   H1931     1.0  0.97937  0.79468  0.22848  1.0000
  C   C1143     1.0  0.79005  0.85817  0.18538  1.0000
  H   H1932     1.0  0.80685  0.81798  0.21565  1.0000
  C   C1144     1.0  0.81576  0.66038  0.21718  1.0000
  H   H1933     1.0  0.69114  0.48756  0.22367  1.0000
  C   C1145     1.0  0.53678  0.60844  0.05043  1.0000
  C   C1146     1.0  0.68540  0.75826  0.23340  1.0000
  H   H1934     1.0  0.80734  0.67306  0.20737  1.0000
  Fe  Fe169     1.0  0.97617  0.82311  0.15355  1.0000
  H   H1935     1.0  0.66400  0.55894  0.21893  1.0000
  C   C1147     1.0  0.76376  0.68554  0.17213  1.0000
  C   C1148     1.0  0.88205  0.65857  0.19826  1.0000
  C   C1149     1.0  0.71149  0.52827  0.22593  1.0000
  H   H1936     1.0  0.94720  0.74026  0.15620  1.0000
  C   C1150     1.0  0.71722  0.53713  0.14224  1.0000
  C   C1151     1.0  0.72140  0.55641  0.14602  1.0000
  C   C1152     1.0  0.73556  0.55721  0.16013  1.0000
  C   C1153     1.0  0.74615  0.53867  0.17010  1.0000
  C   C1154     1.0  0.74227  0.51938  0.16603  1.0000
  C   C1155     1.0  0.72759  0.51858  0.15245  1.0000
  H   H1937     1.0  0.55299  0.63597  0.17943  1.0000
  H   H1938     1.0  0.73856  0.57213  0.16297  1.0000
  H   H1939     1.0  0.75061  0.50498  0.17346  1.0000
  H   H1940     1.0  0.72469  0.50366  0.14947  1.0000
  H   H1941     1.0  0.51764  0.59102  0.09998  1.0000
  C   C1156     1.0  0.72125  0.76821  0.23419  1.0000
  H   H1942     1.0  0.74089  0.50669  0.22606  1.0000
  H   H1943     1.0  0.61414  0.63593  0.17720  1.0000
  H   H1944     1.0  0.74571  0.66493  0.16304  1.0000
  H   H1945     1.0  0.72131  0.53979  0.21603  1.0000
  H   H1946     1.0  0.74076  0.65257  0.22843  1.0000
  S   S342      1.0  0.69930  0.53709  0.12434  1.0000
  C   C1157     1.0  0.67519  0.49676  0.22608  1.0000
  H   H1947     1.0  0.87432  0.67977  0.13621  1.0000
  C   C1158     1.0  0.65013  0.80406  0.20707  1.0000
  C   C1159     1.0  0.66787  0.81447  0.20002  1.0000
  C   C1160     1.0  0.67300  0.82834  0.21212  1.0000
  H   H1948     1.0  0.53383  0.73364  0.11271  1.0000
  N   N80       1.0  0.52531  0.57428  0.07289  1.0000
  H   H1949     1.0  0.67512  0.77275  0.22753  1.0000
  H   H1950     1.0  0.67780  0.81164  0.18521  1.0000
  H   H1951     1.0  0.68672  0.83625  0.20654  1.0000
  H   H1952     1.0  0.95564  0.78230  0.23278  1.0000
  H   H1953     1.0  0.60278  0.66262  0.17191  1.0000
  H   H1954     1.0  0.82231  0.82743  0.19180  1.0000
  C   C1161     1.0  0.55219  0.57183  0.13606  1.0000
  C   C1162     1.0  0.55930  0.55199  0.14669  1.0000
  C   C1163     1.0  0.57759  0.53955  0.13790  1.0000
  C   C1164     1.0  0.58863  0.54674  0.11817  1.0000
  C   C1165     1.0  0.58187  0.56687  0.10786  1.0000
  C   C1166     1.0  0.56397  0.57956  0.11699  1.0000
  H   H1955     1.0  0.55031  0.54595  0.16153  1.0000
  H   H1956     1.0  0.58247  0.52396  0.14582  1.0000
  H   H1957     1.0  0.59033  0.57247  0.09255  1.0000
  H   H1958     1.0  0.55887  0.59499  0.10895  1.0000
  H   H1959     1.0  0.50803  0.55382  0.06182  1.0000
  Fe  Fe170     1.0  0.83166  0.97159  0.15528  1.0000
  H   H1960     1.0  0.51868  0.78679  0.22953  1.0000
  H   H1961     1.0  0.89790  0.62665  0.19316  1.0000
  Fe  Fe171     1.0  0.89730  0.71684  0.22187  1.0000
  C   C1167     1.0  0.55475  0.69129  0.14141  1.0000
  C   C1168     1.0  0.56929  0.70553  0.13898  1.0000
  C   C1169     1.0  0.57673  0.71007  0.15679  1.0000
  C   C1170     1.0  0.56977  0.70027  0.17720  1.0000
  C   C1171     1.0  0.55507  0.68623  0.17958  1.0000
  C   C1172     1.0  0.54754  0.68183  0.16185  1.0000
  H   H1962     1.0  0.57500  0.71295  0.12324  1.0000
  H   H1963     1.0  0.58808  0.72087  0.15470  1.0000
  H   H1964     1.0  0.54956  0.67856  0.19529  1.0000
  H   H1965     1.0  0.53617  0.67108  0.16407  1.0000
  H   H1966     1.0  0.50509  0.76848  0.22199  1.0000
  H   H1967     1.0  0.86554  0.65631  0.19742  1.0000
  H   H1968     1.0  0.90262  0.67953  0.13185  1.0000
  H   H1969     1.0  0.54620  0.61155  0.17582  1.0000
  H   H1970     1.0  0.78047  0.84742  0.21844  1.0000
  H   H1971     1.0  0.84513  0.85868  0.21101  1.0000
  H   H1972     1.0  0.77894  0.67787  0.16399  1.0000
  H   H1973     1.0  0.65660  0.53253  0.19652  1.0000
  H   H1974     1.0  0.83778  0.89384  0.20122  1.0000
  C   C1173     1.0  0.89364  0.63664  0.20591  1.0000
  H   H1975     1.0  0.49909  0.58378  0.02899  1.0000
  C   C1174     1.0  0.51541  0.56824  0.05567  1.0000
  H   H1976     1.0  0.68220  0.68998  0.18360  1.0000
  H   H1977     1.0  0.49812  0.60093  0.04764  1.0000
  H   H1978     1.0  0.71431  0.68674  0.22129  1.0000
  H   H1979     1.0  0.94039  0.75350  0.23044  1.0000
  H   H1980     1.0  0.53992  0.55811  0.10031  1.0000
  S   S343      1.0  0.76529  0.80473  0.23028  1.0000
  H   H1981     1.0  0.50161  0.60120  0.08014  1.0000
  N   N81       1.0  0.98808  0.75342  0.21207  1.0000
  H   H1982     1.0  0.69732  0.51528  0.19282  1.0000
  H   H1983     1.0  0.55511  0.57830  0.05236  1.0000
  N   N82       1.0  0.59262  0.62419  0.14440  1.0000
  C   C1175     1.0  0.59863  0.62288  0.12093  1.0000
  C   C1176     1.0  0.60544  0.60565  0.15602  1.0000
  C   C1177     1.0  0.59869  0.64430  0.14828  1.0000
  C   C1178     1.0  0.56896  0.62418  0.14997  1.0000
  C   C1179     1.0  0.58917  0.64164  0.10567  1.0000
  C   C1180     1.0  0.60061  0.58398  0.15374  1.0000
  C   C1181     1.0  0.60025  0.64638  0.17138  1.0000
  C   C1182     1.0  0.55951  0.62079  0.17374  1.0000
  H   H1984     1.0  0.61622  0.62101  0.11635  1.0000
  H   H1985     1.0  0.59359  0.60885  0.11685  1.0000
  H   H1986     1.0  0.60352  0.60621  0.17328  1.0000
  H   H1987     1.0  0.62275  0.60588  0.15057  1.0000
  H   H1988     1.0  0.61448  0.64686  0.13899  1.0000
  H   H1989     1.0  0.58730  0.65796  0.14249  1.0000
  H   H1990     1.0  0.56022  0.63927  0.14306  1.0000
  H   H1991     1.0  0.56367  0.61242  0.14227  1.0000
  H   H1992     1.0  0.57159  0.64385  0.10814  1.0000
  H   H1993     1.0  0.59474  0.65641  0.10688  1.0000
  H   H1994     1.0  0.94303  0.68394  0.16457  1.0000
  H   H1995     1.0  0.60584  0.58021  0.13739  1.0000
  H   H1996     1.0  0.60965  0.57174  0.16428  1.0000
  H   H1997     1.0  0.58357  0.58253  0.15864  1.0000
  S   S344      1.0  0.90934  0.96224  0.12823  1.0000
  H   H1998     1.0  0.58561  0.64379  0.18245  1.0000
  H   H1999     1.0  0.92015  0.69785  0.15409  1.0000
  C   C1183     1.0  0.89092  0.65737  0.15988  1.0000
  H   H2000     1.0  0.57052  0.61174  0.18442  1.0000
  H   H2001     1.0  0.51606  0.75734  0.10475  1.0000
  N   N83       1.0  0.90470  0.87659  0.16070  1.0000
  C   C1184     1.0  0.91186  0.86571  0.18144  1.0000
  C   C1185     1.0  0.88585  0.86715  0.15784  1.0000
  C   C1186     1.0  0.89822  0.89956  0.16251  1.0000
  C   C1187     1.0  0.92315  0.87340  0.14322  1.0000
  C   C1188     1.0  0.92988  0.87433  0.18858  1.0000
  C   C1189     1.0  0.89014  0.84365  0.15576  1.0000
  C   C1190     1.0  0.88261  0.91242  0.14785  1.0000
  C   C1191     1.0  0.91903  0.88124  0.12018  1.0000
  H   H2002     1.0  0.89827  0.86620  0.19464  1.0000
  H   H2003     1.0  0.91779  0.84887  0.18074  1.0000
  H   H2004     1.0  0.87874  0.87519  0.14361  1.0000
  H   H2005     1.0  0.87290  0.86941  0.17140  1.0000
  H   H2006     1.0  0.89049  0.90175  0.17896  1.0000
  H   H2007     1.0  0.91245  0.90755  0.15968  1.0000
  H   H2008     1.0  0.93628  0.88140  0.14532  1.0000
  H   H2009     1.0  0.93067  0.85677  0.14417  1.0000
  H   H2010     1.0  0.93309  0.86554  0.20430  1.0000
  H   H2011     1.0  0.94497  0.87191  0.17760  1.0000
  H   H2012     1.0  0.92573  0.89107  0.19055  1.0000
  H   H2013     1.0  0.90289  0.84013  0.14246  1.0000
  H   H2014     1.0  0.89406  0.83369  0.17068  1.0000
  H   H2015     1.0  0.87554  0.83893  0.15226  1.0000
  H   H2016     1.0  0.88777  0.91099  0.13090  1.0000
  H   H2017     1.0  0.88146  0.92925  0.14918  1.0000
  H   H2018     1.0  0.86632  0.90835  0.15285  1.0000
  H   H2019     1.0  0.92106  0.89795  0.11554  1.0000
  H   H2020     1.0  0.90336  0.87897  0.11710  1.0000
  H   H2021     1.0  0.93069  0.87192  0.10938  1.0000
  H   H2022     1.0  0.72267  0.64561  0.20591  1.0000
  N   N84       1.0  0.68943  0.53251  0.21984  1.0000
  H   H2023     1.0  0.72499  0.50177  0.20825  1.0000
  C   C1192     1.0  0.69116  0.53132  0.19650  1.0000
  H   H2024     1.0  0.49748  0.56257  0.11373  1.0000
  H   H2025     1.0  0.59443  0.63856  0.08905  1.0000
  S   S345      1.0  0.85838  0.96360  0.17472  1.0000
  C   C1193     1.0  0.81998  0.82726  0.20930  1.0000
  H   H2026     1.0  0.55145  0.58953  0.07611  1.0000
  H   H2027     1.0  0.85099  0.68116  0.16762  1.0000
  C   C1194     1.0  0.74482  0.66862  0.22487  1.0000
  H   H2028     1.0  0.53151  0.60691  0.03538  1.0000
  H   H2029     1.0  0.70293  0.54115  0.18732  1.0000
  Fe  Fe172     1.0  0.87824  0.97771  0.14547  1.0000
  H   H2030     1.0  0.71696  0.69284  0.16070  1.0000
  H   H2031     1.0  0.77415  0.86671  0.18248  1.0000
  C   C1195     1.0  0.67054  0.53871  0.18660  1.0000
  H   H2032     1.0  0.83310  0.68053  0.22875  1.0000
  H   H2033     1.0  0.66724  0.55606  0.18351  1.0000
  H   H2034     1.0  0.70708  0.66198  0.16313  1.0000
  C   C1196     1.0  0.51972  0.77004  0.22783  1.0000
  N   N85       1.0  0.72700  0.67700  0.19067  1.0000
  H   H2035     1.0  0.84791  0.69127  0.19240  1.0000
  H   H2036     1.0  0.88567  0.70063  0.15890  1.0000
  H   H2037     1.0  0.52288  0.54380  0.09196  1.0000
  Fe  Fe173     1.0  0.68074  0.51061  0.12428  1.0000
  H   H2038     1.0  0.65910  0.63644  0.22675  1.0000
  H   H2039     1.0  0.98617  0.73649  0.17332  1.0000
  H   H2040     1.0  0.95156  0.92494  0.18414  1.0000
  H   H2041     1.0  0.78344  0.50516  0.22440  1.0000
  C   C1197     1.0  0.94640  0.77276  0.15883  1.0000
  C   C1198     1.0  0.93648  0.78941  0.16964  1.0000
  C   C1199     1.0  0.85555  0.69305  0.17559  1.0000
  H   H2042     1.0  0.71800  0.80253  0.22662  1.0000
  C   C1200     1.0  0.93987  0.75294  0.16497  1.0000
  H   H2043     1.0  0.70641  0.73356  0.21682  1.0000
  H   H2044     1.0  0.75780  0.69919  0.16089  1.0000
  H   H2045     1.0  0.68904  0.70409  0.20257  1.0000
  H   H2046     1.0  0.76761  0.69096  0.18615  1.0000
  H   H2047     1.0  0.79697  0.77074  0.21869  1.0000
  C   C1201     1.0  0.53487  0.55452  0.08586  1.0000
  H   H2048     1.0  0.79084  0.84227  0.18131  1.0000
  H   H2049     1.0  0.56869  0.54886  0.07202  1.0000
  H   H2050     1.0  0.93202  0.67220  0.14693  1.0000
  H   H2051     1.0  0.70307  0.75901  0.20088  1.0000
  S   S346      1.0  0.94267  0.81495  0.16121  1.0000
  H   H2052     1.0  0.70633  0.79050  0.20918  1.0000
  N   N86       1.0  0.89187  0.66969  0.17738  1.0000
  H   H2053     1.0  0.69399  0.64378  0.18203  1.0000
  C   C1202     1.0  0.71427  0.65913  0.19618  1.0000
  H   H2054     1.0  0.85407  0.82295  0.21294  1.0000
  C   C1203     1.0  0.54298  0.58691  0.06341  1.0000
  H   H2055     1.0  0.72198  0.63734  0.17267  1.0000
  C   C1204     1.0  0.91455  0.67092  0.17937  1.0000
  H   H2056     1.0  0.88067  0.66820  0.21122  1.0000
  C   C1205     1.0  0.66000  0.83243  0.23106  1.0000
  Fe  Fe174     1.0  0.73283  0.59711  0.23119  1.0000
  H   H2057     1.0  0.68207  0.74372  0.20667  1.0000
  H   H2058     1.0  0.87679  0.64902  0.16359  1.0000
  H   H2059     1.0  0.68582  0.71675  0.17626  1.0000
  H   H2060     1.0  0.91501  0.67894  0.19314  1.0000
  C   C1206     1.0  0.69517  0.74799  0.21346  1.0000
  C   C1207     1.0  0.87983  0.69158  0.17430  1.0000
  H   H2061     1.0  0.75602  0.65502  0.18691  1.0000
  H   H2062     1.0  0.78605  0.87313  0.21310  1.0000
  H   H2063     1.0  0.88251  0.70059  0.18651  1.0000
  H   H2064     1.0  0.55111  0.53799  0.05901  1.0000
  C   C1208     1.0  0.70925  0.65014  0.17730  1.0000
  C   C1209     1.0  0.96746  0.78961  0.22067  1.0000
  C   C1210     1.0  0.68038  0.55477  0.22308  1.0000
  H   H2065     1.0  0.84895  0.70880  0.16801  1.0000
  H   H2066     1.0  0.69916  0.66330  0.20664  1.0000
  H   H2067     1.0  0.95885  0.80404  0.21242  1.0000
  H   H2068     1.0  0.90797  0.63775  0.21276  1.0000
  C   C1211     1.0  0.82268  0.62354  0.23085  1.0000
  H   H2069     1.0  0.96660  0.77510  0.19361  1.0000
  C   C1212     1.0  0.50005  0.72940  0.11715  1.0000
  H   H2070     1.0  0.53971  0.72852  0.22057  1.0000
  S   S347      1.0  0.86241  0.71456  0.23147  1.0000
  H   H2071     1.0  0.49918  0.73673  0.22805  1.0000
  C   C1213     1.0  0.71970  0.78870  0.21832  1.0000
  H   H2072     1.0  0.81052  0.89244  0.21016  1.0000
  H   H2073     1.0  0.82137  0.89179  0.18262  1.0000
  C   C1214     1.0  0.50942  0.58626  0.08811  1.0000
  H   H2074     1.0  0.51351  0.71282  0.15428  1.0000
  C   C1215     1.0  0.72420  0.50642  0.22403  1.0000
  H   H2075     1.0  0.81992  0.60763  0.23142  1.0000
  C   C1216     1.0  0.79676  0.50960  0.23045  1.0000
  N   N87       1.0  0.81406  0.84922  0.21482  1.0000
  C   C1217     1.0  0.79217  0.85733  0.20896  1.0000
  H   H2076     1.0  0.53344  0.76690  0.21526  1.0000
  C   C1218     1.0  0.97843  0.77543  0.20403  1.0000
  H   H2077     1.0  0.52786  0.56408  0.04223  1.0000
  H   H2078     1.0  0.52271  0.73665  0.08892  1.0000
  C   C1219     1.0  0.49774  0.58447  0.04625  1.0000
  H   H2079     1.0  0.72942  0.75557  0.22500  1.0000
  C   C1220     1.0  0.63731  0.80794  0.22619  1.0000
  H   H2080     1.0  0.49861  0.75288  0.17509  1.0000
  C   C1221     1.0  0.50761  0.72991  0.15273  1.0000
  H   H2081     1.0  0.50534  0.71221  0.11837  1.0000
  H   H2082     1.0  0.97909  0.72211  0.21857  1.0000
  H   H2083     1.0  0.96322  0.74026  0.20268  1.0000
  C   C1222     1.0  0.51919  0.74010  0.10553  1.0000
  H   H2084     1.0  0.64568  0.67309  0.23295  1.0000
  H   H2085     1.0  0.94063  0.97934  0.08836  1.0000
  C   C1223     1.0  0.67522  0.51789  0.23358  1.0000
  H   H2086     1.0  0.82182  0.62537  0.30504  1.0000
  S   S348      1.0  0.50374  0.83885  0.37378  1.0000
  Fe  Fe175     1.0  0.51565  0.85686  0.31307  1.0000
  S   S349      1.0  0.53551  0.83137  0.33145  1.0000
  S   S350      1.0  0.53239  0.85710  0.27938  1.0000
  Fe  Fe176     1.0  0.50451  0.82082  0.34682  1.0000
  C   C1224     1.0  0.83429  0.55777  0.32819  1.0000
  Fe  Fe177     1.0  0.53198  0.85326  0.35526  1.0000
  S   S351      1.0  0.56108  0.85964  0.36760  1.0000
  C   C1225     1.0  0.83639  0.59523  0.32106  1.0000
  S   S352      1.0  0.51304  0.87938  0.33646  1.0000
  S   S353      1.0  0.85769  0.50304  0.34342  1.0000
  S   S354      1.0  0.87603  0.50490  0.28449  1.0000
  H   H2087     1.0  0.95355  0.57715  0.31589  1.0000
  S   S355      1.0  0.89569  0.52009  0.37829  1.0000
  H   H2088     1.0  0.96033  0.60276  0.30358  1.0000
  Fe  Fe178     1.0  0.77151  0.57000  0.24923  1.0000
  Fe  Fe179     1.0  0.62254  0.96091  0.35833  1.0000
  S   S356      1.0  0.63709  0.95330  0.38859  1.0000
  S   S357      1.0  0.59267  0.94939  0.35240  1.0000
  H   H2089     1.0  0.87711  0.58061  0.30307  1.0000
  H   H2090     1.0  0.81796  0.49869  0.25314  1.0000
  Fe  Fe180     1.0  0.66802  0.94971  0.36652  1.0000
  S   S358      1.0  0.69526  0.92431  0.37313  1.0000
  H   H2091     1.0  0.68029  0.94237  0.27333  1.0000
  S   S359      1.0  0.65352  0.95565  0.33659  1.0000
  S   S360      1.0  0.72491  0.84908  0.31941  1.0000
  H   H2092     1.0  0.73636  0.97440  0.27969  1.0000
  C   C1226     1.0  0.68577  0.95791  0.26946  1.0000
  H   H2093     1.0  0.89413  0.63898  0.30220  1.0000
  H   H2094     1.0  0.62078  0.84961  0.28794  1.0000
  Fe  Fe181     1.0  0.72454  0.85204  0.28419  1.0000
  C   C1227     1.0  0.95042  0.66036  0.34588  1.0000
  C   C1228     1.0  0.93063  0.67218  0.34263  1.0000
  C   C1229     1.0  0.92667  0.68137  0.32201  1.0000
  C   C1230     1.0  0.94268  0.67906  0.30466  1.0000
  C   C1231     1.0  0.96230  0.66706  0.30793  1.0000
  C   C1232     1.0  0.96614  0.65773  0.32841  1.0000
  H   H2095     1.0  0.70129  0.78612  0.26695  1.0000
  H   H2096     1.0  0.71150  0.90320  0.43981  1.0000
  H   H2097     1.0  0.97380  0.69710  0.33655  1.0000
  H   H2098     1.0  0.57507  0.84276  0.30293  1.0000
  C   C1233     1.0  0.68750  0.63420  0.24088  1.0000
  H   H2099     1.0  0.67977  0.94937  0.41014  1.0000
  H   H2100     1.0  0.91156  0.69083  0.31966  1.0000
  C   C1234     1.0  0.69672  0.93376  0.44796  1.0000
  H   H2101     1.0  0.65757  0.77334  0.26526  1.0000
  C   C1235     1.0  0.70249  0.90374  0.35760  1.0000
  C   C1236     1.0  0.69212  0.90251  0.34051  1.0000
  C   C1237     1.0  0.69909  0.88607  0.32823  1.0000
  C   C1238     1.0  0.71615  0.87067  0.33330  1.0000
  C   C1239     1.0  0.72614  0.87183  0.35057  1.0000
  C   C1240     1.0  0.71952  0.88835  0.36247  1.0000
  H   H2102     1.0  0.67875  0.91410  0.33679  1.0000
  H   H2103     1.0  0.69099  0.88501  0.31519  1.0000
  H   H2104     1.0  0.73916  0.85988  0.35473  1.0000
  H   H2105     1.0  0.72758  0.88908  0.37565  1.0000
  C   C1241     1.0  0.92105  0.52886  0.37349  1.0000
  C   C1242     1.0  0.92573  0.54163  0.38704  1.0000
  C   C1243     1.0  0.94556  0.54902  0.38368  1.0000
  C   C1244     1.0  0.96108  0.54363  0.36674  1.0000
  C   C1245     1.0  0.95642  0.53076  0.35331  1.0000
  C   C1246     1.0  0.93653  0.52361  0.35651  1.0000
  H   H2106     1.0  0.91398  0.54579  0.40030  1.0000
  H   H2107     1.0  0.94894  0.55865  0.39436  1.0000
  H   H2108     1.0  0.96826  0.52640  0.34019  1.0000
  H   H2109     1.0  0.93319  0.51407  0.34574  1.0000
  C   C1247     1.0  0.84941  0.51522  0.28143  1.0000
  C   C1248     1.0  0.83282  0.51056  0.29761  1.0000
  Fe  Fe182     1.0  0.59263  0.75035  0.24739  1.0000
  H   H2110     1.0  0.79951  0.51749  0.30929  1.0000
  C   C1249     1.0  0.57014  0.88451  0.36275  1.0000
  C   C1250     1.0  0.55873  0.90233  0.35242  1.0000
  C   C1251     1.0  0.56600  0.92187  0.34930  1.0000
  C   C1252     1.0  0.58486  0.92400  0.35634  1.0000
  C   C1253     1.0  0.59648  0.90614  0.36645  1.0000
  C   C1254     1.0  0.58911  0.88656  0.36968  1.0000
  H   H2111     1.0  0.54420  0.90115  0.34690  1.0000
  H   H2112     1.0  0.55688  0.93551  0.34142  1.0000
  H   H2113     1.0  0.61103  0.90745  0.37198  1.0000
  H   H2114     1.0  0.59816  0.87295  0.37769  1.0000
  C   C1255     1.0  0.54133  0.83078  0.27553  1.0000
  C   C1256     1.0  0.56023  0.82517  0.26205  1.0000
  C   C1257     1.0  0.56806  0.80389  0.26065  1.0000
  C   C1258     1.0  0.55696  0.78823  0.27269  1.0000
  C   C1259     1.0  0.53781  0.79398  0.28560  1.0000
  C   C1260     1.0  0.53005  0.81506  0.28699  1.0000
  C   C1261     1.0  0.76192  0.49451  0.27187  1.0000
  C   C1262     1.0  0.65848  0.94524  0.44919  1.0000
  H   H2115     1.0  0.52881  0.78217  0.29473  1.0000
  H   H2116     1.0  0.51526  0.81915  0.29711  1.0000
  H   H2117     1.0  0.57344  0.87876  0.26904  1.0000
  C   C1263     1.0  0.81309  0.84780  0.23854  1.0000
  H   H2118     1.0  0.71033  0.93810  0.32373  1.0000
  H   H2119     1.0  0.73782  0.93959  0.31561  1.0000
  C   C1264     1.0  0.57833  0.88851  0.27941  1.0000
  C   C1265     1.0  0.61379  0.88273  0.24447  1.0000
  H   H2120     1.0  0.71371  0.63672  0.25637  1.0000
  N   N88       1.0  0.92355  0.60529  0.33886  1.0000
  C   C1266     1.0  0.94742  0.60093  0.33772  1.0000
  C   C1267     1.0  0.91493  0.61620  0.35800  1.0000
  C   C1268     1.0  0.91874  0.62003  0.31902  1.0000
  C   C1269     1.0  0.91536  0.58482  0.34006  1.0000
  C   C1270     1.0  0.95982  0.59114  0.31826  1.0000
  C   C1271     1.0  0.92087  0.60430  0.37943  1.0000
  C   C1272     1.0  0.89517  0.62748  0.31695  1.0000
  C   C1273     1.0  0.89214  0.58358  0.35056  1.0000
  H   H2121     1.0  0.95383  0.61557  0.33803  1.0000
  H   H2122     1.0  0.95215  0.58990  0.35182  1.0000
  H   H2123     1.0  0.89743  0.62007  0.36010  1.0000
  H   H2124     1.0  0.92059  0.63162  0.35580  1.0000
  H   H2125     1.0  0.92647  0.63430  0.31749  1.0000
  H   H2126     1.0  0.92545  0.61270  0.30455  1.0000
  H   H2127     1.0  0.73668  0.89554  0.28631  1.0000
  H   H2128     1.0  0.92517  0.57211  0.34941  1.0000
  H   H2129     1.0  0.50720  0.72997  0.30529  1.0000
  S   S361      1.0  0.90009  0.73320  0.24864  1.0000
  H   H2130     1.0  0.72602  0.97629  0.24659  1.0000
  H   H2131     1.0  0.93771  0.60478  0.38074  1.0000
  H   H2132     1.0  0.91111  0.61212  0.39256  1.0000
  H   H2133     1.0  0.91794  0.58788  0.38208  1.0000
  H   H2134     1.0  0.97895  0.71745  0.34899  1.0000
  H   H2135     1.0  0.69905  0.97182  0.45338  1.0000
  H   H2136     1.0  0.88719  0.61439  0.31508  1.0000
  H   H2137     1.0  0.73953  0.90735  0.30815  1.0000
  H   H2138     1.0  0.88119  0.59848  0.34903  1.0000
  H   H2139     1.0  0.89153  0.57653  0.36755  1.0000
  Fe  Fe183     1.0  0.88547  0.49579  0.36173  1.0000
  H   H2140     1.0  0.69995  0.67310  0.26322  1.0000
  H   H2141     1.0  0.52686  0.74657  0.29268  1.0000
  H   H2142     1.0  0.64175  0.97807  0.44945  1.0000
  H   H2143     1.0  0.63897  0.88577  0.30010  1.0000
  C   C1274     1.0  0.56008  0.89105  0.29802  1.0000
  C   C1275     1.0  0.80747  0.53539  0.27854  1.0000
  H   H2144     1.0  0.51097  0.90367  0.43228  1.0000
  H   H2145     1.0  0.49348  0.88369  0.38692  1.0000
  S   S362      1.0  0.87462  0.69796  0.28049  1.0000
  C   C1276     1.0  0.63903  0.96249  0.44719  1.0000
  H   H2146     1.0  0.75217  0.95002  0.27949  1.0000
  Fe  Fe184     1.0  0.63452  0.72026  0.23851  1.0000
  H   H2147     1.0  0.87566  0.55264  0.30745  1.0000
  H   H2148     1.0  0.56153  0.90398  0.30649  1.0000
  H   H2149     1.0  0.97871  0.68539  0.37370  1.0000
  S   S363      1.0  0.78137  0.54892  0.27855  1.0000
  Fe  Fe185     1.0  0.69932  0.85377  0.24813  1.0000
  H   H2150     1.0  0.71633  0.92597  0.26974  1.0000
  H   H2151     1.0  0.59834  0.89026  0.23947  1.0000
  C   C1277     1.0  0.51317  0.91335  0.41651  1.0000
  Fe  Fe186     1.0  0.86604  0.72875  0.25986  1.0000
  C   C1278     1.0  0.62567  0.88032  0.31180  1.0000
  H   H2152     1.0  0.98822  0.73884  0.31659  1.0000
  H   H2153     1.0  0.84734  0.62559  0.31251  1.0000
  H   H2154     1.0  0.85741  0.53263  0.25042  1.0000
  C   C1279     1.0  0.84910  0.57234  0.29271  1.0000
  H   H2155     1.0  0.63278  0.88014  0.26907  1.0000
  H   H2156     1.0  0.71114  0.53033  0.24272  1.0000
  H   H2157     1.0  0.79036  0.59587  0.28185  1.0000
  C   C1280     1.0  0.71886  0.96865  0.32149  1.0000
  H   H2158     1.0  0.85073  0.59130  0.32920  1.0000
  H   H2159     1.0  0.91723  0.58021  0.32395  1.0000
  H   H2160     1.0  0.75299  0.91558  0.28159  1.0000
  H   H2161     1.0  0.75133  0.48369  0.26953  1.0000
  H   H2162     1.0  0.70569  0.92161  0.41718  1.0000
  H   H2163     1.0  0.59984  0.85062  0.27378  1.0000
  H   H2164     1.0  0.71257  0.93872  0.44678  1.0000
  H   H2165     1.0  0.93405  0.48088  0.37703  1.0000
  H   H2166     1.0  0.58756  0.85262  0.32144  1.0000
  C   C1281     1.0  0.80755  0.59301  0.28326  1.0000
  S   S364      1.0  0.98659  0.55202  0.36185  1.0000
  H   H2167     1.0  0.62588  0.88682  0.32657  1.0000
  S   S365      1.0  0.84387  0.75527  0.27376  1.0000
  N   N89       1.0  0.49944  0.90894  0.40156  1.0000
  C   C1282     1.0  0.98662  0.70290  0.34237  1.0000
  C   C1283     1.0  0.67494  0.96499  0.47963  1.0000
  H   H2168     1.0  0.67110  0.54829  0.25807  1.0000
  H   H2169     1.0  0.81996  0.54275  0.35862  1.0000
  C   C1284     1.0  0.59048  0.84487  0.30710  1.0000
  C   C1285     1.0  0.61633  0.88731  0.26654  1.0000
  H   H2170     1.0  0.88285  0.56578  0.28148  1.0000
  N   N90       1.0  0.67998  0.95231  0.44310  1.0000
  S   S366      1.0  0.71581  0.82710  0.26883  1.0000
  H   H2171     1.0  0.72105  0.96540  0.33852  1.0000
  H   H2172     1.0  0.65673  0.93374  0.43901  1.0000
  C   C1286     1.0  0.84472  0.52912  0.26315  1.0000
  H   H2173     1.0  0.68472  0.90967  0.43475  1.0000
  C   C1287     1.0  0.70501  0.74478  0.26410  1.0000
  H   H2174     1.0  0.80539  0.86485  0.26548  1.0000
  H   H2175     1.0  0.52028  0.88727  0.38267  1.0000
  H   H2176     1.0  0.95915  0.74641  0.24928  1.0000
  C   C1288     1.0  0.60392  0.88819  0.30420  1.0000
  H   H2177     1.0  0.84629  0.61449  0.29003  1.0000
  H   H2178     1.0  0.93874  0.49414  0.40397  1.0000
  C   C1289     1.0  0.82380  0.53926  0.26173  1.0000
  C   C1290     1.0  0.68266  0.96087  0.41978  1.0000
  C   C1291     1.0  0.73636  0.95845  0.27607  1.0000
  H   H2179     1.0  0.79072  0.52250  0.24002  1.0000
  H   H2180     1.0  0.63185  0.82542  0.25252  1.0000
  H   H2181     1.0  0.68616  0.79550  0.24582  1.0000
  S   S367      1.0  0.74366  0.56256  0.23713  1.0000
  H   H2182     1.0  0.61605  0.86573  0.24369  1.0000
  C   C1292     1.0  0.97797  0.71957  0.29744  1.0000
  N   N91       1.0  0.71845  0.94870  0.29010  1.0000
  H   H2183     1.0  0.84836  0.58516  0.27914  1.0000
  H   H2184     1.0  0.65660  0.93635  0.46556  1.0000
  H   H2185     1.0  0.73255  0.76960  0.24500  1.0000
  H   H2186     1.0  0.68570  0.95986  0.30179  1.0000
  H   H2187     1.0  0.80506  0.56539  0.30555  1.0000
  Fe  Fe187     1.0  0.74466  0.83167  0.24484  1.0000
  H   H2188     1.0  0.88652  0.63572  0.33019  1.0000
  H   H2189     1.0  0.60197  0.90563  0.30115  1.0000
  H   H2190     1.0  0.83593  0.49903  0.31122  1.0000
  S   S368      1.0  0.86139  0.65254  0.25552  1.0000
  H   H2191     1.0  0.57819  0.90446  0.27001  1.0000
  C   C1293     1.0  0.73612  0.96146  0.25191  1.0000
  H   H2192     1.0  0.59190  0.88459  0.31820  1.0000
  C   C1294     1.0  0.69107  0.66518  0.25513  1.0000
  C   C1295     1.0  0.69013  0.78159  0.25772  1.0000
  S   S369      1.0  0.98624  0.59669  0.39914  1.0000
  Fe  Fe188     1.0  0.90841  0.70113  0.26650  1.0000
  H   H2193     1.0  0.49979  0.94119  0.38632  1.0000
  Fe  Fe189     1.0  0.87302  0.68401  0.25139  1.0000
  H   H2194     1.0  0.55891  0.87651  0.30940  1.0000
  H   H2195     1.0  0.51841  0.92267  0.37314  1.0000
  H   H2196     1.0  0.49867  0.71418  0.24702  1.0000
  H   H2197     1.0  0.82334  0.59886  0.33412  1.0000
  C   C1296     1.0  0.71835  0.92664  0.28631  1.0000
  H   H2198     1.0  0.54163  0.92262  0.39496  1.0000
  H   H2199     1.0  0.69005  0.74084  0.27416  1.0000
  H   H2200     1.0  0.67198  0.76871  0.28789  1.0000
  H   H2201     1.0  0.81671  0.57049  0.35692  1.0000
  H   H2202     1.0  0.97475  0.66526  0.29456  1.0000
  C   C1297     1.0  0.53730  0.91050  0.40852  1.0000
  H   H2203     1.0  0.62568  0.95843  0.45968  1.0000
  H   H2204     1.0  0.81549  0.58387  0.27039  1.0000
  S   S370      1.0  0.66527  0.85062  0.24610  1.0000
  H   H2205     1.0  0.81113  0.78805  0.28620  1.0000
  H   H2206     1.0  0.96681  0.49471  0.39577  1.0000
  H   H2207     1.0  0.82002  0.87835  0.24300  1.0000
  S   S371      1.0  0.66355  0.70198  0.25213  1.0000
  C   C1298     1.0  0.84171  0.64825  0.24149  1.0000
  H   H2208     1.0  0.98773  0.76011  0.24412  1.0000
  H   H2209     1.0  0.70268  0.97745  0.32092  1.0000
  C   C1299     1.0  0.69891  0.64460  0.25124  1.0000
  H   H2210     1.0  0.67128  0.96975  0.26845  1.0000
  H   H2211     1.0  0.52203  0.76702  0.26127  1.0000
  H   H2212     1.0  0.84962  0.55523  0.33460  1.0000
  H   H2213     1.0  0.77998  0.80739  0.26981  1.0000
  H   H2214     1.0  0.80165  0.83715  0.24703  1.0000
  N   N92       1.0  0.57118  0.76976  0.34220  1.0000
  C   C1300     1.0  0.55453  0.77980  0.35835  1.0000
  C   C1301     1.0  0.56014  0.75695  0.33140  1.0000
  C   C1302     1.0  0.57927  0.78709  0.32591  1.0000
  C   C1303     1.0  0.58878  0.75687  0.35351  1.0000
  C   C1304     1.0  0.56195  0.79447  0.37106  1.0000
  C   C1305     1.0  0.54928  0.73949  0.34609  1.0000
  C   C1306     1.0  0.59770  0.78061  0.30870  1.0000
  C   C1307     1.0  0.60255  0.73879  0.34261  1.0000
  H   H2215     1.0  0.54095  0.78878  0.35063  1.0000
  H   H2216     1.0  0.54759  0.76772  0.37055  1.0000
  H   H2217     1.0  0.57091  0.74965  0.31858  1.0000
  H   H2218     1.0  0.54754  0.76726  0.32313  1.0000
  H   H2219     1.0  0.56611  0.79624  0.31755  1.0000
  H   H2220     1.0  0.58526  0.79836  0.33355  1.0000
  H   H2221     1.0  0.59967  0.76718  0.35647  1.0000
  H   H2222     1.0  0.58198  0.74944  0.36951  1.0000
  H   H2223     1.0  0.54878  0.79892  0.38371  1.0000
  H   H2224     1.0  0.57576  0.78683  0.37905  1.0000
  H   H2225     1.0  0.56551  0.80938  0.36120  1.0000
  H   H2226     1.0  0.53379  0.74607  0.35462  1.0000
  H   H2227     1.0  0.54572  0.72855  0.33626  1.0000
  H   H2228     1.0  0.55932  0.73029  0.35772  1.0000
  H   H2229     1.0  0.60065  0.79459  0.29681  1.0000
  H   H2230     1.0  0.59414  0.76901  0.29978  1.0000
  H   H2231     1.0  0.61263  0.77473  0.31550  1.0000
  H   H2232     1.0  0.60318  0.74048  0.32522  1.0000
  H   H2233     1.0  0.59745  0.72354  0.35001  1.0000
  N   N93       1.0  0.83264  0.57699  0.31152  1.0000
  C   C1308     1.0  0.81059  0.58060  0.30537  1.0000
  H   H2234     1.0  0.79887  0.58863  0.31723  1.0000
  H   H2235     1.0  0.83410  0.54347  0.32108  1.0000
  C   C1309     1.0  0.81759  0.76348  0.24278  1.0000
  H   H2236     1.0  0.97657  0.58578  0.32092  1.0000
  H   H2237     1.0  0.50925  0.87267  0.42877  1.0000
  C   C1310     1.0  0.66918  0.77907  0.27284  1.0000
  H   H2238     1.0  0.49060  0.75507  0.28178  1.0000
  S   S372      1.0  0.60022  0.71596  0.24545  1.0000
  H   H2239     1.0  0.63378  0.96402  0.43143  1.0000
  H   H2240     1.0  0.79186  0.87752  0.24400  1.0000
  H   H2241     1.0  0.67040  0.97469  0.41649  1.0000
  H   H2242     1.0  0.59946  0.82926  0.31195  1.0000
  C   C1311     1.0  0.52387  0.75634  0.24920  1.0000
  Fe  Fe190     1.0  0.87995  0.48844  0.31774  1.0000
  H   H2243     1.0  0.84584  0.55865  0.28648  1.0000
  C   C1312     1.0  0.69953  0.91627  0.43400  1.0000
  H   H2244     1.0  0.52699  0.86046  0.40858  1.0000
  C   C1313     1.0  0.80805  0.78425  0.27145  1.0000
  H   H2245     1.0  0.91840  0.67440  0.35609  1.0000
  H   H2246     1.0  0.88574  0.57239  0.34311  1.0000
  S   S373      1.0  0.70614  0.87853  0.26531  1.0000
  H   H2247     1.0  0.80078  0.55818  0.34342  1.0000
  H   H2248     1.0  0.69538  0.95928  0.25355  1.0000
  S   S374      1.0  0.93994  0.69263  0.27904  1.0000
  H   H2249     1.0  0.54107  0.74982  0.24687  1.0000
  C   C1314     1.0  0.50591  0.88750  0.39497  1.0000
  C   C1315     1.0  0.95476  0.48701  0.40747  1.0000
  H   H2250     1.0  0.61920  0.73758  0.34555  1.0000
  C   C1316     1.0  0.69730  0.96202  0.28707  1.0000
  C   C1317     1.0  0.83782  0.61616  0.30615  1.0000
  S   S375      1.0  0.49766  0.78781  0.34690  1.0000
  N   N94       1.0  0.70048  0.76294  0.24689  1.0000
  H   H2251     1.0  0.58282  0.79964  0.25055  1.0000
  S   S376      1.0  0.62691  0.75369  0.24430  1.0000
  H   H2252     1.0  0.62852  0.86304  0.31584  1.0000
  S   S377      1.0  0.56688  0.76131  0.27319  1.0000
  C   C1318     1.0  0.78632  0.79033  0.24319  1.0000
  C   C1319     1.0  0.81206  0.52084  0.29633  1.0000
  C   C1320     1.0  0.60369  0.85620  0.28780  1.0000
  H   H2253     1.0  0.61598  0.90454  0.26515  1.0000
  C   C1321     1.0  0.72164  0.94758  0.31296  1.0000
  H   H2254     1.0  0.79207  0.49336  0.28202  1.0000
  H   H2255     1.0  0.94815  0.72671  0.24171  1.0000
  C   C1322     1.0  0.67200  0.67565  0.24831  1.0000
  C   C1323     1.0  0.79039  0.79520  0.26221  1.0000
  H   H2256     1.0  0.50841  0.92968  0.42011  1.0000
  H   H2257     1.0  0.82869  0.84084  0.24362  1.0000
  C   C1324     1.0  0.71629  0.72401  0.25677  1.0000
  Fe  Fe191     1.0  0.73652  0.87920  0.24215  1.0000
  H   H2258     1.0  0.67415  0.74802  0.24311  1.0000
  C   C1325     1.0  0.51066  0.86880  0.41260  1.0000
  H   H2259     1.0  0.66173  0.79464  0.27718  1.0000
  C   C1326     1.0  0.81678  0.55767  0.34775  1.0000
  H   H2260     1.0  0.54590  0.91228  0.42146  1.0000
  H   H2261     1.0  0.73143  0.72557  0.24606  1.0000
  H   H2262     1.0  0.53899  0.71858  0.26683  1.0000
  S   S378      1.0  0.75526  0.85377  0.26227  1.0000
  H   H2263     1.0  0.81299  0.60843  0.28049  1.0000
  C   C1327     1.0  0.73817  0.91069  0.29096  1.0000
  C   C1328     1.0  0.87240  0.56766  0.29681  1.0000
  H   H2264     1.0  0.54337  0.89475  0.40404  1.0000
  H   H2265     1.0  0.56901  0.83722  0.25304  1.0000
  H   H2266     1.0  0.96313  0.71719  0.30846  1.0000
  H   H2267     1.0  0.71477  0.74901  0.27497  1.0000
  N   N95       1.0  0.60029  0.87978  0.28494  1.0000
  H   H2268     1.0  0.72028  0.71276  0.27098  1.0000
  H   H2269     1.0  0.54477  0.89539  0.29159  1.0000
  H   H2270     1.0  0.82048  0.55041  0.24790  1.0000
  S   S379      1.0  0.95534  0.64929  0.37184  1.0000
  C   C1329     1.0  0.82170  0.76835  0.26180  1.0000
  C   C1330     1.0  0.50827  0.72697  0.24016  1.0000
  S   S380      1.0  0.75135  0.90918  0.23528  1.0000
  H   H2271     1.0  0.98157  0.64914  0.33068  1.0000
  H   H2272     1.0  0.71781  0.95483  0.41250  1.0000
  H   H2273     1.0  0.70436  0.92033  0.29623  1.0000
  H   H2274     1.0  0.97355  0.73298  0.28518  1.0000
  C   C1331     1.0  0.64207  0.82228  0.23796  1.0000
  C   C1332     1.0  0.80719  0.86850  0.24786  1.0000
  H   H2275     1.0  0.73087  0.94841  0.24648  1.0000
  C   C1333     1.0  0.52209  0.72333  0.27345  1.0000
  H   H2276     1.0  0.75451  0.50154  0.28635  1.0000
  H   H2277     1.0  0.53485  0.71988  0.30315  1.0000
  N   N96       1.0  0.51077  0.73890  0.25736  1.0000
  H   H2278     1.0  0.69322  0.92618  0.46471  1.0000
  H   H2279     1.0  0.49253  0.93633  0.35069  1.0000
  H   H2280     1.0  0.69884  0.97897  0.28421  1.0000
  C   C1334     1.0  0.70448  0.96777  0.41056  1.0000
  C   C1335     1.0  0.50203  0.92515  0.38193  1.0000
  H   H2281     1.0  0.95620  0.49136  0.42300  1.0000
  S   S381      1.0  0.90820  0.48265  0.33538  1.0000
  C   C1336     1.0  0.68220  0.96918  0.45547  1.0000
  H   H2282     1.0  0.70556  0.71677  0.24949  1.0000
  H   H2283     1.0  0.84674  0.61495  0.25140  1.0000
  C   C1337     1.0  0.67864  0.55986  0.24586  1.0000
  H   H2284     1.0  0.53786  0.70415  0.23838  1.0000
  C   C1338     1.0  0.52265  0.73064  0.29479  1.0000
  H   H2285     1.0  0.70506  0.97296  0.39323  1.0000
  H   H2286     1.0  0.69435  0.56142  0.24967  1.0000
  C   C1339     1.0  0.83778  0.62773  0.24226  1.0000
  H   H2287     1.0  0.66864  0.57534  0.24697  1.0000
  H   H2288     1.0  0.74360  0.67428  0.24035  1.0000
  C   C1340     1.0  0.80995  0.49129  0.24308  1.0000
  C   C1341     1.0  0.66046  0.66519  0.23815  1.0000
  Fe  Fe192     1.0  0.98526  0.62574  0.37464  1.0000
  H   H2289     1.0  0.76238  0.50752  0.25854  1.0000
  H   H2290     1.0  0.98362  0.70575  0.28914  1.0000
  H   H2291     1.0  0.75256  0.96179  0.24350  1.0000
  S   S382      1.0  0.75860  0.60440  0.24692  1.0000
  H   H2292     1.0  0.51483  0.70863  0.27740  1.0000
  H   H2293     1.0  0.49960  0.85735  0.41348  1.0000
  H   H2294     1.0  0.95930  0.48104  0.34586  1.0000
  H   H2295     1.0  0.82804  0.75135  0.23518  1.0000
  H   H2296     1.0  0.73081  0.97865  0.31320  1.0000
  H   H2297     1.0  0.67930  0.51429  0.25003  1.0000
  S   S383      1.0  0.90749  0.68492  0.23895  1.0000
  C   C1342     1.0  0.78413  0.48268  0.27542  1.0000
  H   H2298     1.0  0.65754  0.96499  0.48345  1.0000
  H   H2299     1.0  0.66531  0.48714  0.23836  1.0000
  H   H2300     1.0  0.71813  0.49442  0.23683  1.0000
  H   H2301     1.0  0.65834  0.52551  0.23523  1.0000
  H   H2302     1.0  0.83758  0.80882  0.23443  1.0000
  C   C1343     1.0  0.95394  0.74191  0.23552  1.0000
  C   C1344     1.0  0.66806  0.64442  0.23471  1.0000
  S   S384      1.0  0.69748  0.60890  0.23451  1.0000
  H   H2303     1.0  0.67856  0.97782  0.48705  1.0000
  H   H2304     1.0  0.68341  0.95013  0.48712  1.0000
