data_image0
_chemical_formula_structural       FeSNHSFeSFeSCSCFeH4CH2C3HSH2C5H3CSC4H4C6H13SH2FeH3SH3S2CHC4HSHSNH2Fe2HCH4CHCHCHNS2HCHFeH2C2H2C2H3FeHCFeC3SC3H7FeH3CH4CH2C2H6SCH6CHSH3FeH2SC2H2SC2SH4SHSCFeSFeSHNCHCFeS3FeHFeSCH4FeS2FeSFeS2HFeS2C6H4C2HC6H4C2H3CH3C3H5CHCHC2H3C5H2CH3FeSHC2H3C6H7CH4C2HC4SHCH11CSC2H7NH2FeS2HCFeHSH2CH2SH6SH3SCH2CS2HNFeH2C3HSC3S2H3C2SH2C3HC2HFeCH2NCHCH8FeHCHCNHCH6C2H2C3H3CHCH3CHC2FeH2C2H3CHCHCHSH2SHCHCH2NCFeSHFeS2FeS2FeSFeS3HSHFeS2FeS2FeSFeS3NCH5SH2SFeS2FeS2FeSFeS3FeS2FeS2C6H4C6H4C6H12CHCHC6H4C4H4FeCHC6H4C6H4C6H5CH6FeC6H4SC3SC6HCH2NH2SH7CH2C2H4SNC8H20NC8H20NC8H21CFeH5CH6CFeNHC2HCH2C4H3CH3NC5HCH7CH3C3HC2HNH2CHCH11CH3C2H4CHSHC2HFeH2CHC2HC3H2C2HCH4CH13NH2CH3CH3NH6CH3SH3FeC2H3CH2CNCHNCHC4H2CH2CH4CH2CSHSCHSC2HCH7SCH5SFeH7SFeS2FeS2Fe3S3HS2FeSFeSHCSH2C4HCSH2C6H4C6H4C3HC2HCH2CHC2H2CHCNHCHCH2CH2C3H2CH2SHCSH9C2H2CH3C2FeH5CH2SFeCH2CNFeH2SHCHC2H2SH2CSHSFeH2CH3SHFeCHCH2CHSH2FeH12CHCH3SH2CH2CFeS2FeS2FeSFeS3H2NSH2SH3FeS2CHCSCSHCH6C6H4C6H4C3H5FeH4CHC7HCH2CHC5H2SH9C3FeH2CNC8H21CHNC5H3CH2CH4C4HC2HC2H2CH2NH2CH4CHNCH5NSC2H2FeH3CHCH3CHCH2CH6SH2NHCH2CH3FeH2SHCH3CFeH3CHCH3C3SHCH4C2H2CH2CH2CHCHCH3SCHFeS3HCFeSFeS3H3CFeSHC2H3CFeCFeSCHSNFeSFeSHSFeS2FeS2FeSFeS3H3C6H4C6H3C6H4C2NC3HCH4C3FeHCH2SHC4HCH2CHC2HSC4H2SCH2C2H2C8H4SH3CH5NH4C4NCH4CHFeHCH2SH5CH2C2SH2SHCSH2CH3CFeH2CH2CH3CFeC2H4CHCH4NHC3HC2HC2H3C2SHCH4CHC2H2S2CH3CHFeHSH3CH2C2HCH2CNC5HC3H10SCH5CHNCH2CH2CHCNH5SH5CH2CH14CH2NHC2HCH4FeH4CHCHCFeCHSCH4CH4CH8FeHSH2FeS2FeS2Fe2S3FeS2FeSCFeSFeS3HSFeHSH4CFeS2FeS2FeSFeS3HS2CSHFeSH2SHCH9C2H2C5H3C6H4C2HCHC6H4C7H9C5H2C6H4C6H5C6H4SH5C2H5C2HCH2SCHC2HCHCH4C3H2CH3C3H3CH2NCHC4HC2H4CH2CH3CHSH2CH3C2H3CH3SH4C2HCH2C2H4CHNC8H21CH7CH5C2HNC6HCH16C3H2NH2CHCSC2HCFeHSCH4NCH3CHCH2CH2C2NCHNC2H2CHCH2CHNCNH2CHC3H4NHC2H3NC2H2CH2CFeHC3H5CH6CHC2H2CH4NHCH3CH10CH4SH8CHC3H11C3H3CSNHCHCH7C2HFeH3CHCH6SH2SHSCH9C2HFeCH2FeSFeS2FeSFeS3FeS2H2FeSFeS2FeSCHS2CHCH2FeSCSH3NSH3C2H3C6H2C3H2FeC7H6SH2C6H4C6H4C2H4CH2SH4CHC2H2CHCFeCHC4H6NCHC6H3CH6CH6CHCH2CHCHCH2CHCH4CHCH2C2H2CH4CHCHCH2CH4C5HCH7CH3CH2SHCH4C2H4SHC3HCHCH3CH2NHCHN2CNHSCHCH10SCHNHNH3C4HC3SCH8NH2CH5CHFeH8CHFeS2FeS2FeSFeS3H4C4HC2HNFeS4CH3CH2NSHCHCH3FeS2C2H2C3HC4HFe2H2C3H3CH3SHFeH2C6H4C6H4CHC4H4C6H5CH7CH5CH3SNHCHCHCHCH10CH6NH2NC8H20NC5H13S2C4FeCHCH3SCH4CH4CFeH2SH3C2HCH5SCSC2HCH2CH3S4HFeH2SNC8H20NCHC3HC2HCHNH7CH9FeC2HFe2H2CSCS2H2CHS2C3H2FeHCHC3H3CFeH5C2HCSHCHCH5CHCH2CH2C2SC2HCHCHNSH2CH2CHCH3SHSC2H3C2HFe2H4CSH5CH4SH3C2NHCH6CNCH5CHC2H2CH3C2H2C5HC2FeC3HFeHFeCHCH2CH3C2HCHSH2CH8CH3SH2SHCFeSCHCHSCSH2SFeS2FeS2FeSFeS3HCSC7H5C4H6CS2FeHC7H6C8H6CH8CH7CH3NHCHC2HCH2C3NH4CHSH2C2HFeNCH2CHCH2FeHCHFeHCH3CSHCH4FeCH4CSH3CHCHSH3C2H3C4HFeNC8H21CHCSHCH2SCHCH2C2S2CH2SH2NHNH3C3H2CHCHCSC2H2FeH2C2NHCHC2H2C4H2SFeCH6C4H2CH2SH5CH4SHCHSHCH3CH4SH2CSC2SCHC7H2CSHSHFeCH2C3HCHFeH2C2HC5H2C2HSHCH5CSH6C2H5CH4NHCHCNC8H12FeH5FeHCHCH2CHNH9C2HCHS2H4SH3CH3CH2CHCHCHC3HCHSH2FeS2FeS2FeSFeS3FeSFeS2FeSFeS3CSHFeHSCSHSHSFeSFeSFeS2FeS2FeSFeS3H2S2FeS2FeS2FeSFeS3HC3H2SNH2C4H6C7H5C6H4CH3C7H4C6H2C6H4C6H4C6H4C6H4C4H3C6H4C5H4NC6H14C2H7NC8H14C2H4C2H5C2H2CH2NCHCH2CH4C2HCH2NCHC2HCHNCH2CH2C2H2CH5FeCSHCH4CHC4HCNHC2H4SC6H3SHSH2CH5SH5CH6C3HCH2FeSCHC3HSCHCHFeH3CHNHCFeHCHC2H8CFeHCHCH3NH2CH2C2H4C2H2FeS2H7CH2C3H6C2HNHC2H6C2H2CHCSH7CH5CSCNCH4C2H4CH3FeH2CH4CH3CH6CHCH3NCH3C2H5CHCHC2H4CH3CH4CH2CH3C2H8C3H6CHNH2CHC2HCH3NHNCH2CHNH7SCH2CH5C2H5CH11SHFeS2FeS2FeSFeS3H2CH2FeS2FeS2FeSFeS3HFeS2CFeSHFeS2FeS2H2FeS3HCHCHC2H2SH2SHFeSHC3H7CH4SC3HS2H6C4FeCSHSCH9C2H2NC6H4C6H4C6H4C6H4C6H4C6H4C6H4C3H2C2H5CHCFeH2C2HCH3CH3NC8H12CH8CH2C2HSH2NFeH2CNC6H19NC8H22CHC4H3CH2SH2FeHC3HC6H2SHC3H2CHC5H8CH3CH3FeH2NHN2HCH2C2HS2H3SH3CH2CHCH7FeC4HCH3CH4FeS2FeS2FeSFeS3FeS2FeS2FeSFeS3HSH5SH2CHC6H4C6H4C6H4SCH2N2H2C6H4C6H4C2FeHC2HCH5C3H4CHNC4H4C2HCH3CSH2C2H8NHC4H2C2H3CHCHCH2CH4SC2HCH8CHCH2SHC5H3CSNCH2CHC2FeH4CHC2HCNCSCHCH2FeCH9CH6C4HSH8CH5NC8H2CH5NH4CH6CHCH3CH3FeCH2CH3CH5C2H3SHCHCNCH5CH3CHSH3SH4SH2SH2CHCHSHSH4SHCFeSH3C3H7C2H3C3HNHCH2CH2C2H2C3H3CHC3H2NH2CHCHCH2S2HCH2CH3SC2HCHCFe2HFeHC2SH3CSH3NC2H3CHSCFeCFeSFeS2FeSFeS3FeS2FeS2FeHFeS4HSCFeS2FeSFeS2HFeSFeSFeS2FeS2FeS2FeSFeS3HCH2CSH2FeSCFeS2FeSFeS3C6H3SCH2C2H2C6H4C2HC2HSHC3H4CH2C6H2C6H4C6H3SH2CH2C2HC6H6CH3CHNHC6H2C6H2C6H4CHNFeC2H2C3HSH2CHSHSH4CHCH2CHC3FeH2CHC2HFeH3CHCH4NCH4SNC8H21CH2CHCSH4FeH3C2H2CN2C8H20C2H6NHCH3CSH2C2H2CH2CNH2CHNC8H17FeHSC2H4C2H8CH2NS2HSHCH2CH4CHCH2CH2FeH3CH2SH4CH3C2FeHCHCH6CHC3H4C2H3CHCNH6SCH2C3H3C2HNC2H3CH5CHSH2CH8C2H2NH4SH5CH2CHCH9CHCHCH2CH7C2HFeCHCHCFeH2CH2CH2SCFeS2FeS2FeSFeS3CHSNH4FeHSCHCH7FeH3CHFeSC2H2SHC2HCSFeHC2H2CNCHSHCH3CHCHNHSH6C2H2C2HSH2CHC6H4C6H4C6H6C2HCHCH3C4H2CH4SC2H2C2H2NHCH3CH5CH3CH4C2H4CHCH2CNHCH3CH3CH5CH4C2HCHC2HCFeS2FeS2H2FeSHSH4CHFeSCSH2Fe2NFeS3HFeS2FeSCFeSFeS3CNCHFeSH3CSH2CHFeHFeSH2C2H2CH4CH4CHC2HCHCH4CH2CH2C6H4C3HFeSH2CHC6H4CH2C4H3C5H5C3HCH2C2HSC3H4FeH2CH2CSH3C6H10SCHC2H3NHNFeCH2CH2SCHCHC2SNC4HCNCH10SH5C2H2NC7H19C2HCH4SHCHNH2CH10CHCH3C4H3SHCH2CH3C4H3SC2SC2HCHC2H9CHFeSC2H4SH3CH2C2H2C2HC2HSNH4FeCSHCH4CH3FeH2CSHS2CHFeS2FeS2FeSFeS3FeS2FeS2FeHFeS4FeS2FeCSFeCFe2S2FeS2FeS2FeSFeS3HCSHSC3H6CH2C6H5C8H4CH2CHCH2CHC6H4C6H4CNCHC4H2C6H4C6H5C6H4NC8H20C2H2CH2CH2CH2NCHSHCHCH2SHNC7H13CHNC5H3CH7C3HC3H10C2NC7H18CFeHCH3CH9CH10C2H5CH3CH6CHCH7CS2NH3C2H2CH6CH3CH2SH2CFeHSCH3CH5C2HCSFeCH3CHFeHCH2CH6C4H3NC2H3CH6CHFeCHCNH7CHCSHCHFeHCHNHCH3CH5SHCHSCHNH7SH5NH3CH3CHSCH2C2FeSCFeS2Fe2S5FeSFeS2FeHCFeSFeHS2FeHSHCH6C2H2C6H6CHFeH2C6H4CHCHC8H4C6H4NFeHC2NCHSCHCH4SH2CH3C2H5CH6CHCNC8H20NHC2NH2C5HSC2HSCHFeH2CSC2H2SC3H3C2H5SCH2SHSH2CH10CH5SHSHNHC2HCH6CHCH3CH3FeS2FeS2FeSFeS3Fe2SFeHC2HFeHS2H2SH6NCHC2NH2CH4CHCSH4FeCH2CHCH3C6H4C6H4C3H2CHCH6CH3NH5CHNCH2SHSC2H2C2HC2H2CH5C2H2CHC3H3CNC5HC2H16FeCH5SH5CHCH3CHFeHFeHSC4S2FeS2CSHFeSFeS2FeS2HFeS2FeS2FeSFeS3FeS2FeS2FeSFeCS2FeS2FeSCFeSFeS3C6H4NCH2SC6H4C6H5C2SC3FeCHCH2CSNH2C2FeH5C6H5CHC6H5C4H8CHC2H2NC8H20NC7H3SH8CHSCH4CNC7H18CH3CH4CFeH5C3HCHCSHCHCH3CH4SHCH3CH3CHNCH3CH8C4H4C2H4CSNCH3C3SH2CH6C2HCH4C2H3SH6FeH5SC2H2C2H6NH4FeS2FeS2FeSFeHS2HFeS2FeS2FeSH2S2H2SHCSHFeSH2SFeS2FeS2FeSFeS3FeSFeS2FeS2HC3H2C6H4C6H7C6H6SCHC2H3C3H3C6H4C6H4CH8C3H2CHNH2SNC8H20CH4CHFeHC2HCHCH4CNC8H21CH4C4H2C2HCH6CH2CHNCHC2HC3H2CH6CH3CH3C2H5CH2SCH3CHCFeHCHC2HFeCH3NH2CH2C2H3CH2C2H2CSHC2H5CSHC4H3CHCNHC2HCHC3HN3H2C2HC2H2SC2H2CHSH4CH14CS3HCH3CHSHCHFeCFeC2HFeS2FeS2FeHFeS3HFeS2HC2FeSHCSHFeSFeS2FeS2C2HCH3C6H5SCH2C2SC6H5C2H2C3H4C3H5CHNH5C4HSH7S2H9SCH5CH4CH4C3HNCHC2HC2HC2H6CH2CFeCNHCHCHCH2C5H5CH3C2H4CHC2HCNHC2HCH2CH7CH2NCH2C3HCH3CH2C2H5CH3FeNH4CH2CSH3CH4FeHC2H3CH5CH
_chemical_formula_sum              "Fe384 S768 N192 H4608 C2688"
_cell_length_a       77.01
_cell_length_b       76.8347
_cell_length_c       76.7924
_cell_angle_alpha    75.2233
_cell_angle_beta     75.2286
_cell_angle_gamma    75.2395

_space_group_name_H-M_alt    "P 1"
_space_group_IT_number       1

loop_
  _space_group_symop_operation_xyz
  'x, y, z'

loop_
  _atom_site_type_symbol
  _atom_site_label
  _atom_site_symmetry_multiplicity
  _atom_site_fract_x
  _atom_site_fract_y
  _atom_site_fract_z
  _atom_site_occupancy
  Fe  Fe1       1.0  0.16869  0.45456  0.09820  1.0000
  S   S1        1.0  0.17998  0.42432  0.09936  1.0000
  N   N1        1.0  0.30728  0.38388  0.15729  1.0000
  H   H1        1.0  0.13345  0.42356  0.99238  1.0000
  S   S2        1.0  0.22070  0.43506  0.08370  1.0000
  Fe  Fe2       1.0  0.19735  0.43407  0.07162  1.0000
  S   S3        1.0  0.20479  0.42205  0.04600  1.0000
  Fe  Fe3       1.0  0.20228  0.42847  0.11127  1.0000
  S   S4        1.0  0.21228  0.41344  0.13755  1.0000
  C   C1        1.0  0.27539  0.38011  0.15559  1.0000
  S   S5        1.0  0.18919  0.45770  0.11242  1.0000
  C   C2        1.0  0.14041  0.41479  0.00358  1.0000
  Fe  Fe4       1.0  0.07157  0.46842  0.20432  1.0000
  H   H2        1.0  0.19194  0.40728  0.20158  1.0000
  H   H3        1.0  0.26371  0.44534  0.11486  1.0000
  H   H4        1.0  0.17753  0.37046  0.04310  1.0000
  H   H5        1.0  0.18498  0.48508  0.00496  1.0000
  C   C3        1.0  0.25548  0.43836  0.12695  1.0000
  H   H6        1.0  0.14554  0.38830  0.20122  1.0000
  H   H7        1.0  0.01225  0.45572  0.16560  1.0000
  C   C4        1.0  0.19028  0.38780  0.99815  1.0000
  C   C5        1.0  0.14537  0.37034  0.02254  1.0000
  C   C6        1.0  0.16493  0.37177  0.01162  1.0000
  H   H8        1.0  0.13310  0.48483  0.17494  1.0000
  S   S6        1.0  0.09451  0.41749  0.16924  1.0000
  H   H9        1.0  0.13547  0.37454  0.01320  1.0000
  H   H10       1.0  0.20417  0.47741  0.98812  1.0000
  C   C7        1.0  0.23032  0.42223  0.14031  1.0000
  C   C8        1.0  0.23430  0.41978  0.15777  1.0000
  C   C9        1.0  0.24870  0.42690  0.15981  1.0000
  C   C10       1.0  0.25938  0.43613  0.14430  1.0000
  C   C11       1.0  0.24095  0.43163  0.12501  1.0000
  H   H11       1.0  0.22617  0.41250  0.16971  1.0000
  H   H12       1.0  0.19074  0.45311  0.21961  1.0000
  H   H13       1.0  0.23818  0.43355  0.11153  1.0000
  C   C12       1.0  0.12600  0.45533  0.12341  1.0000
  S   S7        1.0  0.27830  0.44442  0.14557  1.0000
  C   C13       1.0  0.10227  0.45103  0.15090  1.0000
  C   C14       1.0  0.10556  0.43229  0.15083  1.0000
  C   C15       1.0  0.11845  0.42524  0.13651  1.0000
  C   C16       1.0  0.12880  0.43673  0.12287  1.0000
  H   H14       1.0  0.19888  0.37620  0.00618  1.0000
  H   H15       1.0  0.09192  0.45669  0.16157  1.0000
  H   H16       1.0  0.12079  0.41080  0.13628  1.0000
  H   H17       1.0  0.13906  0.43117  0.11207  1.0000
  C   C17       1.0  0.19301  0.43337  0.02805  1.0000
  C   C18       1.0  0.17560  0.44458  0.03148  1.0000
  C   C19       1.0  0.16562  0.45181  0.01736  1.0000
  C   C20       1.0  0.17301  0.44800  0.99972  1.0000
  C   C21       1.0  0.19075  0.43751  0.99604  1.0000
  C   C22       1.0  0.20067  0.43011  0.01023  1.0000
  H   H18       1.0  0.16953  0.44708  0.04519  1.0000
  H   H19       1.0  0.15190  0.45995  0.02028  1.0000
  H   H20       1.0  0.15407  0.39931  0.03273  1.0000
  H   H21       1.0  0.21418  0.42152  0.00750  1.0000
  H   H22       1.0  0.26855  0.47551  0.11749  1.0000
  H   H23       1.0  0.31096  0.39954  0.17544  1.0000
  H   H24       1.0  0.17221  0.42724  0.14486  1.0000
  H   H25       1.0  0.29378  0.40663  0.13875  1.0000
  H   H26       1.0  0.14528  0.35583  0.02972  1.0000
  H   H27       1.0  0.16701  0.41529  0.98704  1.0000
  H   H28       1.0  0.28906  0.40605  0.16951  1.0000
  H   H29       1.0  0.29497  0.35973  0.16931  1.0000
  H   H30       1.0  0.14135  0.45333  0.16609  1.0000
  S   S8        1.0  0.07676  0.41595  0.22225  1.0000
  H   H31       1.0  0.17481  0.36058  0.01854  1.0000
  H   H32       1.0  0.29572  0.36776  0.19383  1.0000
  Fe  Fe5       1.0  0.28407  0.44621  0.17230  1.0000
  H   H33       1.0  0.02663  0.42624  0.20562  1.0000
  H   H34       1.0  0.32175  0.34731  0.17691  1.0000
  H   H35       1.0  0.10978  0.47701  0.13726  1.0000
  S   S9        1.0  0.18467  0.46399  0.07000  1.0000
  H   H36       1.0  0.16586  0.45281  0.16213  1.0000
  H   H37       1.0  0.15793  0.48188  0.17167  1.0000
  H   H38       1.0  0.17656  0.39054  0.05133  1.0000
  S   S10       1.0  0.27706  0.42877  0.20030  1.0000
  S   S11       1.0  0.30016  0.45194  0.21412  1.0000
  C   C23       1.0  0.01221  0.42898  0.21196  1.0000
  H   H39       1.0  0.01728  0.47647  0.16708  1.0000
  C   C24       1.0  0.00744  0.47797  0.20320  1.0000
  C   C25       1.0  0.00679  0.43334  0.22942  1.0000
  C   C26       1.0  0.29547  0.37103  0.15706  1.0000
  C   C27       1.0  0.30441  0.47826  0.11277  1.0000
  H   H40       1.0  0.14197  0.42429  0.01156  1.0000
  S   S12       1.0  0.14004  0.46957  0.10783  1.0000
  H   H41       1.0  0.31732  0.42272  0.12382  1.0000
  S   S13       1.0  0.31382  0.44273  0.17269  1.0000
  N   N2        1.0  0.17029  0.39015  0.00766  1.0000
  H   H42       1.0  0.16596  0.36750  0.99853  1.0000
  H   H43       1.0  0.18604  0.42332  0.17059  1.0000
  Fe  Fe6       1.0  0.30642  0.42703  0.20145  1.0000
  Fe  Fe7       1.0  0.20649  0.46407  0.08445  1.0000
  H   H44       1.0  0.27438  0.38824  0.14155  1.0000
  C   C28       1.0  0.15924  0.40433  0.99485  1.0000
  H   H45       1.0  0.30153  0.36387  0.14529  1.0000
  H   H46       1.0  0.26031  0.48049  0.08786  1.0000
  H   H47       1.0  0.17386  0.39525  0.20546  1.0000
  H   H48       1.0  0.19564  0.40022  0.99722  1.0000
  C   C29       1.0  0.18015  0.38462  0.03877  1.0000
  H   H49       1.0  0.31883  0.41784  0.14741  1.0000
  C   C30       1.0  0.00733  0.47088  0.16312  1.0000
  H   H50       1.0  0.13945  0.39277  0.16619  1.0000
  C   C31       1.0  0.20040  0.46043  0.22186  1.0000
  H   H51       1.0  0.21939  0.46821  0.11605  1.0000
  N   N3        1.0  0.16045  0.41509  0.17282  1.0000
  S   S14       1.0  0.27594  0.47273  0.18216  1.0000
  S   S15       1.0  0.05583  0.45233  0.19577  1.0000
  H   H52       1.0  0.20553  0.46972  0.20902  1.0000
  C   C32       1.0  0.29149  0.38284  0.19185  1.0000
  H   H53       1.0  0.31148  0.39097  0.12744  1.0000
  Fe  Fe8       1.0  0.30501  0.46781  0.18512  1.0000
  H   H54       1.0  0.25165  0.42506  0.17327  1.0000
  H   H55       1.0  0.21063  0.47728  0.03833  1.0000
  C   C33       1.0  0.17452  0.41858  0.18143  1.0000
  C   C34       1.0  0.20019  0.48157  0.00166  1.0000
  H   H56       1.0  0.29918  0.46882  0.10757  1.0000
  H   H57       1.0  0.14834  0.42806  0.14899  1.0000
  C   C35       1.0  0.18379  0.40221  0.19461  1.0000
  C   C36       1.0  0.13877  0.40241  0.20298  1.0000
  H   H58       1.0  0.21248  0.44977  0.22534  1.0000
  H   H59       1.0  0.13063  0.41883  0.17786  1.0000
  H   H60       1.0  0.13120  0.40565  0.01232  1.0000
  Fe  Fe9       1.0  0.05135  0.43820  0.22548  1.0000
  H   H61       1.0  0.17202  0.41070  0.02139  1.0000
  C   C37       1.0  0.32060  0.41141  0.13556  1.0000
  Fe  Fe10      1.0  0.08232  0.43161  0.19312  1.0000
  C   C38       1.0  0.15923  0.42935  0.15531  1.0000
  C   C39       1.0  0.11235  0.46256  0.13710  1.0000
  C   C40       1.0  0.14175  0.41725  0.18534  1.0000
  S   S16       1.0  0.09850  0.44911  0.19886  1.0000
  C   C41       1.0  0.15495  0.44958  0.15720  1.0000
  C   C42       1.0  0.16668  0.39656  0.16745  1.0000
  C   C43       1.0  0.15371  0.39144  0.15809  1.0000
  H   H62       1.0  0.16894  0.38522  0.17937  1.0000
  H   H63       1.0  0.18036  0.39577  0.15792  1.0000
  H   H64       1.0  0.15862  0.37684  0.15674  1.0000
  H   H65       1.0  0.14045  0.37821  0.03365  1.0000
  H   H66       1.0  0.15382  0.39970  0.14393  1.0000
  H   H67       1.0  0.31915  0.47720  0.10611  1.0000
  H   H68       1.0  0.15435  0.45849  0.14340  1.0000
  Fe  Fe11      1.0  0.27147  0.45509  0.21040  1.0000
  H   H69       1.0  0.13837  0.43039  0.19022  1.0000
  H   H70       1.0  0.26870  0.38902  0.16570  1.0000
  H   H71       1.0  0.12390  0.40209  0.20723  1.0000
  C   C44       1.0  0.29999  0.39388  0.17308  1.0000
  H   H72       1.0  0.23465  0.46328  0.01897  1.0000
  H   H73       1.0  0.00823  0.47545  0.14804  1.0000
  H   H74       1.0  0.27628  0.38683  0.19450  1.0000
  H   H75       1.0  0.16843  0.42993  0.18911  1.0000
  C   C45       1.0  0.21728  0.48284  0.11499  1.0000
  H   H76       1.0  0.99765  0.37052  0.21048  1.0000
  H   H77       1.0  0.26733  0.36925  0.15832  1.0000
  C   C46       1.0  0.30765  0.39788  0.13940  1.0000
  C   C47       1.0  0.16841  0.39694  0.02498  1.0000
  H   H78       1.0  0.29556  0.38667  0.20302  1.0000
  H   H79       1.0  0.27595  0.48421  0.14180  1.0000
  H   H80       1.0  0.14300  0.40561  0.21440  1.0000
  H   H81       1.0  0.09605  0.47902  0.21587  1.0000
  H   H82       1.0  0.19500  0.38437  0.03331  1.0000
  H   H83       1.0  0.02000  0.37995  0.21760  1.0000
  S   S17       1.0  0.32347  0.40005  0.21345  1.0000
  C   C48       1.0  0.99897  0.42807  0.20273  1.0000
  H   H84       1.0  0.30386  0.47338  0.12776  1.0000
  H   H85       1.0  0.00329  0.42463  0.18925  1.0000
  H   H86       1.0  0.24392  0.48372  0.00750  1.0000
  H   H87       1.0  0.24703  0.47209  0.02997  1.0000
  H   H88       1.0  0.20988  0.48103  0.14436  1.0000
  H   H89       1.0  0.01371  0.46553  0.19735  1.0000
  C   C49       1.0  0.23703  0.47635  0.02072  1.0000
  H   H90       1.0  0.00888  0.47395  0.21780  1.0000
  S   S18       1.0  0.24749  0.46703  0.23059  1.0000
  H   H91       1.0  0.31625  0.48401  0.21320  1.0000
  H   H92       1.0  0.19359  0.39209  0.18688  1.0000
  H   H93       1.0  0.16432  0.47336  0.21903  1.0000
  Fe  Fe12      1.0  0.09105  0.43524  0.22836  1.0000
  H   H94       1.0  0.20506  0.46954  0.01200  1.0000
  H   H95       1.0  0.15690  0.39805  0.98429  1.0000
  S   S19       1.0  0.15924  0.45559  0.98303  1.0000
  C   C50       1.0  0.01660  0.37426  0.23259  1.0000
  C   C51       1.0  0.16015  0.47803  0.23229  1.0000
  H   H96       1.0  0.22346  0.47117  0.26502  1.0000
  H   H97       1.0  0.01180  0.17819  0.43190  1.0000
  S   S20       1.0  0.18997  0.28043  0.48174  1.0000
  C   C52       1.0  0.31944  0.18643  0.37330  1.0000
  C   C53       1.0  0.00715  0.19224  0.42407  1.0000
  S   S21       1.0  0.02299  0.43448  0.24146  1.0000
  H   H98       1.0  0.14099  0.05755  0.47914  1.0000
  H   H99       1.0  0.12455  0.39100  0.47555  1.0000
  H   H100      1.0  0.08530  0.26372  0.46155  1.0000
  H   H101      1.0  0.15262  0.34326  0.46491  1.0000
  S   S22       1.0  0.24662  0.03227  0.46765  1.0000
  H   H102      1.0  0.31500  0.22222  0.35368  1.0000
  S   S23       1.0  0.20769  0.05283  0.45522  1.0000
  C   C54       1.0  0.15316  0.24947  0.44218  1.0000
  Fe  Fe13      1.0  0.22095  0.02399  0.46679  1.0000
  S   S24       1.0  0.22277  0.99888  0.45565  1.0000
  Fe  Fe14      1.0  0.23193  0.06143  0.45939  1.0000
  S   S25       1.0  0.24758  0.08169  0.43873  1.0000
  H   H103      1.0  0.20544  0.35239  0.32342  1.0000
  N   N4        1.0  0.21269  0.36750  0.34019  1.0000
  C   C55       1.0  0.26512  0.25164  0.45731  1.0000
  H   H104      1.0  0.23081  0.37881  0.31571  1.0000
  C   C56       1.0  0.18042  0.36307  0.34036  1.0000
  Fe  Fe15      1.0  0.11337  0.15403  0.45064  1.0000
  S   S26       1.0  0.09686  0.17880  0.43491  1.0000
  S   S27       1.0  0.12980  0.12948  0.43899  1.0000
  S   S28       1.0  0.16633  0.45367  0.30132  1.0000
  Fe  Fe16      1.0  0.07646  0.17798  0.46182  1.0000
  H   H105      1.0  0.18242  0.38298  0.45551  1.0000
  Fe  Fe17      1.0  0.11083  0.19489  0.44602  1.0000
  S   S29       1.0  0.12134  0.22072  0.43079  1.0000
  C   C57       1.0  0.21478  0.33332  0.35788  1.0000
  H   H106      1.0  0.99726  0.23195  0.39949  1.0000
  H   H107      1.0  0.00313  0.16461  0.41118  1.0000
  H   H108      1.0  0.15757  0.26240  0.43636  1.0000
  H   H109      1.0  0.17286  0.35993  0.33138  1.0000
  Fe  Fe18      1.0  0.16789  0.42839  0.35170  1.0000
  S   S30       1.0  0.16181  0.41523  0.33153  1.0000
  S   S31       1.0  0.17168  0.41391  0.38069  1.0000
  Fe  Fe19      1.0  0.18467  0.42751  0.31181  1.0000
  S   S32       1.0  0.20642  0.41152  0.29289  1.0000
  Fe  Fe20      1.0  0.14401  0.44271  0.32285  1.0000
  S   S33       1.0  0.11615  0.44878  0.31569  1.0000
  S   S34       1.0  0.19208  0.43898  0.33232  1.0000
  H   H110      1.0  0.19860  0.37626  0.31737  1.0000
  Fe  Fe21      1.0  0.18023  0.31153  0.43586  1.0000
  S   S35       1.0  0.17212  0.32857  0.40924  1.0000
  S   S36       1.0  0.19870  0.28338  0.43702  1.0000
  C   C58       1.0  0.17198  0.39014  0.38831  1.0000
  C   C59       1.0  0.18249  0.37976  0.40137  1.0000
  C   C60       1.0  0.18267  0.36087  0.40797  1.0000
  C   C61       1.0  0.17219  0.35227  0.40165  1.0000
  C   C62       1.0  0.16178  0.36265  0.38853  1.0000
  C   C63       1.0  0.16163  0.38151  0.38192  1.0000
  H   H111      1.0  0.19060  0.38636  0.40630  1.0000
  H   H112      1.0  0.19103  0.35293  0.41781  1.0000
  H   H113      1.0  0.15366  0.35609  0.38355  1.0000
  H   H114      1.0  0.15328  0.38944  0.37205  1.0000
  C   C64       1.0  0.24164  0.34965  0.32123  1.0000
  C   C65       1.0  0.26105  0.25252  0.42195  1.0000
  H   H115      1.0  0.23995  0.27667  0.42543  1.0000
  C   C66       1.0  0.23769  0.45093  0.24859  1.0000
  C   C67       1.0  0.22566  0.45699  0.26388  1.0000
  C   C68       1.0  0.21627  0.44484  0.27764  1.0000
  C   C69       1.0  0.21896  0.42651  0.27621  1.0000
  C   C70       1.0  0.23142  0.42028  0.26119  1.0000
  C   C71       1.0  0.12656  0.37768  0.47128  1.0000
  H   H116      1.0  0.21974  0.19476  0.43274  1.0000
  H   H117      1.0  0.20694  0.44968  0.28934  1.0000
  H   H118      1.0  0.23357  0.40610  0.26008  1.0000
  H   H119      1.0  0.23013  0.39515  0.34655  1.0000
  C   C72       1.0  0.13618  0.22704  0.44110  1.0000
  C   C73       1.0  0.14226  0.24364  0.43348  1.0000
  H   H120      1.0  0.25961  0.25304  0.40816  1.0000
  H   H121      1.0  0.21589  0.17315  0.47111  1.0000
  H   H122      1.0  0.25502  0.35198  0.31229  1.0000
  C   C74       1.0  0.23954  0.10619  0.46191  1.0000
  H   H123      1.0  0.13827  0.25213  0.42097  1.0000
  H   H124      1.0  0.16488  0.45007  0.24982  1.0000
  H   H125      1.0  0.23431  0.34576  0.31260  1.0000
  C   C75       1.0  0.03413  0.16776  0.46436  1.0000
  C   C76       1.0  0.04294  0.15520  0.45294  1.0000
  C   C77       1.0  0.03300  0.14391  0.44933  1.0000
  H   H126      1.0  0.13129  0.27462  0.46556  1.0000
  H   H127      1.0  0.18479  0.12698  0.46541  1.0000
  H   H128      1.0  0.29981  0.09103  0.44731  1.0000
  H   H129      1.0  0.05726  0.15457  0.44645  1.0000
  H   H130      1.0  0.03974  0.13462  0.44003  1.0000
  C   C78       1.0  0.16604  0.03768  0.45534  1.0000
  H   H131      1.0  0.18783  0.36410  0.47375  1.0000
  C   C79       1.0  0.25030  0.10084  0.44576  1.0000
  H   H132      1.0  0.24355  0.21388  0.41354  1.0000
  C   C80       1.0  0.26678  0.12551  0.44082  1.0000
  C   C81       1.0  0.26384  0.11064  0.43516  1.0000
  H   H133      1.0  0.27735  0.13288  0.43264  1.0000
  H   H134      1.0  0.27219  0.10660  0.42263  1.0000
  H   H135      1.0  0.01341  0.21925  0.42299  1.0000
  C   C82       1.0  0.16738  0.09114  0.46377  1.0000
  C   C83       1.0  0.15893  0.10485  0.45086  1.0000
  C   C84       1.0  0.14041  0.11304  0.45555  1.0000
  C   C85       1.0  0.17934  0.36936  0.46304  1.0000
  C   C86       1.0  0.21664  0.39278  0.35502  1.0000
  H   H136      1.0  0.18174  0.08516  0.46012  1.0000
  H   H137      1.0  0.16676  0.10919  0.43723  1.0000
  C   C87       1.0  0.20553  0.23149  0.42857  1.0000
  H   H138      1.0  0.20182  0.24644  0.42281  1.0000
  H   H139      1.0  0.25008  0.42771  0.23563  1.0000
  H   H140      1.0  0.16285  0.13912  0.46120  1.0000
  Fe  Fe22      1.0  0.20981  0.29165  0.45734  1.0000
  S   S37       1.0  0.25964  0.14887  0.46492  1.0000
  H   H141      1.0  0.21179  0.22462  0.41675  1.0000
  C   C88       1.0  0.19013  0.99195  0.47830  1.0000
  C   C89       1.0  0.14900  0.38870  0.44410  1.0000
  H   H142      1.0  0.24548  0.19361  0.46698  1.0000
  H   H143      1.0  0.99297  0.34719  0.23645  1.0000
  H   H144      1.0  0.31483  0.07011  0.45281  1.0000
  C   C90       1.0  0.11526  0.43246  0.26254  1.0000
  C   C91       1.0  0.09982  0.44358  0.27125  1.0000
  C   C92       1.0  0.10019  0.44857  0.28756  1.0000
  C   C93       1.0  0.11603  0.44265  0.29509  1.0000
  C   C94       1.0  0.13154  0.43180  0.28620  1.0000
  C   C95       1.0  0.13109  0.42662  0.27006  1.0000
  H   H145      1.0  0.08756  0.44811  0.26557  1.0000
  H   H146      1.0  0.24492  0.33811  0.33269  1.0000
  H   H147      1.0  0.14378  0.42712  0.29192  1.0000
  H   H148      1.0  0.14305  0.41800  0.26342  1.0000
  H   H149      1.0  0.16155  0.35414  0.44240  1.0000
  H   H150      1.0  0.12118  0.05177  0.47619  1.0000
  H   H151      1.0  0.32210  0.23915  0.39345  1.0000
  C   C96       1.0  0.23111  0.19583  0.43867  1.0000
  H   H152      1.0  0.01503  0.47203  0.25087  1.0000
  H   H153      1.0  0.08709  0.23980  0.46332  1.0000
  H   H154      1.0  0.13991  0.38220  0.42198  1.0000
  H   H155      1.0  0.22720  0.32473  0.36289  1.0000
  C   C97       1.0  0.27407  0.23858  0.42995  1.0000
  C   C98       1.0  0.14358  0.06378  0.44373  1.0000
  H   H156      1.0  0.13666  0.20342  0.46336  1.0000
  C   C99       1.0  0.13736  0.03277  0.44897  1.0000
  C   C100      1.0  0.12374  0.07486  0.44443  1.0000
  C   C101      1.0  0.17830  0.03796  0.43596  1.0000
  C   C102      1.0  0.14529  0.01185  0.45279  1.0000
  S   S38       1.0  0.17061  0.24589  0.47058  1.0000
  H   H157      1.0  0.14941  0.06312  0.42901  1.0000
  C   C103      1.0  0.19997  0.36474  0.32951  1.0000
  H   H158      1.0  0.30986  0.23140  0.37375  1.0000
  H   H159      1.0  0.12233  0.03473  0.45467  1.0000
  H   H160      1.0  0.13857  0.03689  0.43377  1.0000
  H   H161      1.0  0.12373  0.08732  0.43322  1.0000
  H   H162      1.0  0.20287  0.32823  0.36765  1.0000
  H   H163      1.0  0.16490  0.48021  0.26548  1.0000
  H   H164      1.0  0.19191  0.02886  0.43712  1.0000
  H   H165      1.0  0.17239  0.03304  0.42683  1.0000
  H   H166      1.0  0.18078  0.05201  0.42939  1.0000
  H   H167      1.0  0.15935  0.00836  0.44460  1.0000
  H   H168      1.0  0.13665  0.00467  0.44863  1.0000
  C   C104      1.0  0.20550  0.38651  0.34446  1.0000
  S   S39       1.0  0.23888  0.28277  0.46127  1.0000
  C   C105      1.0  0.23152  0.36746  0.32811  1.0000
  C   C106      1.0  0.15805  0.23865  0.45851  1.0000
  H   H169      1.0  0.01196  0.46827  0.27518  1.0000
  H   H170      1.0  0.12788  0.48435  0.31865  1.0000
  H   H171      1.0  0.08814  0.45694  0.29439  1.0000
  H   H172      1.0  0.19704  0.20302  0.45827  1.0000
  H   H173      1.0  0.11452  0.06687  0.44246  1.0000
  H   H174      1.0  0.17120  0.04576  0.46239  1.0000
  H   H175      1.0  0.15141  0.07233  0.44718  1.0000
  N   N5        1.0  0.22430  0.20898  0.45170  1.0000
  H   H176      1.0  0.11547  0.27167  0.45313  1.0000
  H   H177      1.0  0.02628  0.37810  0.23882  1.0000
  Fe  Fe23      1.0  0.28595  0.15920  0.45251  1.0000
  S   S40       1.0  0.12886  0.17011  0.45953  1.0000
  S   S41       1.0  0.00167  0.13223  0.45084  1.0000
  H   H178      1.0  0.14390  0.45684  0.24175  1.0000
  C   C107      1.0  0.15887  0.37106  0.47240  1.0000
  Fe  Fe24      1.0  0.17165  0.46434  0.32364  1.0000
  H   H179      1.0  0.11584  0.29389  0.45581  1.0000
  S   S42       1.0  0.08887  0.19659  0.47121  1.0000
  H   H180      1.0  0.23110  0.23405  0.43339  1.0000
  H   H181      1.0  0.28904  0.05562  0.47337  1.0000
  C   C108      1.0  0.14141  0.21611  0.45725  1.0000
  H   H182      1.0  0.01436  0.20310  0.44468  1.0000
  H   H183      1.0  0.14565  0.46622  0.25994  1.0000
  S   S43       1.0  0.04540  0.18368  0.46751  1.0000
  H   H184      1.0  0.13941  0.34503  0.43459  1.0000
  H   H185      1.0  0.18036  0.35184  0.35270  1.0000
  H   H186      1.0  0.99509  0.39789  0.23645  1.0000
  H   H187      1.0  0.07603  0.47481  0.34037  1.0000
  H   H188      1.0  0.17247  0.37607  0.34443  1.0000
  H   H189      1.0  0.22521  0.35424  0.36373  1.0000
  S   S44       1.0  0.14796  0.45506  0.34481  1.0000
  H   H190      1.0  0.22897  0.09892  0.47005  1.0000
  H   H191      1.0  0.23011  0.23417  0.47119  1.0000
  H   H192      1.0  0.14045  0.40566  0.41929  1.0000
  S   S45       1.0  0.11543  0.42553  0.24226  1.0000
  C   C109      1.0  0.24080  0.43249  0.24738  1.0000
  H   H193      1.0  0.11816  0.07995  0.45747  1.0000
  H   H194      1.0  0.12703  0.34044  0.45747  1.0000
  C   C110      1.0  0.32307  0.09297  0.46865  1.0000
  S   S46       1.0  0.28734  0.18318  0.46332  1.0000
  S   S47       1.0  0.31426  0.14377  0.45566  1.0000
  H   H195      1.0  0.28517  0.06562  0.45073  1.0000
  N   N6        1.0  0.30543  0.08594  0.47463  1.0000
  Fe  Fe25      1.0  0.29888  0.19479  0.43396  1.0000
  H   H196      1.0  0.30782  0.19497  0.36698  1.0000
  H   H197      1.0  0.16328  0.38596  0.43611  1.0000
  C   C111      1.0  0.01212  0.47917  0.26249  1.0000
  C   C112      1.0  0.14923  0.35512  0.45365  1.0000
  C   C113      1.0  0.15240  0.22185  0.46585  1.0000
  H   H198      1.0  0.31578  0.20297  0.39302  1.0000
  S   S48       1.0  0.15788  0.30138  0.45862  1.0000
  C   C114      1.0  0.11720  0.27922  0.46290  1.0000
  C   C115      1.0  0.01696  0.20461  0.42952  1.0000
  C   C116      1.0  0.32128  0.22750  0.36230  1.0000
  S   S49       1.0  0.29534  0.17181  0.42305  1.0000
  S   S50       1.0  0.19309  0.32055  0.45441  1.0000
  H   H199      1.0  0.01322  0.19168  0.40937  1.0000
  H   H200      1.0  0.24098  0.37014  0.33543  1.0000
  H   H201      1.0  0.12210  0.39695  0.43559  1.0000
  C   C117      1.0  0.24710  0.20032  0.42260  1.0000
  C   C118      1.0  0.13038  0.10763  0.47325  1.0000
  S   S51       1.0  0.28792  0.22223  0.41729  1.0000
  H   H202      1.0  0.11587  0.38005  0.46320  1.0000
  H   H203      1.0  0.25079  0.18977  0.41399  1.0000
  C   C119      1.0  0.01430  0.14493  0.45732  1.0000
  C   C120      1.0  0.25602  0.13076  0.45701  1.0000
  C   C121      1.0  0.20773  0.20353  0.46541  1.0000
  H   H204      1.0  0.21826  0.38324  0.36828  1.0000
  C   C122      1.0  0.27595  0.23797  0.44774  1.0000
  C   C123      1.0  0.21343  0.35374  0.35809  1.0000
  H   H205      1.0  0.18377  0.35971  0.45350  1.0000
  Fe  Fe26      1.0  0.31633  0.16868  0.46466  1.0000
  C   C124      1.0  0.25201  0.26554  0.44934  1.0000
  H   H206      1.0  0.25110  0.21343  0.45113  1.0000
  H   H207      1.0  0.12279  0.36310  0.44318  1.0000
  N   N7        1.0  0.14582  0.04479  0.45586  1.0000
  C   C125      1.0  0.30243  0.07924  0.45895  1.0000
  H   H208      1.0  0.20108  0.35759  0.36872  1.0000
  C   C126      1.0  0.24237  0.12112  0.46749  1.0000
  H   H209      1.0  0.20439  0.39708  0.33162  1.0000
  H   H210      1.0  0.15618  0.21340  0.47846  1.0000
  H   H211      1.0  0.21199  0.23773  0.45147  1.0000
  H   H212      1.0  0.19254  0.22698  0.43583  1.0000
  H   H213      1.0  0.26687  0.25144  0.47090  1.0000
  H   H214      1.0  0.28606  0.22729  0.45393  1.0000
  H   H215      1.0  0.31404  0.17527  0.38401  1.0000
  H   H216      1.0  0.03203  0.20004  0.42511  1.0000
  Fe  Fe27      1.0  0.17745  0.27416  0.46135  1.0000
  H   H217      1.0  0.99613  0.37999  0.25620  1.0000
  C   C127      1.0  0.23951  0.20810  0.46117  1.0000
  H   H218      1.0  0.18239  0.48172  0.35122  1.0000
  C   C128      1.0  0.21119  0.18465  0.47857  1.0000
  N   N8        1.0  0.14567  0.37295  0.46010  1.0000
  H   H219      1.0  0.16888  0.02338  0.46312  1.0000
  C   C129      1.0  0.13693  0.39338  0.42969  1.0000
  H   H220      1.0  0.07234  0.25047  0.48140  1.0000
  H   H221      1.0  0.21540  0.33042  0.34436  1.0000
  H   H222      1.0  0.27314  0.07707  0.46897  1.0000
  H   H223      1.0  0.29137  0.11393  0.46565  1.0000
  H   H224      1.0  0.08714  0.48158  0.31702  1.0000
  H   H225      1.0  0.14750  0.40149  0.44917  1.0000
  C   C130      1.0  0.17257  0.13709  0.47038  1.0000
  C   C131      1.0  0.13351  0.35112  0.44702  1.0000
  H   H226      1.0  0.25953  0.19982  0.42756  1.0000
  H   H227      1.0  0.14553  0.00585  0.46742  1.0000
  C   C132      1.0  0.21883  0.22847  0.44159  1.0000
  C   C133      1.0  0.99679  0.38271  0.24111  1.0000
  C   C134      1.0  0.20450  0.98711  0.46395  1.0000
  H   H228      1.0  0.17626  0.15056  0.46858  1.0000
  H   H229      1.0  0.20907  0.40622  0.35848  1.0000
  H   H230      1.0  0.23611  0.18169  0.44609  1.0000
  C   C135      1.0  0.24983  0.26581  0.43174  1.0000
  H   H231      1.0  0.19140  0.38772  0.35287  1.0000
  C   C136      1.0  0.28655  0.06886  0.46355  1.0000
  H   H232      1.0  0.01915  0.35904  0.23521  1.0000
  H   H233      1.0  0.32257  0.04983  0.47694  1.0000
  H   H234      1.0  0.99154  0.15757  0.47594  1.0000
  C   C137      1.0  0.15716  0.08515  0.48118  1.0000
  H   H235      1.0  0.31441  0.25519  0.34668  1.0000
  C   C138      1.0  0.29012  0.10234  0.47775  1.0000
  C   C139      1.0  0.13622  0.04685  0.47521  1.0000
  Fe  Fe28      1.0  0.17215  0.30834  0.47727  1.0000
  H   H236      1.0  0.27656  0.09923  0.47895  1.0000
  H   H237      1.0  0.11468  0.24324  0.47069  1.0000
  C   C140      1.0  0.00576  0.15695  0.46936  1.0000
  C   C141      1.0  0.15353  0.46189  0.24695  1.0000
  H   H238      1.0  0.18957  0.46014  0.25065  1.0000
  H   H239      1.0  0.10390  0.48097  0.34268  1.0000
  H   H240      1.0  0.04037  0.47950  0.25860  1.0000
  C   C142      1.0  0.08561  0.25038  0.47143  1.0000
  H   H241      1.0  0.20101  0.21405  0.47397  1.0000
  C   C143      1.0  0.23438  0.21922  0.47652  1.0000
  H   H242      1.0  0.24673  0.21750  0.48226  1.0000
  C   C144      1.0  0.01555  0.16850  0.47265  1.0000
  H   H243      1.0  0.11605  0.11392  0.47690  1.0000
  S   S52       1.0  0.06516  0.45610  0.23436  1.0000
  H   H244      1.0  0.08896  0.28401  0.47696  1.0000
  H   H245      1.0  0.23422  0.12500  0.48015  1.0000
  S   S53       1.0  0.09199  0.15198  0.47668  1.0000
  H   H246      1.0  0.15517  0.38294  0.47940  1.0000
  C   C145      1.0  0.10250  0.27762  0.48082  1.0000
  H   H247      1.0  0.00867  0.17813  0.48155  1.0000
  C   C146      1.0  0.10190  0.24523  0.48124  1.0000
  H   H248      1.0  0.20325  0.47668  0.23922  1.0000
  H   H249      1.0  0.32311  0.10309  0.45531  1.0000
  N   N9        1.0  0.17505  0.48532  0.23590  1.0000
  C   C147      1.0  0.19211  0.47068  0.23781  1.0000
  Fe  Fe29      1.0  0.23234  0.03561  0.49610  1.0000
  S   S54       1.0  0.24771  0.02521  0.51891  1.0000
  H   H250      1.0  0.12722  0.42521  0.70691  1.0000
  Fe  Fe30      1.0  0.22722  0.09826  0.56273  1.0000
  S   S55       1.0  0.23437  0.08473  0.59023  1.0000
  S   S56       1.0  0.24772  0.10034  0.53623  1.0000
  Fe  Fe31      1.0  0.18652  0.10772  0.57822  1.0000
  S   S57       1.0  0.19012  0.09498  0.60701  1.0000
  S   S58       1.0  0.15859  0.12111  0.57202  1.0000
  Fe  Fe32      1.0  0.21410  0.10894  0.59964  1.0000
  S   S59       1.0  0.21686  0.12733  0.61702  1.0000
  Fe  Fe33      1.0  0.20984  0.07196  0.59474  1.0000
  S   S60       1.0  0.20843  0.04262  0.60952  1.0000
  S   S61       1.0  0.20901  0.12343  0.57155  1.0000
  S   S62       1.0  0.20425  0.08380  0.56636  1.0000
  H   H251      1.0  0.16077  0.04315  0.54287  1.0000
  S   S63       1.0  0.11261  0.16594  0.51195  1.0000
  H   H252      1.0  0.16305  0.15550  0.50703  1.0000
  Fe  Fe34      1.0  0.10661  0.21397  0.59653  1.0000
  S   S64       1.0  0.09336  0.23127  0.61770  1.0000
  S   S65       1.0  0.13390  0.19593  0.60020  1.0000
  Fe  Fe35      1.0  0.07692  0.23126  0.57460  1.0000
  S   S66       1.0  0.06151  0.25045  0.59345  1.0000
  S   S67       1.0  0.06614  0.23106  0.55041  1.0000
  Fe  Fe36      1.0  0.08946  0.25441  0.59359  1.0000
  S   S68       1.0  0.09679  0.28212  0.58894  1.0000
  Fe  Fe37      1.0  0.06698  0.22541  0.61543  1.0000
  S   S69       1.0  0.04657  0.21648  0.64078  1.0000
  S   S70       1.0  0.10431  0.23741  0.57247  1.0000
  S   S71       1.0  0.08066  0.20589  0.59650  1.0000
  N   N10       1.0  0.15649  0.05339  0.56788  1.0000
  C   C148      1.0  0.20838  0.01615  0.56988  1.0000
  H   H253      1.0  0.22361  0.21439  0.48807  1.0000
  H   H254      1.0  0.29404  0.21689  0.51418  1.0000
  H   H255      1.0  0.28094  0.28330  0.61694  1.0000
  H   H256      1.0  0.03008  0.13550  0.52305  1.0000
  H   H257      1.0  0.09791  0.38378  0.72547  1.0000
  S   S72       1.0  0.15393  0.32041  0.50125  1.0000
  H   H258      1.0  0.09620  0.25960  0.53173  1.0000
  H   H259      1.0  0.13466  0.04143  0.56583  1.0000
  S   S73       1.0  0.21122  0.39176  0.68423  1.0000
  Fe  Fe38      1.0  0.17454  0.31062  0.61387  1.0000
  S   S74       1.0  0.19813  0.30888  0.58985  1.0000
  S   S75       1.0  0.16148  0.28573  0.62412  1.0000
  Fe  Fe39      1.0  0.18013  0.34687  0.61905  1.0000
  S   S76       1.0  0.20429  0.34760  0.59544  1.0000
  S   S77       1.0  0.16897  0.37145  0.63307  1.0000
  Fe  Fe40      1.0  0.18742  0.33885  0.58049  1.0000
  S   S78       1.0  0.18855  0.35186  0.55037  1.0000
  Fe  Fe41      1.0  0.21271  0.31761  0.60686  1.0000
  S   S79       1.0  0.24212  0.30391  0.60681  1.0000
  S   S80       1.0  0.16241  0.34021  0.60322  1.0000
  S   S81       1.0  0.18998  0.31729  0.63181  1.0000
  Fe  Fe42      1.0  0.29885  0.16493  0.61121  1.0000
  S   S82       1.0  0.27816  0.18712  0.59830  1.0000
  S   S83       1.0  0.29715  0.13543  0.61485  1.0000
  Fe  Fe43      1.0  0.28026  0.20281  0.61825  1.0000
  S   S84       1.0  0.25387  0.21791  0.63324  1.0000
  S   S85       1.0  0.29912  0.17953  0.63303  1.0000
  C   C149      1.0  0.24389  0.28007  0.61304  1.0000
  C   C150      1.0  0.25747  0.26869  0.60270  1.0000
  C   C151      1.0  0.25995  0.24954  0.60838  1.0000
  C   C152      1.0  0.24934  0.24173  0.62477  1.0000
  C   C153      1.0  0.23541  0.25312  0.63488  1.0000
  C   C154      1.0  0.23252  0.27229  0.62889  1.0000
  H   H260      1.0  0.26605  0.27469  0.59025  1.0000
  H   H261      1.0  0.27012  0.24089  0.60008  1.0000
  H   H262      1.0  0.22714  0.24717  0.64759  1.0000
  H   H263      1.0  0.22197  0.28107  0.63690  1.0000
  C   C155      1.0  0.19964  0.38679  0.66941  1.0000
  C   C156      1.0  0.20613  0.37015  0.66319  1.0000
  C   C157      1.0  0.19707  0.36538  0.65182  1.0000
  C   C158      1.0  0.18143  0.37729  0.64649  1.0000
  C   C159      1.0  0.17515  0.39411  0.65238  1.0000
  C   C160      1.0  0.18416  0.39884  0.66383  1.0000
  H   H264      1.0  0.21815  0.36079  0.66735  1.0000
  H   H265      1.0  0.20209  0.35241  0.64735  1.0000
  H   H266      1.0  0.16319  0.40350  0.64815  1.0000
  H   H267      1.0  0.09479  0.14427  0.62425  1.0000
  C   C161      1.0  0.16405  0.32848  0.51502  1.0000
  C   C162      1.0  0.18266  0.32922  0.51037  1.0000
  C   C163      1.0  0.19021  0.33610  0.52147  1.0000
  C   C164      1.0  0.17934  0.34171  0.53754  1.0000
  C   C165      1.0  0.16076  0.34085  0.54222  1.0000
  C   C166      1.0  0.15309  0.33450  0.53085  1.0000
  H   H268      1.0  0.25656  0.98659  0.53825  1.0000
  H   H269      1.0  0.20453  0.33700  0.51763  1.0000
  H   H270      1.0  0.15220  0.34547  0.55440  1.0000
  H   H271      1.0  0.13863  0.33418  0.53442  1.0000
  H   H272      1.0  0.28414  0.11513  0.53465  1.0000
  H   H273      1.0  0.24444  0.16543  0.58192  1.0000
  H   H274      1.0  0.24559  0.99726  0.50044  1.0000
  H   H275      1.0  0.18516  0.15154  0.49367  1.0000
  H   H276      1.0  0.30232  0.28799  0.61666  1.0000
  H   H277      1.0  0.29914  0.12613  0.57412  1.0000
  H   H278      1.0  0.28499  0.09991  0.50791  1.0000
  H   H279      1.0  0.12187  0.40769  0.68998  1.0000
  C   C167      1.0  0.00778  0.20412  0.62066  1.0000
  H   H280      1.0  0.24858  0.48243  0.69815  1.0000
  C   C168      1.0  0.28352  0.28821  0.65021  1.0000
  H   H281      1.0  0.21096  0.01876  0.55501  1.0000
  C   C169      1.0  0.11435  0.28320  0.59929  1.0000
  C   C170      1.0  0.12055  0.29970  0.59558  1.0000
  C   C171      1.0  0.13515  0.30063  0.60296  1.0000
  C   C172      1.0  0.14326  0.28518  0.61451  1.0000
  C   C173      1.0  0.13691  0.26878  0.61842  1.0000
  C   C174      1.0  0.12268  0.26770  0.61064  1.0000
  H   H282      1.0  0.11415  0.31176  0.58683  1.0000
  H   H283      1.0  0.13995  0.31334  0.59990  1.0000
  H   H284      1.0  0.14293  0.25691  0.62758  1.0000
  H   H285      1.0  0.11806  0.25494  0.61359  1.0000
  C   C175      1.0  0.14131  0.04284  0.57652  1.0000
  C   C176      1.0  0.08843  0.15004  0.65952  1.0000
  C   C177      1.0  0.02351  0.21001  0.62143  1.0000
  C   C178      1.0  0.02785  0.20858  0.63852  1.0000
  H   H286      1.0  0.13238  0.03378  0.50404  1.0000
  H   H287      1.0  0.03205  0.21592  0.60890  1.0000
  H   H288      1.0  0.14697  0.40936  0.71396  1.0000
  H   H289      1.0  0.03821  0.15474  0.50781  1.0000
  Fe  Fe44      1.0  0.10589  0.17055  0.48410  1.0000
  C   C179      1.0  0.23977  0.15951  0.57258  1.0000
  H   H290      1.0  0.07260  0.26986  0.53266  1.0000
  C   C180      1.0  0.09934  0.18337  0.52347  1.0000
  C   C181      1.0  0.10481  0.18685  0.53807  1.0000
  C   C182      1.0  0.09444  0.20132  0.54674  1.0000
  C   C183      1.0  0.07872  0.21231  0.54068  1.0000
  C   C184      1.0  0.07322  0.20870  0.52625  1.0000
  C   C185      1.0  0.08336  0.19407  0.51789  1.0000
  H   H291      1.0  0.11719  0.17860  0.54245  1.0000
  H   H292      1.0  0.09890  0.20427  0.55772  1.0000
  H   H293      1.0  0.06110  0.21724  0.52157  1.0000
  H   H294      1.0  0.07848  0.19078  0.50747  1.0000
  C   C186      1.0  0.23924  0.12886  0.61707  1.0000
  C   C187      1.0  0.24184  0.14382  0.62270  1.0000
  C   C188      1.0  0.25959  0.14590  0.62206  1.0000
  C   C189      1.0  0.27481  0.13272  0.61628  1.0000
  C   C190      1.0  0.27220  0.11750  0.61110  1.0000
  C   C191      1.0  0.25445  0.11568  0.61128  1.0000
  H   H295      1.0  0.23008  0.15380  0.62755  1.0000
  H   H296      1.0  0.26147  0.15748  0.62644  1.0000
  H   H297      1.0  0.28394  0.10720  0.60675  1.0000
  H   H298      1.0  0.25254  0.10396  0.60719  1.0000
  C   C192      1.0  0.15133  0.14197  0.57976  1.0000
  C   C193      1.0  0.13526  0.15430  0.57579  1.0000
  C   C194      1.0  0.12978  0.17108  0.58183  1.0000
  C   C195      1.0  0.14043  0.17551  0.59174  1.0000
  C   C196      1.0  0.15634  0.16310  0.59579  1.0000
  C   C197      1.0  0.16171  0.14636  0.58992  1.0000
  H   H299      1.0  0.12716  0.15093  0.56796  1.0000
  H   H300      1.0  0.11742  0.18057  0.57874  1.0000
  H   H301      1.0  0.16450  0.16632  0.60368  1.0000
  H   H302      1.0  0.17386  0.13681  0.59345  1.0000
  H   H303      1.0  0.02003  0.19975  0.66783  1.0000
  C   C198      1.0  0.21132  0.02882  0.57868  1.0000
  H   H304      1.0  0.01273  0.16249  0.57212  1.0000
  H   H305      1.0  0.03375  0.16663  0.57567  1.0000
  H   H306      1.0  0.21604  0.04111  0.57063  1.0000
  H   H307      1.0  0.19078  0.10391  0.49279  1.0000
  H   H308      1.0  0.20157  0.12299  0.48807  1.0000
  H   H309      1.0  0.12494  0.16392  0.62744  1.0000
  Fe  Fe45      1.0  0.16767  0.43677  0.72203  1.0000
  C   C199      1.0  0.25152  0.04492  0.52342  1.0000
  C   C200      1.0  0.25033  0.04627  0.54148  1.0000
  C   C201      1.0  0.25002  0.06323  0.54533  1.0000
  C   C202      1.0  0.25123  0.07869  0.53107  1.0000
  C   C203      1.0  0.25341  0.07708  0.51292  1.0000
  C   C204      1.0  0.25369  0.06014  0.50908  1.0000
  H   H310      1.0  0.24863  0.03451  0.55260  1.0000
  H   H311      1.0  0.24829  0.06440  0.55943  1.0000
  H   H312      1.0  0.25372  0.08912  0.50199  1.0000
  H   H313      1.0  0.29539  0.47326  0.70680  1.0000
  S   S86       1.0  0.30300  0.21591  0.59929  1.0000
  C   C205      1.0  0.30854  0.19258  0.50353  1.0000
  C   C206      1.0  0.16383  0.11695  0.52257  1.0000
  C   C207      1.0  0.30245  0.20329  0.51711  1.0000
  S   S87       1.0  0.13760  0.44887  0.72814  1.0000
  C   C208      1.0  0.16766  0.05251  0.58169  1.0000
  C   C209      1.0  0.14458  0.12751  0.53005  1.0000
  C   C210      1.0  0.20375  0.10449  0.51399  1.0000
  C   C211      1.0  0.18482  0.14610  0.52238  1.0000
  C   C212      1.0  0.30723  0.19652  0.53441  1.0000
  C   C213      1.0  0.99666  0.19663  0.63699  1.0000
  H   H314      1.0  0.17143  0.11308  0.53389  1.0000
  C   C214      1.0  0.00141  0.19486  0.65385  1.0000
  H   H315      1.0  0.15283  0.07560  0.59540  1.0000
  H   H316      1.0  0.19990  0.14499  0.51793  1.0000
  N   N11       1.0  0.10247  0.25853  0.49239  1.0000
  H   H317      1.0  0.13040  0.23202  0.52264  1.0000
  H   H318      1.0  0.22462  0.99288  0.53035  1.0000
  S   S88       1.0  0.16703  0.06670  0.49676  1.0000
  H   H319      1.0  0.07323  0.26732  0.50209  1.0000
  H   H320      1.0  0.15898  0.11718  0.49045  1.0000
  H   H321      1.0  0.14483  0.14127  0.53195  1.0000
  H   H322      1.0  0.24849  0.43795  0.73035  1.0000
  H   H323      1.0  0.21752  0.09782  0.50725  1.0000
  H   H324      1.0  0.19740  0.09326  0.52353  1.0000
  H   H325      1.0  0.14530  0.40160  0.67982  1.0000
  C   C215      1.0  0.19892  0.99693  0.59939  1.0000
  H   H326      1.0  0.18188  0.13566  0.53499  1.0000
  H   H327      1.0  0.02253  0.20519  0.49698  1.0000
  C   C216      1.0  0.01891  0.19733  0.51124  1.0000
  C   C217      1.0  0.16876  0.37625  0.71106  1.0000
  H   H328      1.0  0.21891  0.98666  0.50247  1.0000
  H   H329      1.0  0.17455  0.03814  0.58645  1.0000
  H   H330      1.0  0.29273  0.23334  0.63990  1.0000
  H   H331      1.0  0.10141  0.23129  0.49004  1.0000
  S   S89       1.0  0.18264  0.40763  0.72942  1.0000
  N   N12       1.0  0.15279  0.27137  0.55115  1.0000
  C   C218      1.0  0.16303  0.27424  0.56425  1.0000
  C   C219      1.0  0.14463  0.25464  0.56047  1.0000
  C   C220      1.0  0.13772  0.28810  0.54806  1.0000
  C   C221      1.0  0.16623  0.26903  0.53336  1.0000
  C   C222      1.0  0.16932  0.29272  0.55949  1.0000
  C   C223      1.0  0.15851  0.23645  0.56443  1.0000
  C   C224      1.0  0.12192  0.28630  0.54011  1.0000
  C   C225      1.0  0.15981  0.26250  0.51904  1.0000
  H   H332      1.0  0.15449  0.27319  0.57843  1.0000
  H   H333      1.0  0.17560  0.26335  0.56535  1.0000
  H   H334      1.0  0.13580  0.25217  0.55245  1.0000
  H   H335      1.0  0.13522  0.25684  0.57378  1.0000
  H   H336      1.0  0.13101  0.29270  0.56120  1.0000
  H   H337      1.0  0.14349  0.29983  0.53879  1.0000
  H   H338      1.0  0.17057  0.28223  0.52611  1.0000
  H   H339      1.0  0.17934  0.25956  0.53592  1.0000
  H   H340      1.0  0.15747  0.30425  0.56156  1.0000
  H   H341      1.0  0.17811  0.29237  0.56906  1.0000
  H   H342      1.0  0.17752  0.29557  0.54533  1.0000
  H   H343      1.0  0.15089  0.22509  0.57040  1.0000
  H   H344      1.0  0.16809  0.23308  0.55171  1.0000
  H   H345      1.0  0.16627  0.23652  0.57472  1.0000
  H   H346      1.0  0.11269  0.30001  0.53775  1.0000
  H   H347      1.0  0.11335  0.27700  0.54999  1.0000
  H   H348      1.0  0.12664  0.28208  0.52673  1.0000
  H   H349      1.0  0.15482  0.27441  0.50857  1.0000
  H   H350      1.0  0.14920  0.25415  0.52475  1.0000
  H   H351      1.0  0.17157  0.25339  0.51182  1.0000
  N   N13       1.0  0.19814  0.22294  0.61723  1.0000
  C   C226      1.0  0.21695  0.21491  0.60722  1.0000
  C   C227      1.0  0.19231  0.24196  0.60625  1.0000
  C   C228      1.0  0.18525  0.21078  0.61783  1.0000
  C   C229      1.0  0.19971  0.22318  0.63635  1.0000
  C   C230      1.0  0.22458  0.19442  0.61459  1.0000
  C   C231      1.0  0.20385  0.25605  0.60524  1.0000
  C   C232      1.0  0.16450  0.21909  0.62116  1.0000
  C   C233      1.0  0.18289  0.23332  0.64839  1.0000
  H   H352      1.0  0.21708  0.21635  0.59237  1.0000
  H   H353      1.0  0.22742  0.22241  0.60760  1.0000
  H   H354      1.0  0.17796  0.24834  0.61162  1.0000
  H   H355      1.0  0.19247  0.24126  0.59190  1.0000
  H   H356      1.0  0.18837  0.20602  0.60459  1.0000
  H   H357      1.0  0.18722  0.19807  0.62865  1.0000
  H   H358      1.0  0.20285  0.20892  0.64441  1.0000
  H   H359      1.0  0.21177  0.22883  0.63600  1.0000
  H   H360      1.0  0.23821  0.19021  0.60591  1.0000
  H   H361      1.0  0.22677  0.19193  0.62882  1.0000
  H   H362      1.0  0.21591  0.18527  0.61377  1.0000
  H   H363      1.0  0.19812  0.26936  0.59689  1.0000
  H   H364      1.0  0.20299  0.25864  0.61902  1.0000
  H   H365      1.0  0.21839  0.25212  0.59844  1.0000
  H   H366      1.0  0.15949  0.22459  0.63388  1.0000
  H   H367      1.0  0.15690  0.20810  0.62267  1.0000
  H   H368      1.0  0.16068  0.22982  0.60926  1.0000
  H   H369      1.0  0.17407  0.22366  0.65714  1.0000
  H   H370      1.0  0.17446  0.24510  0.64065  1.0000
  H   H371      1.0  0.18769  0.23940  0.65754  1.0000
  N   N14       1.0  0.17962  0.40311  0.57486  1.0000
  C   C234      1.0  0.19116  0.40333  0.58805  1.0000
  C   C235      1.0  0.19197  0.39286  0.56043  1.0000
  C   C236      1.0  0.16497  0.39249  0.58576  1.0000
  C   C237      1.0  0.17132  0.42265  0.56691  1.0000
  C   C238      1.0  0.18159  0.41431  0.60340  1.0000
  C   C239      1.0  0.20849  0.40124  0.54868  1.0000
  C   C240      1.0  0.15155  0.38989  0.57526  1.0000
  C   C241      1.0  0.16502  0.42612  0.54848  1.0000
  H   H372      1.0  0.19680  0.38904  0.59483  1.0000
  H   H373      1.0  0.20325  0.40952  0.58069  1.0000
  H   H374      1.0  0.18445  0.39117  0.55068  1.0000
  H   H375      1.0  0.19758  0.37853  0.56691  1.0000
  H   H376      1.0  0.17137  0.37851  0.59248  1.0000
  H   H377      1.0  0.15614  0.39910  0.59714  1.0000
  H   H378      1.0  0.15936  0.42819  0.57709  1.0000
  H   H379      1.0  0.18144  0.43158  0.56439  1.0000
  H   H380      1.0  0.17723  0.42917  0.59778  1.0000
  H   H381      1.0  0.16976  0.40893  0.61272  1.0000
  H   H382      1.0  0.21972  0.39805  0.55635  1.0000
  H   H383      1.0  0.21420  0.39480  0.53645  1.0000
  H   H384      1.0  0.20475  0.41626  0.54367  1.0000
  H   H385      1.0  0.14254  0.40310  0.57050  1.0000
  H   H386      1.0  0.14236  0.38100  0.58489  1.0000
  H   H387      1.0  0.15851  0.38270  0.56377  1.0000
  H   H388      1.0  0.15192  0.43643  0.54894  1.0000
  H   H389      1.0  0.16251  0.41401  0.54502  1.0000
  H   H390      1.0  0.17499  0.43242  0.53692  1.0000
  H   H391      1.0  0.12647  0.06923  0.54916  1.0000
  H   H392      1.0  0.02410  0.14771  0.54822  1.0000
  C   C242      1.0  0.31816  0.17899  0.53808  1.0000
  Fe  Fe46      1.0  0.30222  0.19826  0.58033  1.0000
  H   H393      1.0  0.14708  0.07337  0.53256  1.0000
  H   H394      1.0  0.19195  0.04736  0.52926  1.0000
  H   H395      1.0  0.25986  0.31059  0.65411  1.0000
  H   H396      1.0  0.99121  0.23665  0.63177  1.0000
  H   H397      1.0  0.01267  0.18266  0.57948  1.0000
  C   C243      1.0  0.31979  0.17520  0.50707  1.0000
  H   H398      1.0  0.14899  0.42394  0.69194  1.0000
  H   H399      1.0  0.26167  0.16513  0.51461  1.0000
  H   H400      1.0  0.30526  0.26803  0.59561  1.0000
  H   H401      1.0  0.12830  0.22172  0.50473  1.0000
  H   H402      1.0  0.15798  0.01443  0.57900  1.0000
  H   H403      1.0  0.14525  0.05409  0.60635  1.0000
  C   C244      1.0  0.28371  0.23801  0.65223  1.0000
  Fe  Fe47      1.0  0.19612  0.05461  0.48486  1.0000
  N   N15       1.0  0.17418  0.12685  0.50498  1.0000
  H   H404      1.0  0.32119  0.19532  0.72455  1.0000
  C   C245      1.0  0.28833  0.11003  0.49501  1.0000
  C   C246      1.0  0.12184  0.23273  0.51273  1.0000
  H   H405      1.0  0.22109  0.18380  0.48714  1.0000
  C   C247      1.0  0.08627  0.26841  0.52327  1.0000
  H   H406      1.0  0.17593  0.03062  0.55753  1.0000
  H   H407      1.0  0.08252  0.24565  0.51389  1.0000
  C   C248      1.0  0.06606  0.15202  0.52615  1.0000
  C   C249      1.0  0.13779  0.07680  0.54536  1.0000
  C   C250      1.0  0.25247  0.16094  0.55333  1.0000
  C   C251      1.0  0.28338  0.11360  0.54955  1.0000
  H   H408      1.0  0.24447  0.15852  0.54428  1.0000
  H   H409      1.0  0.22581  0.16756  0.57126  1.0000
  H   H410      1.0  0.13151  0.09164  0.54213  1.0000
  C   C252      1.0  0.11785  0.15457  0.63904  1.0000
  H   H411      1.0  0.30481  0.19791  0.49022  1.0000
  H   H412      1.0  0.26681  0.26274  0.64003  1.0000
  H   H413      1.0  0.13017  0.05042  0.58592  1.0000
  N   N16       1.0  0.03427  0.17279  0.53577  1.0000
  C   C253      1.0  0.05273  0.16289  0.54019  1.0000
  C   C254      1.0  0.02466  0.18389  0.55045  1.0000
  C   C255      1.0  0.03673  0.18641  0.51772  1.0000
  C   C256      1.0  0.02288  0.15930  0.53617  1.0000
  C   C257      1.0  0.02093  0.17297  0.57045  1.0000
  H   H414      1.0  0.10490  0.40564  0.72086  1.0000
  C   C258      1.0  0.02683  0.15073  0.51898  1.0000
  H   H415      1.0  0.06004  0.17276  0.54225  1.0000
  H   H416      1.0  0.05110  0.15269  0.55337  1.0000
  H   H417      1.0  0.01107  0.19186  0.54789  1.0000
  H   H418      1.0  0.03254  0.19434  0.55019  1.0000
  H   H419      1.0  0.04430  0.19663  0.51846  1.0000
  H   H420      1.0  0.04541  0.17997  0.50627  1.0000
  H   H421      1.0  0.30930  0.13976  0.55258  1.0000
  C   C259      1.0  0.11981  0.25190  0.49989  1.0000
  H   H422      1.0  0.16232  0.37158  0.68765  1.0000
  H   H423      1.0  0.12316  0.36561  0.67158  1.0000
  H   H424      1.0  0.12823  0.36667  0.73175  1.0000
  C   C260      1.0  0.19255  0.11482  0.49904  1.0000
  C   C261      1.0  0.08565  0.25949  0.50761  1.0000
  C   C262      1.0  0.28517  0.48050  0.71715  1.0000
  H   H425      1.0  0.31763  0.25520  0.61311  1.0000
  C   C263      1.0  0.17635  0.14537  0.50645  1.0000
  C   C264      1.0  0.07046  0.16467  0.62563  1.0000
  H   H426      1.0  0.09850  0.16657  0.61255  1.0000
  N   N17       1.0  0.26612  0.47842  0.71751  1.0000
  H   H427      1.0  0.12297  0.15483  0.65126  1.0000
  H   H428      1.0  0.13500  0.01637  0.59184  1.0000
  C   C265      1.0  0.28076  0.15197  0.56490  1.0000
  H   H429      1.0  0.19122  0.32470  0.49814  1.0000
  C   C266      1.0  0.16885  0.04481  0.55226  1.0000
  H   H430      1.0  0.19894  0.00721  0.62305  1.0000
  H   H431      1.0  0.17874  0.15944  0.52676  1.0000
  H   H432      1.0  0.19152  0.41308  0.61214  1.0000
  H   H433      1.0  0.25407  0.29140  0.64946  1.0000
  H   H434      1.0  0.08773  0.13648  0.65730  1.0000
  H   H435      1.0  0.27172  0.23129  0.65590  1.0000
  H   H436      1.0  0.12199  0.26199  0.50683  1.0000
  H   H437      1.0  0.13586  0.38333  0.66669  1.0000
  H   H438      1.0  0.07914  0.14608  0.53105  1.0000
  H   H439      1.0  0.12520  0.13454  0.62096  1.0000
  H   H440      1.0  0.14007  0.13073  0.63641  1.0000
  C   C267      1.0  0.01676  0.20094  0.65462  1.0000
  H   H441      1.0  0.06087  0.14027  0.52501  1.0000
  H   H442      1.0  0.27231  0.47502  0.68930  1.0000
  H   H443      1.0  0.19004  0.00311  0.48446  1.0000
  C   C268      1.0  0.20177  0.00965  0.60818  1.0000
  C   C269      1.0  0.14701  0.02311  0.58740  1.0000
  H   H444      1.0  0.20609  0.11351  0.52191  1.0000
  H   H445      1.0  0.19412  0.05550  0.54808  1.0000
  H   H446      1.0  0.12399  0.35920  0.70504  1.0000
  H   H447      1.0  0.08944  0.28232  0.51812  1.0000
  C   C270      1.0  0.15548  0.37090  0.70236  1.0000
  H   H448      1.0  0.25533  0.12738  0.55399  1.0000
  S   S90       1.0  0.18442  0.44250  0.69344  1.0000
  H   H449      1.0  0.27285  0.14988  0.57928  1.0000
  C   C271      1.0  0.27677  0.25907  0.64924  1.0000
  C   C272      1.0  0.26486  0.29964  0.64592  1.0000
  H   H450      1.0  0.32067  0.28385  0.65053  1.0000
  Fe  Fe48      1.0  0.20242  0.45171  0.70681  1.0000
  H   H451      1.0  0.30561  0.25709  0.66406  1.0000
  H   H452      1.0  0.06976  0.16077  0.51247  1.0000
  C   C273      1.0  0.13326  0.37039  0.67636  1.0000
  H   H453      1.0  0.23833  0.14517  0.57905  1.0000
  C   C274      1.0  0.18407  0.05501  0.54024  1.0000
  C   C275      1.0  0.26247  0.48411  0.69824  1.0000
  H   H454      1.0  0.01109  0.20756  0.51976  1.0000
  C   C276      1.0  0.20753  0.02586  0.59789  1.0000
  C   C277      1.0  0.30849  0.26136  0.64877  1.0000
  C   C278      1.0  0.12540  0.37303  0.69638  1.0000
  H   H455      1.0  0.25414  0.17550  0.54835  1.0000
  H   H456      1.0  0.16225  0.10359  0.52061  1.0000
  C   C279      1.0  0.13569  0.40155  0.69331  1.0000
  C   C280      1.0  0.26572  0.45817  0.72406  1.0000
  H   H457      1.0  0.30697  0.04192  0.49727  1.0000
  C   C281      1.0  0.26805  0.12843  0.55771  1.0000
  H   H458      1.0  0.26496  0.14038  0.52089  1.0000
  H   H459      1.0  0.15293  0.02301  0.49103  1.0000
  H   H460      1.0  0.30054  0.11515  0.49494  1.0000
  H   H461      1.0  0.11801  0.12473  0.64523  1.0000
  C   C282      1.0  0.20178  0.00037  0.58021  1.0000
  H   H462      1.0  0.11563  0.18525  0.65319  1.0000
  H   H463      1.0  0.26571  0.12386  0.57293  1.0000
  H   H464      1.0  0.13481  0.12876  0.52118  1.0000
  H   H465      1.0  0.14598  0.35962  0.67527  1.0000
  H   H466      1.0  0.28218  0.15129  0.50438  1.0000
  H   H467      1.0  0.29525  0.25140  0.61320  1.0000
  H   H468      1.0  0.06973  0.16437  0.68075  1.0000
  H   H469      1.0  0.06820  0.16376  0.61219  1.0000
  H   H470      1.0  0.28200  0.16669  0.56112  1.0000
  H   H471      1.0  0.15533  0.35609  0.70838  1.0000
  H   H472      1.0  0.26621  0.30671  0.63125  1.0000
  H   H473      1.0  0.15879  0.08183  0.55660  1.0000
  H   H474      1.0  0.10866  0.22972  0.52123  1.0000
  N   N18       1.0  0.29096  0.27111  0.64220  1.0000
  H   H475      1.0  0.06457  0.17903  0.62724  1.0000
  H   H476      1.0  0.29312  0.29789  0.64509  1.0000
  C   C283      1.0  0.10052  0.18641  0.65690  1.0000
  H   H477      1.0  0.09438  0.20101  0.65774  1.0000
  H   H478      1.0  0.06089  0.16964  0.65999  1.0000
  H   H479      1.0  0.31001  0.07628  0.50240  1.0000
  C   C284      1.0  0.06899  0.15883  0.66899  1.0000
  H   H480      1.0  0.07877  0.18780  0.64362  1.0000
  H   H481      1.0  0.09667  0.17788  0.67070  1.0000
  H   H482      1.0  0.06081  0.14795  0.67510  1.0000
  N   N19       1.0  0.27096  0.14799  0.55209  1.0000
  H   H483      1.0  0.00996  0.18826  0.51091  1.0000
  H   H484      1.0  0.25491  0.05898  0.49508  1.0000
  H   H485      1.0  0.27658  0.12193  0.49534  1.0000
  H   H486      1.0  0.27779  0.44970  0.71640  1.0000
  H   H487      1.0  0.17919  0.41180  0.66831  1.0000
  H   H488      1.0  0.17890  0.06010  0.57536  1.0000
  C   C285      1.0  0.09351  0.18147  0.64204  1.0000
  H   H489      1.0  0.18213  0.36640  0.70913  1.0000
  H   H490      1.0  0.26832  0.26142  0.66289  1.0000
  H   H491      1.0  0.29514  0.14310  0.53044  1.0000
  S   S91       1.0  0.22056  0.42372  0.71214  1.0000
  H   H492      1.0  0.09988  0.18914  0.62853  1.0000
  H   H493      1.0  0.09711  0.14682  0.66999  1.0000
  H   H494      1.0  0.06270  0.15517  0.63632  1.0000
  Fe  Fe49      1.0  0.20070  0.41396  0.70142  1.0000
  C   C286      1.0  0.27189  0.15219  0.51741  1.0000
  C   C287      1.0  0.13843  0.02959  0.49059  1.0000
  H   H495      1.0  0.28006  0.09988  0.55626  1.0000
  H   H496      1.0  0.00808  0.16587  0.53850  1.0000
  H   H497      1.0  0.12410  0.34934  0.48611  1.0000
  C   C288      1.0  0.28156  0.15249  0.53262  1.0000
  H   H498      1.0  0.28475  0.16644  0.52968  1.0000
  H   H499      1.0  0.15143  0.02301  0.60011  1.0000
  C   C289      1.0  0.29415  0.27700  0.62153  1.0000
  N   N20       1.0  0.09728  0.16126  0.64184  1.0000
  C   C290      1.0  0.30000  0.14022  0.56611  1.0000
  H   H500      1.0  0.13904  0.11980  0.54382  1.0000
  N   N21       1.0  0.13614  0.38210  0.70418  1.0000
  C   C291      1.0  0.09117  0.15891  0.62555  1.0000
  H   H501      1.0  0.30648  0.14630  0.57387  1.0000
  C   C292      1.0  0.15718  0.06041  0.59888  1.0000
  C   C293      1.0  0.30369  0.26181  0.61053  1.0000
  C   C294      1.0  0.13995  0.41540  0.70235  1.0000
  C   C295      1.0  0.12541  0.13496  0.63526  1.0000
  H   H502      1.0  0.23571  0.46108  0.72820  1.0000
  H   H503      1.0  0.15002  0.14020  0.49316  1.0000
  C   C296      1.0  0.14816  0.07322  0.56110  1.0000
  H   H504      1.0  0.17181  0.38991  0.70388  1.0000
  H   H505      1.0  0.28200  0.28462  0.66547  1.0000
  C   C297      1.0  0.16309  0.13006  0.49037  1.0000
  H   H506      1.0  0.19806  0.18253  0.48816  1.0000
  H   H507      1.0  0.00423  0.20548  0.60756  1.0000
  H   H508      1.0  0.16663  0.05744  0.60855  1.0000
  H   H509      1.0  0.13809  0.07906  0.57244  1.0000
  C   C298      1.0  0.10714  0.39116  0.72840  1.0000
  H   H510      1.0  0.17851  0.06905  0.53322  1.0000
  H   H511      1.0  0.13078  0.08904  0.49952  1.0000
  C   C299      1.0  0.13870  0.09354  0.48601  1.0000
  S   S92       1.0  0.19509  0.98655  0.56889  1.0000
  H   H512      1.0  0.32149  0.21006  0.64627  1.0000
  S   S93       1.0  0.20775  0.02526  0.49613  1.0000
  C   C300      1.0  0.12741  0.38125  0.72427  1.0000
  H   H513      1.0  0.29705  0.11335  0.55179  1.0000
  S   S94       1.0  0.30011  0.21066  0.55077  1.0000
  C   C301      1.0  0.12152  0.36333  0.48889  1.0000
  C   C302      1.0  0.30505  0.07167  0.49225  1.0000
  H   H514      1.0  0.29064  0.07038  0.49883  1.0000
  C   C303      1.0  0.24858  0.45225  0.72248  1.0000
  H   H515      1.0  0.12900  0.36298  0.49961  1.0000
  H   H516      1.0  0.31447  0.24848  0.64354  1.0000
  H   H517      1.0  0.32195  0.17367  0.55135  1.0000
  H   H518      1.0  0.16410  0.37550  0.72606  1.0000
  H   H519      1.0  0.15810  0.35869  0.48366  1.0000
  H   H520      1.0  0.11117  0.38112  0.69649  1.0000
  H   H521      1.0  0.29088  0.23282  0.66395  1.0000
  S   S95       1.0  0.21292  0.47819  0.69524  1.0000
  C   C304      1.0  0.31611  0.05196  0.49102  1.0000
  H   H522      1.0  0.10666  0.36714  0.49484  1.0000
  H   H523      1.0  0.24869  0.45213  0.70802  1.0000
  H   H524      1.0  0.01435  0.15427  0.51301  1.0000
  H   H525      1.0  0.10459  0.28685  0.48882  1.0000
  H   H526      1.0  0.13062  0.01961  0.48986  1.0000
  S   S96       1.0  0.21920  0.06526  0.48818  1.0000
  Fe  Fe50      1.0  0.32182  0.19145  0.61242  1.0000
  H   H527      1.0  0.13198  0.25086  0.48850  1.0000
  H   H528      1.0  0.31511  0.24878  0.54131  1.0000
  H   H529      1.0  0.99295  0.18901  0.66648  1.0000
  H   H530      1.0  0.00502  0.25054  0.64867  1.0000
  H   H531      1.0  0.13481  0.38705  0.73129  1.0000
  H   H532      1.0  0.16464  0.98615  0.49580  1.0000
  H   H533      1.0  0.32280  0.23349  0.56075  1.0000
  S   S97       1.0  0.32305  0.17482  0.59160  1.0000
  Fe  Fe51      1.0  0.04677  0.43159  0.84268  1.0000
  S   S98       1.0  0.05128  0.44153  0.81207  1.0000
  S   S99       1.0  0.01768  0.43127  0.85850  1.0000
  Fe  Fe52      1.0  0.08729  0.42740  0.84357  1.0000
  S   S100      1.0  0.09433  0.43754  0.81311  1.0000
  S   S101      1.0  0.11245  0.41660  0.85629  1.0000
  Fe  Fe53      1.0  0.06846  0.45860  0.81692  1.0000
  Fe  Fe54      1.0  0.20110  0.41965  0.73940  1.0000
  Fe  Fe55      1.0  0.07663  0.41927  0.81164  1.0000
  S   S102      1.0  0.08956  0.40082  0.79149  1.0000
  S   S103      1.0  0.06260  0.45020  0.84766  1.0000
  S   S104      1.0  0.07086  0.40773  0.84188  1.0000
  H   H534      1.0  0.23128  0.48145  0.95098  1.0000
  S   S105      1.0  0.18233  0.44154  0.90407  1.0000
  S   S106      1.0  0.20844  0.39414  0.92855  1.0000
  Fe  Fe56      1.0  0.27683  0.43955  0.80390  1.0000
  S   S107      1.0  0.25865  0.45455  0.78351  1.0000
  Fe  Fe57      1.0  0.28196  0.41124  0.83866  1.0000
  S   S108      1.0  0.27425  0.38679  0.85994  1.0000
  H   H535      1.0  0.10287  0.39140  0.74332  1.0000
  C   C305      1.0  0.19025  0.47660  0.85949  1.0000
  S   S109      1.0  0.26602  0.44023  0.83385  1.0000
  H   H536      1.0  0.19027  0.39495  0.82481  1.0000
  H   H537      1.0  0.24117  0.44758  0.87226  1.0000
  C   C306      1.0  0.24793  0.45318  0.88017  1.0000
  C   C307      1.0  0.00878  0.36976  0.85903  1.0000
  C   C308      1.0  0.12390  0.44549  0.89616  1.0000
  C   C309      1.0  0.13297  0.42173  0.87812  1.0000
  H   H538      1.0  0.16573  0.46745  0.87669  1.0000
  C   C310      1.0  0.16967  0.48051  0.86841  1.0000
  S   S110      1.0  0.21020  0.40770  0.76650  1.0000
  H   H539      1.0  0.14262  0.40978  0.87410  1.0000
  H   H540      1.0  0.17039  0.37465  0.81348  1.0000
  C   C311      1.0  0.24429  0.44161  0.78009  1.0000
  C   C312      1.0  0.24589  0.42284  0.78788  1.0000
  C   C313      1.0  0.23510  0.41256  0.78400  1.0000
  C   C314      1.0  0.22288  0.42093  0.77210  1.0000
  C   C315      1.0  0.22086  0.43980  0.76481  1.0000
  C   C316      1.0  0.23137  0.45013  0.76896  1.0000
  H   H541      1.0  0.25558  0.41614  0.79672  1.0000
  H   H542      1.0  0.23659  0.39801  0.78987  1.0000
  H   H543      1.0  0.15954  0.44024  0.77108  1.0000
  H   H544      1.0  0.22948  0.46473  0.76341  1.0000
  C   C317      1.0  0.22595  0.39240  0.90874  1.0000
  C   C318      1.0  0.22639  0.40635  0.89286  1.0000
  C   C319      1.0  0.24119  0.40494  0.87773  1.0000
  C   C320      1.0  0.25535  0.38933  0.87832  1.0000
  C   C321      1.0  0.25463  0.37523  0.89401  1.0000
  C   C322      1.0  0.24007  0.37680  0.90917  1.0000
  H   H545      1.0  0.21545  0.41830  0.89223  1.0000
  H   H546      1.0  0.24150  0.41572  0.86552  1.0000
  H   H547      1.0  0.26546  0.36306  0.89449  1.0000
  H   H548      1.0  0.23979  0.36587  0.92127  1.0000
  C   C323      1.0  0.10266  0.41374  0.77326  1.0000
  C   C324      1.0  0.12017  0.40557  0.76491  1.0000
  C   C325      1.0  0.13114  0.41634  0.75119  1.0000
  H   H549      1.0  0.99280  0.47655  0.84506  1.0000
  C   C326      1.0  0.10672  0.44315  0.75355  1.0000
  C   C327      1.0  0.09600  0.43255  0.76768  1.0000
  H   H550      1.0  0.12537  0.39106  0.76941  1.0000
  C   C328      1.0  0.15826  0.48095  0.84052  1.0000
  H   H551      1.0  0.19661  0.43466  0.98244  1.0000
  H   H552      1.0  0.08248  0.43890  0.77418  1.0000
  C   C329      1.0  0.11676  0.42823  0.87124  1.0000
  H   H553      1.0  0.29277  0.42770  0.87885  1.0000
  C   C330      1.0  0.10788  0.45222  0.88899  1.0000
  C   C331      1.0  0.10433  0.44365  0.87650  1.0000
  H   H554      1.0  0.09808  0.46399  0.89323  1.0000
  H   H555      1.0  0.09184  0.44878  0.87121  1.0000
  C   C332      1.0  0.00294  0.42866  0.84559  1.0000
  H   H556      1.0  0.28637  0.44237  0.91122  1.0000
  C   C333      1.0  0.24514  0.44258  0.90040  1.0000
  N   N22       1.0  0.26182  0.43503  0.90898  1.0000
  H   H557      1.0  0.24096  0.46784  0.87942  1.0000
  C   C334      1.0  0.01011  0.42185  0.82943  1.0000
  H   H558      1.0  0.15799  0.39015  0.83794  1.0000
  C   C335      1.0  0.15583  0.46078  0.84637  1.0000
  H   H559      1.0  0.01482  0.37276  0.84409  1.0000
  H   H560      1.0  0.02478  0.41797  0.82488  1.0000
  C   C336      1.0  0.27420  0.44860  0.90475  1.0000
  H   H561      1.0  0.23893  0.41437  0.95222  1.0000
  H   H562      1.0  0.09741  0.47112  0.81903  1.0000
  C   C337      1.0  0.17054  0.38742  0.80263  1.0000
  C   C338      1.0  0.16148  0.42155  0.79716  1.0000
  C   C339      1.0  0.15374  0.42824  0.77943  1.0000
  H   H563      1.0  0.17163  0.48089  0.83079  1.0000
  H   H564      1.0  0.27298  0.42260  0.87359  1.0000
  C   C340      1.0  0.25546  0.43060  0.92966  1.0000
  H   H565      1.0  0.99504  0.36121  0.83551  1.0000
  H   H566      1.0  0.28009  0.45224  0.88989  1.0000
  S   S111      1.0  0.29081  0.40972  0.80873  1.0000
  H   H567      1.0  0.28308  0.41046  0.91175  1.0000
  C   C341      1.0  0.28269  0.41863  0.88303  1.0000
  S   S112      1.0  0.29222  0.46949  0.84827  1.0000
  H   H568      1.0  0.18832  0.39568  0.96871  1.0000
  H   H569      1.0  0.12854  0.41462  0.81747  1.0000
  H   H570      1.0  0.22117  0.46846  0.92996  1.0000
  H   H571      1.0  0.15913  0.45480  0.83390  1.0000
  H   H572      1.0  0.27518  0.47626  0.90591  1.0000
  H   H573      1.0  0.24605  0.44269  0.93472  1.0000
  H   H574      1.0  0.16515  0.45211  0.85552  1.0000
  H   H575      1.0  0.01069  0.35471  0.86434  1.0000
  H   H576      1.0  0.26224  0.45267  0.87275  1.0000
  C   C342      1.0  0.15180  0.47885  0.78054  1.0000
  C   C343      1.0  0.99832  0.41959  0.81932  1.0000
  H   H577      1.0  0.12253  0.48362  0.82249  1.0000
  H   H578      1.0  0.23386  0.41598  0.93039  1.0000
  C   C344      1.0  0.27257  0.41734  0.90317  1.0000
  H   H579      1.0  0.23480  0.45208  0.90841  1.0000
  H   H580      1.0  0.18493  0.38928  0.79987  1.0000
  H   H581      1.0  0.26345  0.40747  0.90544  1.0000
  C   C345      1.0  0.13659  0.43037  0.89052  1.0000
  C   C346      1.0  0.21758  0.48303  0.92927  1.0000
  Fe  Fe58      1.0  0.18882  0.46195  0.91635  1.0000
  H   H582      1.0  0.02583  0.47636  0.84321  1.0000
  H   H583      1.0  0.29062  0.40470  0.88126  1.0000
  H   H584      1.0  0.11701  0.38615  0.82247  1.0000
  H   H585      1.0  0.25454  0.40104  0.93669  1.0000
  H   H586      1.0  0.14898  0.42514  0.89595  1.0000
  C   C347      1.0  0.13152  0.38521  0.82305  1.0000
  H   H587      1.0  0.17656  0.42084  0.79288  1.0000
  H   H588      1.0  0.21121  0.44643  0.75596  1.0000
  S   S113      1.0  0.12774  0.45649  0.91191  1.0000
  Fe  Fe59      1.0  0.15435  0.44720  0.92182  1.0000
  C   C348      1.0  0.24515  0.41456  0.93744  1.0000
  H   H589      1.0  0.19738  0.46437  0.86815  1.0000
  H   H590      1.0  0.15416  0.38689  0.78259  1.0000
  C   C349      1.0  0.13758  0.40299  0.81134  1.0000
  N   N23       1.0  0.15740  0.40367  0.80943  1.0000
  Fe  Fe60      1.0  0.29247  0.44831  0.83241  1.0000
  H   H591      1.0  0.17903  0.40549  0.84400  1.0000
  H   H592      1.0  0.14117  0.47091  0.78861  1.0000
  S   S114      1.0  0.20211  0.48543  0.90025  1.0000
  H   H593      1.0  0.13179  0.38347  0.83776  1.0000
  C   C350      1.0  0.17894  0.40603  0.82942  1.0000
  H   H594      1.0  0.13860  0.43299  0.78240  1.0000
  C   C351      1.0  0.12436  0.43511  0.74543  1.0000
  C   C352      1.0  0.26522  0.46699  0.91095  1.0000
  H   H595      1.0  0.12206  0.47335  0.75963  1.0000
  H   H596      1.0  0.19315  0.47296  0.84588  1.0000
  S   S115      1.0  0.30756  0.41930  0.83991  1.0000
  H   H597      1.0  0.17740  0.38982  0.77265  1.0000
  H   H598      1.0  0.01674  0.37525  0.86586  1.0000
  C   C353      1.0  0.00239  0.47947  0.83168  1.0000
  S   S116      1.0  0.30224  0.44982  0.80210  1.0000
  H   H599      1.0  0.00403  0.41417  0.80690  1.0000
  S   S117      1.0  0.19852  0.44182  0.94035  1.0000
  Fe  Fe61      1.0  0.18973  0.42173  0.92935  1.0000
  H   H600      1.0  0.23806  0.43144  0.90133  1.0000
  H   H601      1.0  0.15767  0.41790  0.77074  1.0000
  C   C354      1.0  0.19488  0.38410  0.97844  1.0000
  H   H602      1.0  0.13375  0.40500  0.79790  1.0000
  H   H603      1.0  0.13972  0.37287  0.81772  1.0000
  H   H604      1.0  0.10138  0.45765  0.74909  1.0000
  S   S118      1.0  0.16036  0.46937  0.93193  1.0000
  H   H605      1.0  0.17241  0.36802  0.78561  1.0000
  Fe  Fe62      1.0  0.31530  0.41990  0.80973  1.0000
  C   C355      1.0  0.29158  0.47315  0.73565  1.0000
  H   H606      1.0  0.18178  0.41962  0.82154  1.0000
  C   C356      1.0  0.16003  0.40336  0.82837  1.0000
  H   H607      1.0  0.26729  0.42722  0.93665  1.0000
  H   H608      1.0  0.15596  0.43301  0.80479  1.0000
  C   C357      1.0  0.16835  0.38310  0.78484  1.0000
  H   H609      1.0  0.14142  0.45973  0.85294  1.0000
  S   S119      1.0  0.16099  0.42561  0.94647  1.0000
  H   H610      1.0  0.14955  0.41426  0.83460  1.0000
  H   H611      1.0  0.31644  0.34840  0.79415  1.0000
  Fe  Fe63      1.0  0.16931  0.44760  0.95522  1.0000
  H   H612      1.0  0.31428  0.47908  0.81146  1.0000
  H   H613      1.0  0.19129  0.37118  0.97796  1.0000
  H   H614      1.0  0.28114  0.47790  0.74728  1.0000
  H   H615      1.0  0.24684  0.48302  0.82891  1.0000
  H   H616      1.0  0.14479  0.41009  0.74514  1.0000
  H   H617      1.0  0.25286  0.47399  0.90514  1.0000
  H   H618      1.0  0.26174  0.46524  0.92614  1.0000
  H   H619      1.0  0.00810  0.46621  0.82707  1.0000
  H   H620      1.0  0.20991  0.38260  0.97310  1.0000
  H   H621      1.0  0.13454  0.47731  0.87312  1.0000
  H   H622      1.0  0.15366  0.47038  0.75522  1.0000
  H   H623      1.0  0.25093  0.48113  0.74483  1.0000
  C   C358      1.0  0.30595  0.48607  0.83823  1.0000
  H   H624      1.0  0.16525  0.47006  0.78280  1.0000
  C   C359      1.0  0.15185  0.48348  0.75975  1.0000
  H   H625      1.0  0.29511  0.45789  0.73880  1.0000
  H   H626      1.0  0.20115  0.47435  0.73488  1.0000
  H   H627      1.0  0.26670  0.45350  0.73883  1.0000
  S   S120      1.0  0.18427  0.44803  0.73467  1.0000
  H   H628      1.0  0.11621  0.48537  0.77793  1.0000
  H   H629      1.0  0.30421  0.47806  0.73478  1.0000
  C   C360      1.0  0.09702  0.48569  0.81481  1.0000
  H   H630      1.0  0.32116  0.35771  0.81148  1.0000
  H   H631      1.0  0.32035  0.37144  0.78907  1.0000
  C   C361      1.0  0.24939  0.55443  0.21723  1.0000
  Fe  Fe64      1.0  0.20766  0.58328  0.14219  1.0000
  S   S121      1.0  0.18367  0.56971  0.15572  1.0000
  S   S122      1.0  0.21617  0.59343  0.16321  1.0000
  Fe  Fe65      1.0  0.20786  0.57667  0.10428  1.0000
  S   S123      1.0  0.18362  0.56312  0.11531  1.0000
  S   S124      1.0  0.22192  0.57974  0.07412  1.0000
  Fe  Fe66      1.0  0.17200  0.58555  0.13113  1.0000
  S   S125      1.0  0.14305  0.60122  0.13215  1.0000
  Fe  Fe67      1.0  0.19806  0.54886  0.13858  1.0000
  S   S126      1.0  0.20171  0.51856  0.14929  1.0000
  S   S127      1.0  0.19499  0.60063  0.11844  1.0000
  S   S128      1.0  0.22313  0.56094  0.12684  1.0000
  H   H632      1.0  0.14842  0.63772  0.20357  1.0000
  H   H633      1.0  0.20841  0.61916  0.21042  1.0000
  N   N24       1.0  0.20815  0.50284  0.01837  1.0000
  S   S129      1.0  0.10676  0.61655  0.21167  1.0000
  H   H634      1.0  0.26563  0.55065  0.10701  1.0000
  H   H635      1.0  0.24706  0.51456  0.19123  1.0000
  S   S130      1.0  0.31943  0.49161  0.17344  1.0000
  H   H636      1.0  0.28291  0.51419  0.18942  1.0000
  H   H637      1.0  0.22272  0.49315  0.04069  1.0000
  H   H638      1.0  0.10159  0.52671  0.14381  1.0000
  Fe  Fe68      1.0  0.30367  0.59524  0.18515  1.0000
  S   S131      1.0  0.29225  0.57369  0.20741  1.0000
  S   S132      1.0  0.29894  0.59607  0.15713  1.0000
  C   C362      1.0  0.17623  0.62028  0.19822  1.0000
  H   H639      1.0  0.23087  0.54070  0.16997  1.0000
  C   C363      1.0  0.02190  0.52168  0.21295  1.0000
  S   S133      1.0  0.22255  0.48627  0.07770  1.0000
  C   C364      1.0  0.25493  0.55514  0.19640  1.0000
  S   S134      1.0  0.29168  0.61745  0.20136  1.0000
  H   H640      1.0  0.22964  0.58683  0.03442  1.0000
  C   C365      1.0  0.21911  0.48757  0.03039  1.0000
  H   H641      1.0  0.20102  0.51029  0.99162  1.0000
  H   H642      1.0  0.19290  0.55991  0.07889  1.0000
  H   H643      1.0  0.10034  0.50310  0.15428  1.0000
  H   H644      1.0  0.08246  0.60335  0.19436  1.0000
  H   H645      1.0  0.23708  0.52604  0.20977  1.0000
  H   H646      1.0  0.04236  0.64062  0.17023  1.0000
  C   C366      1.0  0.23904  0.59539  0.16028  1.0000
  C   C367      1.0  0.24406  0.60062  0.17419  1.0000
  C   C368      1.0  0.26240  0.60094  0.17318  1.0000
  C   C369      1.0  0.27580  0.59648  0.15799  1.0000
  C   C370      1.0  0.27073  0.59177  0.14375  1.0000
  C   C371      1.0  0.25236  0.59104  0.14496  1.0000
  H   H647      1.0  0.23382  0.60409  0.18599  1.0000
  H   H648      1.0  0.26616  0.60470  0.18415  1.0000
  H   H649      1.0  0.28107  0.58841  0.13194  1.0000
  H   H650      1.0  0.24855  0.58712  0.13411  1.0000
  C   C372      1.0  0.13307  0.60532  0.15430  1.0000
  C   C373      1.0  0.13460  0.59108  0.16973  1.0000
  C   C374      1.0  0.12633  0.59446  0.18739  1.0000
  C   C375      1.0  0.11704  0.61219  0.18966  1.0000
  C   C376      1.0  0.11568  0.62645  0.17425  1.0000
  C   C377      1.0  0.12343  0.62294  0.15656  1.0000
  H   H651      1.0  0.14185  0.57740  0.16803  1.0000
  H   H652      1.0  0.12727  0.58335  0.19924  1.0000
  H   H653      1.0  0.10846  0.64015  0.17598  1.0000
  H   H654      1.0  0.12224  0.63396  0.14465  1.0000
  C   C378      1.0  0.21009  0.50893  0.12965  1.0000
  C   C379      1.0  0.21398  0.52033  0.11235  1.0000
  C   C380      1.0  0.21854  0.51321  0.09637  1.0000
  H   H655      1.0  0.18577  0.57540  0.19632  1.0000
  H   H656      1.0  0.03498  0.52653  0.20744  1.0000
  H   H657      1.0  0.16593  0.52257  0.10894  1.0000
  H   H658      1.0  0.21329  0.53473  0.11111  1.0000
  H   H659      1.0  0.22069  0.52229  0.08301  1.0000
  Fe  Fe69      1.0  0.31853  0.56853  0.21681  1.0000
  H   H660      1.0  0.05431  0.56193  0.22303  1.0000
  H   H661      1.0  0.07604  0.62292  0.17665  1.0000
  H   H662      1.0  0.01532  0.62857  0.21805  1.0000
  H   H663      1.0  0.24367  0.56466  0.19015  1.0000
  C   C381      1.0  0.18833  0.50627  0.02830  1.0000
  H   H664      1.0  0.17022  0.51475  0.22439  1.0000
  C   C382      1.0  0.27093  0.53684  0.11489  1.0000
  C   C383      1.0  0.19457  0.56806  0.03281  1.0000
  C   C384      1.0  0.18868  0.56205  0.05176  1.0000
  C   C385      1.0  0.19750  0.56484  0.06441  1.0000
  C   C386      1.0  0.21205  0.57412  0.05832  1.0000
  C   C387      1.0  0.21830  0.57975  0.03930  1.0000
  C   C388      1.0  0.20962  0.57669  0.02655  1.0000
  H   H665      1.0  0.17709  0.55532  0.05673  1.0000
  C   C389      1.0  0.02880  0.56673  0.21401  1.0000
  H   H666      1.0  0.24579  0.56872  0.21960  1.0000
  H   H667      1.0  0.21429  0.58139  0.01195  1.0000
  C   C390      1.0  0.00956  0.57081  0.21887  1.0000
  H   H668      1.0  0.28590  0.53548  0.11319  1.0000
  C   C391      1.0  0.28533  0.54519  0.16208  1.0000
  C   C392      1.0  0.20851  0.49827  0.00030  1.0000
  C   C393      1.0  0.26588  0.54098  0.16957  1.0000
  C   C394      1.0  0.12889  0.54831  0.14897  1.0000
  C   C395      1.0  0.01409  0.61711  0.19570  1.0000
  H   H669      1.0  0.14988  0.59814  0.21556  1.0000
  H   H670      1.0  0.30129  0.50664  0.11314  1.0000
  S   S135      1.0  0.18195  0.56537  0.01775  1.0000
  H   H671      1.0  0.17018  0.51194  0.05394  1.0000
  H   H672      1.0  0.17285  0.50732  0.14041  1.0000
  H   H673      1.0  0.27113  0.52515  0.09228  1.0000
  H   H674      1.0  0.26667  0.56226  0.19142  1.0000
  H   H675      1.0  0.26572  0.52908  0.16387  1.0000
  H   H676      1.0  0.24953  0.49357  0.11550  1.0000
  H   H677      1.0  0.20605  0.53189  0.00659  1.0000
  H   H678      1.0  0.25634  0.55293  0.16305  1.0000
  H   H679      1.0  0.01079  0.53306  0.21724  1.0000
  C   C396      1.0  0.08541  0.52480  0.19808  1.0000
  C   C397      1.0  0.09848  0.53057  0.20390  1.0000
  C   C398      1.0  0.10984  0.49913  0.21810  1.0000
  Fe  Fe70      1.0  0.28234  0.59517  0.22439  1.0000
  H   H680      1.0  0.19359  0.50349  0.21984  1.0000
  H   H681      1.0  0.28821  0.55513  0.16865  1.0000
  C   C399      1.0  0.21483  0.52054  0.01469  1.0000
  N   N25       1.0  0.16331  0.62112  0.06573  1.0000
  C   C400      1.0  0.17456  0.63391  0.06737  1.0000
  C   C401      1.0  0.14386  0.63185  0.06646  1.0000
  C   C402      1.0  0.17107  0.61547  0.04735  1.0000
  C   C403      1.0  0.16494  0.60466  0.08134  1.0000
  C   C404      1.0  0.19541  0.62630  0.06532  1.0000
  C   C405      1.0  0.13405  0.63791  0.08480  1.0000
  C   C406      1.0  0.15843  0.60842  0.03922  1.0000
  C   C407      1.0  0.15227  0.59104  0.08431  1.0000
  H   H682      1.0  0.17269  0.64695  0.05693  1.0000
  H   H683      1.0  0.17003  0.63792  0.08102  1.0000
  H   H684      1.0  0.13489  0.62409  0.06371  1.0000
  H   H685      1.0  0.14347  0.64440  0.05529  1.0000
  H   H686      1.0  0.17550  0.62719  0.03659  1.0000
  H   H687      1.0  0.18364  0.60453  0.04801  1.0000
  H   H688      1.0  0.17915  0.59636  0.07953  1.0000
  H   H689      1.0  0.16317  0.60887  0.09462  1.0000
  H   H690      1.0  0.19854  0.61486  0.07691  1.0000
  H   H691      1.0  0.20186  0.62184  0.05210  1.0000
  H   H692      1.0  0.20218  0.63729  0.06577  1.0000
  H   H693      1.0  0.11959  0.64461  0.08403  1.0000
  H   H694      1.0  0.13362  0.62608  0.09662  1.0000
  H   H695      1.0  0.14024  0.64821  0.08757  1.0000
  H   H696      1.0  0.14717  0.61962  0.03475  1.0000
  H   H697      1.0  0.15281  0.59677  0.04864  1.0000
  H   H698      1.0  0.16657  0.60336  0.02665  1.0000
  H   H699      1.0  0.15897  0.57996  0.07653  1.0000
  H   H700      1.0  0.13869  0.59743  0.08091  1.0000
  H   H701      1.0  0.14924  0.58461  0.09916  1.0000
  H   H702      1.0  0.28696  0.55123  0.14713  1.0000
  C   C408      1.0  0.08469  0.50616  0.20213  1.0000
  H   H703      1.0  0.19367  0.50438  0.05586  1.0000
  N   N26       1.0  0.14319  0.51433  0.14566  1.0000
  C   C409      1.0  0.16130  0.50414  0.13641  1.0000
  C   C410      1.0  0.14338  0.51073  0.16589  1.0000
  C   C411      1.0  0.14191  0.53461  0.13742  1.0000
  C   C412      1.0  0.12816  0.50730  0.14195  1.0000
  C   C413      1.0  0.16526  0.50799  0.11515  1.0000
  H   H704      1.0  0.18531  0.52750  0.04406  1.0000
  H   H705      1.0  0.16961  0.59310  0.18481  1.0000
  H   H706      1.0  0.06641  0.61376  0.21923  1.0000
  C   C414      1.0  0.16582  0.61422  0.23174  1.0000
  H   H707      1.0  0.22112  0.55294  0.18868  1.0000
  H   H708      1.0  0.01482  0.62911  0.18421  1.0000
  C   C415      1.0  0.05221  0.61135  0.22205  1.0000
  H   H709      1.0  0.26155  0.50419  0.08219  1.0000
  H   H710      1.0  0.28191  0.50438  0.22324  1.0000
  H   H711      1.0  0.12776  0.51122  0.12706  1.0000
  H   H712      1.0  0.05350  0.59618  0.22598  1.0000
  C   C416      1.0  0.09680  0.49337  0.21228  1.0000
  C   C417      1.0  0.25057  0.50298  0.14637  1.0000
  C   C418      1.0  0.22694  0.53923  0.18513  1.0000
  C   C419      1.0  0.11069  0.51774  0.21393  1.0000
  H   H713      1.0  0.17203  0.62581  0.23175  1.0000
  C   C420      1.0  0.19470  0.59552  0.21702  1.0000
  C   C421      1.0  0.27495  0.52384  0.19863  1.0000
  H   H714      1.0  0.99932  0.61723  0.20175  1.0000
  C   C422      1.0  0.15766  0.63040  0.19291  1.0000
  C   C423      1.0  0.29435  0.49847  0.10801  1.0000
  H   H715      1.0  0.15563  0.53826  0.13464  1.0000
  H   H716      1.0  0.13113  0.51875  0.17363  1.0000
  C   C424      1.0  0.02377  0.61736  0.21090  1.0000
  H   H717      1.0  0.18513  0.61472  0.18615  1.0000
  H   H718      1.0  0.09932  0.54490  0.20030  1.0000
  N   N27       1.0  0.17536  0.60544  0.21544  1.0000
  H   H719      1.0  0.16522  0.58021  0.22686  1.0000
  H   H720      1.0  0.01949  0.60423  0.19033  1.0000
  C   C425      1.0  0.24297  0.52844  0.19479  1.0000
  H   H721      1.0  0.03349  0.49314  0.22300  1.0000
  H   H722      1.0  0.15052  0.62108  0.18982  1.0000
  H   H723      1.0  0.18272  0.49352  0.03184  1.0000
  H   H724      1.0  0.26419  0.53662  0.12951  1.0000
  C   C426      1.0  0.26456  0.49001  0.11044  1.0000
  H   H725      1.0  0.16254  0.50499  0.20076  1.0000
  N   N28       1.0  0.04368  0.61907  0.20527  1.0000
  C   C427      1.0  0.10841  0.51388  0.15202  1.0000
  H   H726      1.0  0.05953  0.64062  0.19789  1.0000
  H   H727      1.0  0.14303  0.48994  0.19109  1.0000
  H   H728      1.0  0.17966  0.51667  0.01927  1.0000
  H   H729      1.0  0.04734  0.66025  0.17398  1.0000
  H   H730      1.0  0.26396  0.49976  0.21548  1.0000
  N   N29       1.0  0.27396  0.50239  0.11553  1.0000
  S   S136      1.0  0.99650  0.57289  0.20233  1.0000
  C   C428      1.0  0.07428  0.60875  0.18353  1.0000
  C   C429      1.0  0.31977  0.49733  0.20747  1.0000
  H   H731      1.0  0.05334  0.59289  0.19680  1.0000
  H   H732      1.0  0.11481  0.54572  0.15366  1.0000
  Fe  Fe71      1.0  0.19156  0.56967  0.98676  1.0000
  H   H733      1.0  0.23781  0.51677  0.99092  1.0000
  H   H734      1.0  0.29599  0.53243  0.16352  1.0000
  H   H735      1.0  0.24223  0.51526  0.13911  1.0000
  C   C430      1.0  0.17130  0.58287  0.19768  1.0000
  H   H736      1.0  0.13437  0.54838  0.16100  1.0000
  C   C431      1.0  0.18444  0.51287  0.04656  1.0000
  H   H737      1.0  0.15124  0.62052  0.23099  1.0000
  H   H738      1.0  0.02455  0.65568  0.18304  1.0000
  H   H739      1.0  0.00991  0.50033  0.23165  1.0000
  C   C432      1.0  0.23487  0.52033  0.00462  1.0000
  H   H740      1.0  0.21568  0.53144  0.18978  1.0000
  C   C433      1.0  0.26623  0.52209  0.10748  1.0000
  H   H741      1.0  0.27893  0.50618  0.14098  1.0000
  H   H742      1.0  0.21376  0.52490  0.02773  1.0000
  C   C434      1.0  0.04534  0.63893  0.19881  1.0000
  H   H743      1.0  0.24454  0.51118  0.01319  1.0000
  H   H744      1.0  0.16282  0.57269  0.19900  1.0000
  H   H745      1.0  0.07601  0.53473  0.19029  1.0000
  H   H746      1.0  0.18281  0.63109  0.19950  1.0000
  H   H747      1.0  0.03541  0.56440  0.20033  1.0000
  H   H748      1.0  0.28497  0.53138  0.20005  1.0000
  S   S137      1.0  0.12681  0.52493  0.22152  1.0000
  H   H749      1.0  0.25104  0.52470  0.10932  1.0000
  H   H750      1.0  0.12797  0.56246  0.14044  1.0000
  N   N30       1.0  0.25957  0.53707  0.19025  1.0000
  H   H751      1.0  0.18309  0.51364  0.19160  1.0000
  C   C435      1.0  0.16471  0.59176  0.21472  1.0000
  H   H752      1.0  0.10749  0.51595  0.16591  1.0000
  H   H753      1.0  0.04759  0.61124  0.17888  1.0000
  C   C436      1.0  0.03938  0.64924  0.18056  1.0000
  H   H754      1.0  0.16019  0.64093  0.18013  1.0000
  H   H755      1.0  0.23720  0.54821  0.22368  1.0000
  H   H756      1.0  0.13781  0.53809  0.12384  1.0000
  Fe  Fe72      1.0  0.31832  0.60948  0.21148  1.0000
  H   H757      1.0  0.18436  0.48943  0.19630  1.0000
  H   H758      1.0  0.17894  0.49978  0.11019  1.0000
  S   S138      1.0  0.06871  0.49887  0.19446  1.0000
  H   H759      1.0  0.20231  0.59102  0.20399  1.0000
  C   C437      1.0  0.05394  0.60763  0.19108  1.0000
  H   H760      1.0  0.24989  0.50603  0.15992  1.0000
  H   H761      1.0  0.99488  0.52588  0.14721  1.0000
  H   H762      1.0  0.01841  0.51820  0.20128  1.0000
  C   C438      1.0  0.02327  0.50454  0.22866  1.0000
  Fe  Fe73      1.0  0.10316  0.58997  0.23114  1.0000
  H   H763      1.0  0.08024  0.60003  0.17307  1.0000
  H   H764      1.0  0.02225  0.60437  0.22111  1.0000
  H   H765      1.0  0.00559  0.50368  0.17138  1.0000
  C   C439      1.0  0.17940  0.50174  0.22095  1.0000
  H   H766      1.0  0.15516  0.51549  0.16784  1.0000
  C   C440      1.0  0.03952  0.56540  0.22682  1.0000
  H   H767      1.0  0.29747  0.50295  0.09277  1.0000
  H   H768      1.0  0.03691  0.64708  0.20922  1.0000
  H   H769      1.0  0.15528  0.50368  0.10980  1.0000
  C   C441      1.0  0.27077  0.49893  0.13620  1.0000
  C   C442      1.0  0.17727  0.50216  0.20137  1.0000
  C   C443      1.0  0.21955  0.49456  0.09768  1.0000
  S   S139      1.0  0.09001  0.57102  0.22333  1.0000
  H   H770      1.0  0.04880  0.52259  0.22977  1.0000
  C   C444      1.0  0.21227  0.49004  0.13102  1.0000
  H   H771      1.0  0.23756  0.53437  0.00225  1.0000
  H   H772      1.0  0.16253  0.48901  0.14095  1.0000
  H   H773      1.0  0.13104  0.49199  0.14460  1.0000
  H   H774      1.0  0.01529  0.48896  0.19652  1.0000
  C   C445      1.0  0.32201  0.50426  0.18850  1.0000
  C   C446      1.0  0.20669  0.60667  0.22122  1.0000
  H   H775      1.0  0.22064  0.59807  0.22152  1.0000
  H   H776      1.0  0.11891  0.48915  0.22618  1.0000
  C   C447      1.0  0.26950  0.51101  0.21734  1.0000
  H   H777      1.0  0.22256  0.49570  0.99198  1.0000
  H   H778      1.0  0.19476  0.58261  0.22767  1.0000
  C   C448      1.0  0.26754  0.49051  0.08971  1.0000
  H   H779      1.0  0.24408  0.49101  0.14859  1.0000
  H   H780      1.0  0.25943  0.51807  0.22769  1.0000
  C   C449      1.0  0.14445  0.49058  0.17620  1.0000
  H   H781      1.0  0.26101  0.54721  0.22414  1.0000
  C   C450      1.0  0.32221  0.50765  0.21908  1.0000
  H   H782      1.0  0.14789  0.48924  0.23093  1.0000
  C   C451      1.0  0.99045  0.50706  0.17367  1.0000
  H   H783      1.0  0.28218  0.48639  0.08335  1.0000
  H   H784      1.0  0.13151  0.51289  0.35117  1.0000
  H   H785      1.0  0.99787  0.76589  0.45296  1.0000
  S   S140      1.0  0.12006  0.55883  0.29313  1.0000
  C   C452      1.0  0.10273  0.73570  0.47684  1.0000
  H   H786      1.0  0.01897  0.52441  0.26579  1.0000
  Fe  Fe74      1.0  0.06740  0.78829  0.44854  1.0000
  S   S141      1.0  0.06266  0.81694  0.43181  1.0000
  S   S142      1.0  0.07798  0.76403  0.43481  1.0000
  S   S143      1.0  0.16737  0.87792  0.47296  1.0000
  H   H787      1.0  0.30345  0.75184  0.41740  1.0000
  C   C453      1.0  0.20271  0.61355  0.45111  1.0000
  Fe  Fe75      1.0  0.03780  0.82194  0.45434  1.0000
  S   S144      1.0  0.00945  0.83812  0.45112  1.0000
  Fe  Fe76      1.0  0.07832  0.82300  0.44990  1.0000
  S   S145      1.0  0.10325  0.83586  0.43869  1.0000
  S   S146      1.0  0.04129  0.79270  0.46951  1.0000
  S   S147      1.0  0.08475  0.79386  0.46506  1.0000
  H   H788      1.0  0.11364  0.49005  0.30254  1.0000
  H   H789      1.0  0.25482  0.77680  0.45834  1.0000
  H   H790      1.0  0.08008  0.54608  0.32293  1.0000
  C   C454      1.0  0.04064  0.74469  0.40428  1.0000
  Fe  Fe77      1.0  0.18365  0.89890  0.45581  1.0000
  S   S148      1.0  0.20966  0.88774  0.43707  1.0000
  H   H791      1.0  0.21723  0.65207  0.46880  1.0000
  C   C455      1.0  0.11255  0.51662  0.33321  1.0000
  C   C456      1.0  0.30528  0.76623  0.41535  1.0000
  H   H792      1.0  0.14016  0.51408  0.30308  1.0000
  H   H793      1.0  0.12092  0.62854  0.37619  1.0000
  H   H794      1.0  0.19278  0.49074  0.26349  1.0000
  C   C457      1.0  0.03106  0.56853  0.24449  1.0000
  Fe  Fe78      1.0  0.29354  0.77002  0.47181  1.0000
  C   C458      1.0  0.01577  0.52344  0.25278  1.0000
  Fe  Fe79      1.0  0.16444  0.70496  0.46840  1.0000
  S   S149      1.0  0.17951  0.71547  0.43999  1.0000
  C   C459      1.0  0.15322  0.67041  0.35031  1.0000
  H   H795      1.0  0.24303  0.54532  0.26730  1.0000
  S   S150      1.0  0.21736  0.69335  0.45477  1.0000
  N   N31       1.0  0.13660  0.66179  0.35844  1.0000
  Fe  Fe80      1.0  0.19902  0.72119  0.45445  1.0000
  S   S151      1.0  0.20808  0.74833  0.44935  1.0000
  Fe  Fe81      1.0  0.19656  0.68662  0.44273  1.0000
  S   S152      1.0  0.20794  0.67064  0.41959  1.0000
  H   H796      1.0  0.13029  0.61877  0.35626  1.0000
  S   S153      1.0  0.18012  0.67582  0.47033  1.0000
  Fe  Fe82      1.0  0.18652  0.56788  0.35868  1.0000
  S   S154      1.0  0.16183  0.59030  0.36383  1.0000
  S   S155      1.0  0.18662  0.53748  0.36851  1.0000
  Fe  Fe83      1.0  0.21102  0.59485  0.33843  1.0000
  S   S156      1.0  0.18849  0.61965  0.34123  1.0000
  S   S157      1.0  0.24023  0.59594  0.32422  1.0000
  Fe  Fe84      1.0  0.18065  0.60482  0.37051  1.0000
  S   S158      1.0  0.16902  0.61951  0.39472  1.0000
  Fe  Fe85      1.0  0.17142  0.60345  0.33445  1.0000
  S   S159      1.0  0.15215  0.61691  0.31484  1.0000
  S   S160      1.0  0.20456  0.58098  0.36814  1.0000
  S   S161      1.0  0.19482  0.58005  0.32879  1.0000
  H   H797      1.0  0.14113  0.65183  0.38637  1.0000
  H   H798      1.0  0.31654  0.78161  0.37892  1.0000
  H   H799      1.0  0.25371  0.64180  0.24208  1.0000
  C   C460      1.0  0.17669  0.50571  0.33016  1.0000
  C   C461      1.0  0.16523  0.60120  0.25080  1.0000
  C   C462      1.0  0.18322  0.50647  0.35924  1.0000
  C   C463      1.0  0.18160  0.52562  0.35410  1.0000
  C   C464      1.0  0.17687  0.53483  0.33722  1.0000
  C   C465      1.0  0.17447  0.52490  0.32528  1.0000
  H   H800      1.0  0.12326  0.67757  0.39989  1.0000
  H   H801      1.0  0.05681  0.49838  0.23434  1.0000
  H   H802      1.0  0.17539  0.54957  0.33322  1.0000
  H   H803      1.0  0.17117  0.53210  0.31208  1.0000
  C   C466      1.0  0.22558  0.50077  0.31308  1.0000
  C   C467      1.0  0.23174  0.60309  0.27285  1.0000
  C   C468      1.0  0.22883  0.60262  0.29173  1.0000
  C   C469      1.0  0.24350  0.59587  0.30084  1.0000
  C   C470      1.0  0.26095  0.58909  0.29119  1.0000
  C   C471      1.0  0.26383  0.58946  0.27233  1.0000
  H   H804      1.0  0.22044  0.60865  0.26575  1.0000
  H   H805      1.0  0.21531  0.60786  0.29915  1.0000
  H   H806      1.0  0.27222  0.58347  0.29833  1.0000
  C   C472      1.0  0.19658  0.65694  0.41261  1.0000
  C   C473      1.0  0.17863  0.65490  0.42106  1.0000
  C   C474      1.0  0.17040  0.64338  0.41543  1.0000
  C   C475      1.0  0.17999  0.63382  0.40131  1.0000
  C   C476      1.0  0.19787  0.63600  0.39277  1.0000
  C   C477      1.0  0.20611  0.64747  0.39843  1.0000
  H   H807      1.0  0.17114  0.66207  0.43201  1.0000
  H   H808      1.0  0.15656  0.64180  0.42212  1.0000
  H   H809      1.0  0.20540  0.62876  0.38188  1.0000
  H   H810      1.0  0.22000  0.64895  0.39181  1.0000
  C   C478      1.0  0.22953  0.74776  0.45429  1.0000
  C   C479      1.0  0.24228  0.73125  0.45724  1.0000
  N   N32       1.0  0.22335  0.62329  0.46730  1.0000
  C   C480      1.0  0.26426  0.74758  0.46051  1.0000
  C   C481      1.0  0.25137  0.76408  0.45811  1.0000
  C   C482      1.0  0.23413  0.76417  0.45483  1.0000
  H   H811      1.0  0.23897  0.71853  0.45686  1.0000
  C   C483      1.0  0.18068  0.49653  0.34734  1.0000
  H   H812      1.0  0.11809  0.65534  0.38455  1.0000
  H   H813      1.0  0.22438  0.77702  0.45254  1.0000
  H   H814      1.0  0.30182  0.65625  0.23924  1.0000
  H   H815      1.0  0.25871  0.51487  0.31178  1.0000
  C   C484      1.0  0.22304  0.86997  0.45069  1.0000
  C   C485      1.0  0.24055  0.86083  0.44311  1.0000
  C   C486      1.0  0.25153  0.84782  0.45466  1.0000
  Fe  Fe86      1.0  0.11198  0.54902  0.23458  1.0000
  H   H816      1.0  0.99720  0.84318  0.41772  1.0000
  C   C487      1.0  0.21651  0.86559  0.46964  1.0000
  H   H817      1.0  0.24574  0.86407  0.42843  1.0000
  H   H818      1.0  0.26520  0.84114  0.44889  1.0000
  S   S162      1.0  0.13466  0.71190  0.48160  1.0000
  H   H819      1.0  0.24977  0.89844  0.43240  1.0000
  C   C488      1.0  0.09325  0.74829  0.44763  1.0000
  C   C489      1.0  0.10914  0.73758  0.43897  1.0000
  C   C490      1.0  0.12213  0.72634  0.44922  1.0000
  C   C491      1.0  0.11890  0.72547  0.46817  1.0000
  H   H820      1.0  0.29267  0.62893  0.29789  1.0000
  C   C492      1.0  0.09005  0.74725  0.46658  1.0000
  H   H821      1.0  0.11166  0.73840  0.42430  1.0000
  H   H822      1.0  0.13455  0.71830  0.44252  1.0000
  C   C493      1.0  0.19000  0.96290  0.46250  1.0000
  H   H823      1.0  0.30276  0.76901  0.42942  1.0000
  C   C494      1.0  0.10592  0.85317  0.44845  1.0000
  C   C495      1.0  0.09147  0.86172  0.46063  1.0000
  H   H824      1.0  0.01978  0.77397  0.38606  1.0000
  S   S163      1.0  0.11417  0.89713  0.47439  1.0000
  C   C496      1.0  0.12560  0.87207  0.45160  1.0000
  C   C497      1.0  0.12295  0.85842  0.44392  1.0000
  C   C498      1.0  0.16923  0.66320  0.36062  1.0000
  C   C499      1.0  0.01184  0.57251  0.24937  1.0000
  H   H825      1.0  0.13877  0.87605  0.44802  1.0000
  H   H826      1.0  0.13413  0.85196  0.43437  1.0000
  S   S164      1.0  0.17584  0.49359  0.31390  1.0000
  C   C500      1.0  0.04745  0.50991  0.24048  1.0000
  H   H827      1.0  0.17476  0.78561  0.43137  1.0000
  H   H828      1.0  0.13904  0.49763  0.33560  1.0000
  C   C501      1.0  0.08073  0.48656  0.32997  1.0000
  C   C502      1.0  0.24675  0.91302  0.43375  1.0000
  H   H829      1.0  0.14948  0.68558  0.34918  1.0000
  H   H830      1.0  0.13626  0.67792  0.32021  1.0000
  C   C503      1.0  0.00112  0.57363  0.23663  1.0000
  C   C504      1.0  0.29394  0.66549  0.24868  1.0000
  C   C505      1.0  0.12885  0.57532  0.29872  1.0000
  C   C506      1.0  0.13859  0.56981  0.31300  1.0000
  C   C507      1.0  0.14577  0.58252  0.31793  1.0000
  C   C508      1.0  0.14308  0.60090  0.30876  1.0000
  C   C509      1.0  0.13309  0.60653  0.29462  1.0000
  C   C510      1.0  0.12613  0.59373  0.28948  1.0000
  H   H831      1.0  0.14059  0.55565  0.32033  1.0000
  H   H832      1.0  0.15318  0.57813  0.32902  1.0000
  H   H833      1.0  0.13084  0.62077  0.28758  1.0000
  H   H834      1.0  0.01861  0.53638  0.24330  1.0000
  S   S165      1.0  0.15849  0.92152  0.45252  1.0000
  H   H835      1.0  0.32272  0.73696  0.43830  1.0000
  H   H836      1.0  0.21308  0.55779  0.29963  1.0000
  H   H837      1.0  0.29951  0.65477  0.27606  1.0000
  C   C511      1.0  0.12611  0.67996  0.38463  1.0000
  H   H838      1.0  0.29564  0.60972  0.26591  1.0000
  H   H839      1.0  0.08639  0.49924  0.34937  1.0000
  H   H840      1.0  0.27726  0.58405  0.26501  1.0000
  H   H841      1.0  0.21366  0.93464  0.47882  1.0000
  H   H842      1.0  0.99035  0.51961  0.24688  1.0000
  N   N33       1.0  0.24664  0.90935  0.46817  1.0000
  H   H843      1.0  0.14115  0.81784  0.46004  1.0000
  H   H844      1.0  0.21957  0.49235  0.30727  1.0000
  H   H845      1.0  0.24741  0.88119  0.46762  1.0000
  H   H846      1.0  0.18467  0.77020  0.40560  1.0000
  C   C512      1.0  0.23968  0.60846  0.46239  1.0000
  C   C513      1.0  0.07615  0.53331  0.32230  1.0000
  C   C514      1.0  0.21217  0.62846  0.45255  1.0000
  C   C515      1.0  0.25397  0.52549  0.30014  1.0000
  N   N34       1.0  0.02796  0.50695  0.24573  1.0000
  C   C516      1.0  0.99089  0.83265  0.42770  1.0000
  H   H847      1.0  0.20133  0.64100  0.45420  1.0000
  H   H848      1.0  0.20316  0.87214  0.47581  1.0000
  H   H849      1.0  0.26507  0.94931  0.45785  1.0000
  H   H850      1.0  0.15195  0.63380  0.36330  1.0000
  C   C517      1.0  0.12388  0.67276  0.32856  1.0000
  H   H851      1.0  0.11191  0.68193  0.32312  1.0000
  Fe  Fe87      1.0  0.10822  0.56541  0.26764  1.0000
  H   H852      1.0  0.21265  0.60107  0.44771  1.0000
  C   C518      1.0  0.02316  0.77673  0.43928  1.0000
  H   H853      1.0  0.18102  0.66965  0.35267  1.0000
  H   H854      1.0  0.05163  0.78155  0.41135  1.0000
  S   S166      1.0  0.09529  0.54416  0.26318  1.0000
  H   H855      1.0  0.26473  0.54824  0.30412  1.0000
  H   H856      1.0  0.01881  0.75104  0.45930  1.0000
  H   H857      1.0  0.10147  0.52374  0.34301  1.0000
  H   H858      1.0  0.11894  0.52784  0.32359  1.0000
  H   H859      1.0  0.00518  0.57489  0.26303  1.0000
  C   C519      1.0  0.14144  0.64235  0.35541  1.0000
  H   H860      1.0  0.25254  0.98032  0.47585  1.0000
  H   H861      1.0  0.19240  0.60985  0.46369  1.0000
  C   C520      1.0  0.23570  0.91523  0.45316  1.0000
  C   C521      1.0  0.13319  0.50724  0.29657  1.0000
  S   S167      1.0  0.08569  0.58886  0.25950  1.0000
  H   H862      1.0  0.11362  0.63940  0.35455  1.0000
  H   H863      1.0  0.14792  0.64185  0.34077  1.0000
  S   S168      1.0  0.25276  0.59832  0.23934  1.0000
  H   H864      1.0  0.18992  0.95179  0.45626  1.0000
  C   C522      1.0  0.24929  0.59675  0.26309  1.0000
  S   S169      1.0  0.05308  0.83088  0.47075  1.0000
  H   H865      1.0  0.15906  0.66834  0.33598  1.0000
  H   H866      1.0  0.22748  0.51906  0.28696  1.0000
  C   C523      1.0  0.12545  0.63199  0.36103  1.0000
  H   H867      1.0  0.16567  0.66672  0.37440  1.0000
  H   H868      1.0  0.25069  0.63717  0.30096  1.0000
  H   H869      1.0  0.17412  0.64819  0.36209  1.0000
  C   C524      1.0  0.28852  0.65542  0.26875  1.0000
  Fe  Fe88      1.0  0.14285  0.90090  0.47246  1.0000
  H   H870      1.0  0.25745  0.63692  0.45183  1.0000
  H   H871      1.0  0.28166  0.67399  0.24336  1.0000
  C   C525      1.0  0.09425  0.49345  0.33710  1.0000
  H   H872      1.0  0.04844  0.73031  0.40723  1.0000
  H   H873      1.0  0.27352  0.91627  0.45678  1.0000
  C   C526      1.0  0.09407  0.87548  0.46820  1.0000
  H   H874      1.0  0.18060  0.75389  0.42643  1.0000
  H   H875      1.0  0.02592  0.49289  0.27436  1.0000
  H   H876      1.0  0.30725  0.80756  0.41233  1.0000
  C   C527      1.0  0.22776  0.55207  0.29424  1.0000
  Fe  Fe89      1.0  0.28220  0.80828  0.48073  1.0000
  C   C528      1.0  0.26683  0.53942  0.29413  1.0000
  C   C529      1.0  0.25465  0.94197  0.45716  1.0000
  H   H877      1.0  0.00896  0.77156  0.46785  1.0000
  H   H878      1.0  0.25713  0.51815  0.28857  1.0000
  H   H879      1.0  0.24129  0.94882  0.46429  1.0000
  H   H880      1.0  0.11849  0.59812  0.27855  1.0000
  C   C530      1.0  0.26626  0.63863  0.26539  1.0000
  H   H881      1.0  0.99823  0.48797  0.26351  1.0000
  C   C531      1.0  0.14999  0.80491  0.45642  1.0000
  H   H882      1.0  0.12658  0.51749  0.28591  1.0000
  H   H883      1.0  0.04861  0.75009  0.42697  1.0000
  H   H884      1.0  0.21837  0.54861  0.27081  1.0000
  H   H885      1.0  0.28870  0.77373  0.39403  1.0000
  N   N35       1.0  0.02590  0.77223  0.42061  1.0000
  H   H886      1.0  0.26320  0.63120  0.31882  1.0000
  C   C532      1.0  0.03814  0.78439  0.40725  1.0000
  C   C533      1.0  0.03566  0.75238  0.42196  1.0000
  C   C534      1.0  0.00737  0.77525  0.41583  1.0000
  H   H887      1.0  0.25976  0.91800  0.43023  1.0000
  C   C535      1.0  0.03053  0.80528  0.40518  1.0000
  C   C536      1.0  0.20441  0.97254  0.45609  1.0000
  H   H888      1.0  0.04970  0.75228  0.39291  1.0000
  C   C537      1.0  0.99495  0.52437  0.25702  1.0000
  C   C538      1.0  0.11963  0.49627  0.31064  1.0000
  H   H889      1.0  0.04169  0.78149  0.39326  1.0000
  H   H890      1.0  0.13112  0.75545  0.47604  1.0000
  H   H891      1.0  0.21789  0.50036  0.32747  1.0000
  C   C539      1.0  0.25334  0.60199  0.47554  1.0000
  C   C540      1.0  0.26354  0.63831  0.30422  1.0000
  S   S170      1.0  0.12671  0.56824  0.23978  1.0000
  H   H892      1.0  0.25116  0.53908  0.33321  1.0000
  C   C541      1.0  0.17565  0.96778  0.47684  1.0000
  H   H893      1.0  0.25621  0.65123  0.26862  1.0000
  H   H894      1.0  0.01633  0.80928  0.40281  1.0000
  H   H895      1.0  0.03108  0.81032  0.41731  1.0000
  H   H896      1.0  0.03924  0.81267  0.39317  1.0000
  C   C542      1.0  0.12673  0.50427  0.34445  1.0000
  H   H897      1.0  0.14411  0.49745  0.28942  1.0000
  C   C543      1.0  0.22741  0.85297  0.48106  1.0000
  C   C544      1.0  0.23666  0.54552  0.33253  1.0000
  H   H898      1.0  0.22475  0.90714  0.45645  1.0000
  H   H899      1.0  0.18497  0.51257  0.24895  1.0000
  S   S171      1.0  0.29454  0.79819  0.45436  1.0000
  S   S172      1.0  0.04392  0.56780  0.26077  1.0000
  C   C545      1.0  0.13063  0.66124  0.37882  1.0000
  H   H900      1.0  0.04970  0.61222  0.25066  1.0000
  H   H901      1.0  0.99824  0.78746  0.42080  1.0000
  H   H902      1.0  0.01626  0.79131  0.43919  1.0000
  C   C546      1.0  0.22913  0.64031  0.46833  1.0000
  H   H903      1.0  0.10044  0.53084  0.30166  1.0000
  Fe  Fe90      1.0  0.07431  0.56788  0.25239  1.0000
  H   H904      1.0  0.07827  0.85787  0.46405  1.0000
  S   S173      1.0  0.32135  0.76508  0.47883  1.0000
  H   H905      1.0  0.23552  0.55974  0.32448  1.0000
  H   H906      1.0  0.23083  0.51966  0.33418  1.0000
  H   H907      1.0  0.06447  0.53716  0.31513  1.0000
  C   C547      1.0  0.22976  0.55334  0.27343  1.0000
  H   H908      1.0  0.23534  0.56195  0.29565  1.0000
  H   H909      1.0  0.05535  0.49971  0.26771  1.0000
  C   C548      1.0  0.29919  0.62356  0.26241  1.0000
  C   C549      1.0  0.24421  0.64693  0.45226  1.0000
  H   H910      1.0  0.02821  0.74400  0.39993  1.0000
  C   C550      1.0  0.25961  0.73120  0.46013  1.0000
  H   H911      1.0  0.11893  0.68784  0.34983  1.0000
  H   H912      1.0  0.16191  0.80885  0.44587  1.0000
  C   C551      1.0  0.12116  0.67312  0.34911  1.0000
  N   N36       1.0  0.14840  0.77783  0.44309  1.0000
  C   C552      1.0  0.16384  0.78168  0.42696  1.0000
  C   C553      1.0  0.13862  0.79567  0.44898  1.0000
  C   C554      1.0  0.13478  0.76996  0.43801  1.0000
  C   C555      1.0  0.15637  0.76408  0.45839  1.0000
  C   C556      1.0  0.17371  0.76560  0.41714  1.0000
  H   H913      1.0  0.22890  0.56792  0.26614  1.0000
  C   C557      1.0  0.12634  0.78154  0.42142  1.0000
  C   C558      1.0  0.25693  0.88985  0.46769  1.0000
  C   C559      1.0  0.01151  0.76546  0.45555  1.0000
  H   H914      1.0  0.00128  0.79334  0.38997  1.0000
  H   H915      1.0  0.12586  0.79397  0.45948  1.0000
  H   H916      1.0  0.13396  0.80603  0.43718  1.0000
  H   H917      1.0  0.14094  0.75590  0.43532  1.0000
  H   H918      1.0  0.12293  0.76817  0.44966  1.0000
  H   H919      1.0  0.16203  0.75046  0.45447  1.0000
  H   H920      1.0  0.16827  0.76817  0.46086  1.0000
  H   H921      1.0  0.15905  0.79369  0.41643  1.0000
  H   H922      1.0  0.16446  0.76094  0.41116  1.0000
  H   H923      1.0  0.99667  0.77115  0.39383  1.0000
  S   S174      1.0  0.18858  0.90774  0.47947  1.0000
  C   C560      1.0  0.22780  0.53359  0.32547  1.0000
  H   H924      1.0  0.20829  0.52662  0.30369  1.0000
  H   H925      1.0  0.11731  0.77387  0.41853  1.0000
  H   H926      1.0  0.13681  0.78418  0.40870  1.0000
  H   H927      1.0  0.11748  0.79473  0.42442  1.0000
  H   H928      1.0  0.07027  0.51269  0.25062  1.0000
  C   C561      1.0  0.11116  0.88060  0.46380  1.0000
  H   H929      1.0  0.13763  0.68733  0.37955  1.0000
  N   N37       1.0  0.10471  0.50690  0.32319  1.0000
  C   C562      1.0  0.99500  0.82699  0.44525  1.0000
  H   H930      1.0  0.28129  0.53177  0.29269  1.0000
  H   H931      1.0  0.21542  0.96883  0.44488  1.0000
  C   C563      1.0  0.09248  0.52112  0.31171  1.0000
  H   H932      1.0  0.15462  0.79628  0.46898  1.0000
  H   H933      1.0  0.26549  0.54834  0.28050  1.0000
  C   C564      1.0  0.24497  0.84419  0.47375  1.0000
  H   H934      1.0  0.22089  0.63227  0.43875  1.0000
  C   C565      1.0  0.02728  0.48976  0.26063  1.0000
  N   N38       1.0  0.23362  0.53307  0.30525  1.0000
  H   H935      1.0  0.32276  0.75751  0.38225  1.0000
  H   H936      1.0  0.22828  0.92974  0.45200  1.0000
  H   H937      1.0  0.10791  0.66898  0.35639  1.0000
  H   H938      1.0  0.26948  0.71838  0.46197  1.0000
  H   H939      1.0  0.00051  0.76353  0.42326  1.0000
  S   S175      1.0  0.28652  0.74678  0.46350  1.0000
  H   H940      1.0  0.11361  0.68891  0.38013  1.0000
  H   H941      1.0  0.23833  0.92095  0.42342  1.0000
  H   H942      1.0  0.22936  0.54651  0.34685  1.0000
  H   H943      1.0  0.18681  0.49927  0.37232  1.0000
  H   H944      1.0  0.08739  0.51498  0.30280  1.0000
  C   C566      1.0  0.04193  0.61892  0.23953  1.0000
  H   H945      1.0  0.31650  0.80544  0.38860  1.0000
  H   H946      1.0  0.12460  0.65886  0.32631  1.0000
  C   C567      1.0  0.22325  0.52057  0.30156  1.0000
  H   H947      1.0  0.25941  0.62698  0.27304  1.0000
  H   H948      1.0  0.19518  0.61905  0.43966  1.0000
  H   H949      1.0  0.17895  0.59358  0.25326  1.0000
  H   H950      1.0  0.26377  0.92053  0.47915  1.0000
  H   H951      1.0  0.04096  0.63391  0.23749  1.0000
  H   H952      1.0  0.26748  0.88920  0.45478  1.0000
  H   H953      1.0  0.15613  0.59139  0.25302  1.0000
  H   H954      1.0  0.27498  0.64937  0.23540  1.0000
  H   H955      1.0  0.99027  0.51660  0.27107  1.0000
  H   H956      1.0  0.12081  0.49366  0.35545  1.0000
  H   H957      1.0  0.21269  0.53843  0.32914  1.0000
  H   H958      1.0  0.07773  0.75531  0.47338  1.0000
  H   H959      1.0  0.03667  0.77509  0.44292  1.0000
  H   H960      1.0  0.26358  0.65291  0.30340  1.0000
  C   C568      1.0  0.05563  0.51177  0.25614  1.0000
  H   H961      1.0  0.27667  0.66503  0.27519  1.0000
  H   H962      1.0  0.27992  0.61408  0.29486  1.0000
  N   N39       1.0  0.28383  0.63685  0.27171  1.0000
  H   H963      1.0  0.07099  0.52633  0.33648  1.0000
  C   C569      1.0  0.31986  0.80343  0.40220  1.0000
  C   C570      1.0  0.26774  0.63884  0.24492  1.0000
  H   H964      1.0  0.27630  0.86716  0.48002  1.0000
  C   C571      1.0  0.26025  0.92134  0.46572  1.0000
  H   H965      1.0  0.02718  0.74318  0.43220  1.0000
  H   H966      1.0  0.25431  0.94416  0.44239  1.0000
  H   H967      1.0  0.27615  0.77672  0.41639  1.0000
  H   H968      1.0  0.30332  0.67460  0.24801  1.0000
  Fe  Fe91      1.0  0.32155  0.79400  0.46281  1.0000
  H   H969      1.0  0.24018  0.49410  0.31291  1.0000
  H   H970      1.0  0.24002  0.65009  0.43882  1.0000
  H   H971      1.0  0.04876  0.52461  0.26125  1.0000
  H   H972      1.0  0.30123  0.62745  0.24724  1.0000
  C   C572      1.0  0.31820  0.62117  0.26684  1.0000
  H   H973      1.0  0.23372  0.63866  0.48138  1.0000
  C   C573      1.0  0.14296  0.76054  0.47707  1.0000
  H   H974      1.0  0.15938  0.60956  0.26157  1.0000
  C   C574      1.0  0.00673  0.77858  0.39522  1.0000
  Fe  Fe92      1.0  0.16238  0.92819  0.47802  1.0000
  C   C575      1.0  0.28084  0.62880  0.29213  1.0000
  H   H975      1.0  0.28956  0.79309  0.40298  1.0000
  S   S176      1.0  0.30783  0.58855  0.23589  1.0000
  C   C576      1.0  0.28925  0.77832  0.40644  1.0000
  H   H976      1.0  0.23516  0.59587  0.46223  1.0000
  H   H977      1.0  0.17317  0.50650  0.27211  1.0000
  H   H978      1.0  0.24732  0.61233  0.44802  1.0000
  H   H979      1.0  0.26740  0.59773  0.46762  1.0000
  C   C577      1.0  0.18060  0.50091  0.25963  1.0000
  H   H980      1.0  0.13337  0.83659  0.48108  1.0000
  H   H981      1.0  0.08285  0.88211  0.47757  1.0000
  H   H982      1.0  0.31842  0.61528  0.28155  1.0000
  H   H983      1.0  0.02812  0.61553  0.24477  1.0000
  C   C578      1.0  0.16779  0.49181  0.25387  1.0000
  H   H984      1.0  0.24678  0.65982  0.45421  1.0000
  H   H985      1.0  0.27449  0.62514  0.24163  1.0000
  H   H986      1.0  0.06839  0.49741  0.32786  1.0000
  H   H987      1.0  0.27322  0.98526  0.47776  1.0000
  H   H988      1.0  0.20141  0.61050  0.23486  1.0000
  H   H989      1.0  0.16619  0.84023  0.47126  1.0000
  H   H990      1.0  0.15445  0.50181  0.25349  1.0000
  H   H991      1.0  0.32325  0.63423  0.26246  1.0000
  Fe  Fe93      1.0  0.19942  0.68495  0.48210  1.0000
  H   H992      1.0  0.03218  0.87879  0.48148  1.0000
  S   S177      1.0  0.18226  0.71312  0.48247  1.0000
  H   H993      1.0  0.32070  0.50218  0.23371  1.0000
  H   H994      1.0  0.25416  0.61286  0.48219  1.0000
  Fe  Fe94      1.0  0.10802  0.80128  0.57348  1.0000
  S   S178      1.0  0.09866  0.83113  0.56231  1.0000
  S   S179      1.0  0.11748  0.78156  0.55430  1.0000
  Fe  Fe95      1.0  0.10208  0.80724  0.61199  1.0000
  S   S180      1.0  0.09211  0.83779  0.60417  1.0000
  S   S181      1.0  0.10204  0.79134  0.64082  1.0000
  Fe  Fe96      1.0  0.07606  0.83019  0.58734  1.0000
  Fe  Fe97      1.0  0.11559  0.83592  0.57987  1.0000
  S   S182      1.0  0.13741  0.85279  0.56657  1.0000
  S   S183      1.0  0.08426  0.79984  0.59725  1.0000
  S   S184      1.0  0.12670  0.80591  0.58901  1.0000
  Fe  Fe98      1.0  0.17809  0.92354  0.59081  1.0000
  S   S185      1.0  0.20414  0.90253  0.58975  1.0000
  S   S186      1.0  0.15069  0.91484  0.59949  1.0000
  Fe  Fe99      1.0  0.19807  0.95571  0.57961  1.0000
  S   S187      1.0  0.22595  0.93707  0.57765  1.0000
  C   C579      1.0  0.16724  0.66579  0.72884  1.0000
  Fe  Fe100     1.0  0.21480  0.92117  0.56391  1.0000
  S   S188      1.0  0.23241  0.90723  0.54118  1.0000
  Fe  Fe101     1.0  0.21322  0.91978  0.60373  1.0000
  S   S189      1.0  0.22794  0.90360  0.62647  1.0000
  S   S190      1.0  0.18785  0.94099  0.56352  1.0000
  S   S191      1.0  0.18610  0.93974  0.60711  1.0000
  H   H995      1.0  0.15551  0.91842  0.54816  1.0000
  S   S192      1.0  0.21082  0.66844  0.50709  1.0000
  Fe  Fe102     1.0  0.22192  0.59012  0.70680  1.0000
  H   H996      1.0  0.15048  0.79238  0.52803  1.0000
  S   S193      1.0  0.22036  0.60297  0.67705  1.0000
  H   H997      1.0  0.24120  0.90430  0.49805  1.0000
  H   H998      1.0  0.21013  0.53808  0.70879  1.0000
  H   H999      1.0  0.16609  0.48899  0.72219  1.0000
  H   H1000     1.0  0.09315  0.93524  0.53254  1.0000
  C   C580      1.0  0.12264  0.74148  0.59957  1.0000
  Fe  Fe103     1.0  0.19282  0.72159  0.62393  1.0000
  S   S194      1.0  0.20562  0.69679  0.61132  1.0000
  S   S195      1.0  0.16555  0.72040  0.64316  1.0000
  Fe  Fe104     1.0  0.22532  0.74046  0.60571  1.0000
  S   S196      1.0  0.24091  0.71677  0.59233  1.0000
  S   S197      1.0  0.23697  0.76626  0.59594  1.0000
  Fe  Fe105     1.0  0.21414  0.71708  0.58559  1.0000
  S   S198      1.0  0.21037  0.72339  0.55634  1.0000
  Fe  Fe106     1.0  0.23098  0.69882  0.61941  1.0000
  S   S199      1.0  0.24964  0.67592  0.63501  1.0000
  S   S200      1.0  0.19906  0.74170  0.59765  1.0000
  S   S201      1.0  0.21769  0.72264  0.63347  1.0000
  H   H1001     1.0  0.99945  0.82927  0.49835  1.0000
  S   S202      1.0  0.30715  0.82250  0.64479  1.0000
  S   S203      1.0  0.30823  0.86209  0.59774  1.0000
  C   C581      1.0  0.19416  0.82257  0.54888  1.0000
  S   S204      1.0  0.05170  0.79416  0.51499  1.0000
  H   H1002     1.0  0.14757  0.81089  0.53927  1.0000
  Fe  Fe107     1.0  0.30298  0.79867  0.63551  1.0000
  S   S205      1.0  0.27819  0.78557  0.64793  1.0000
  H   H1003     1.0  0.12685  0.72038  0.58425  1.0000
  H   H1004     1.0  0.22217  0.85025  0.49570  1.0000
  S   S206      1.0  0.30912  0.81184  0.60586  1.0000
  H   H1005     1.0  0.15512  0.50732  0.70675  1.0000
  C   C582      1.0  0.30869  0.89696  0.62977  1.0000
  H   H1006     1.0  0.14184  0.70398  0.60866  1.0000
  H   H1007     1.0  0.16249  0.69163  0.59586  1.0000
  H   H1008     1.0  0.21566  0.51616  0.68811  1.0000
  H   H1009     1.0  0.09854  0.96811  0.52395  1.0000
  H   H1010     1.0  0.29609  0.83599  0.57439  1.0000
  H   H1011     1.0  0.27610  0.50805  0.68737  1.0000
  H   H1012     1.0  0.10017  0.73497  0.49151  1.0000
  H   H1013     1.0  0.15027  0.74964  0.48683  1.0000
  H   H1014     1.0  0.16269  0.81834  0.48556  1.0000
  C   C583      1.0  0.13213  0.81719  0.51715  1.0000
  C   C584      1.0  0.00904  0.82520  0.63822  1.0000
  H   H1015     1.0  0.25114  0.51382  0.69449  1.0000
  H   H1016     1.0  0.26754  0.70654  0.62243  1.0000
  C   C585      1.0  0.21123  0.70728  0.54333  1.0000
  C   C586      1.0  0.21081  0.71379  0.52466  1.0000
  C   C587      1.0  0.21148  0.70173  0.51350  1.0000
  C   C588      1.0  0.21227  0.67647  0.53975  1.0000
  C   C589      1.0  0.21207  0.68855  0.55093  1.0000
  H   H1017     1.0  0.21000  0.72827  0.51870  1.0000
  H   H1018     1.0  0.21258  0.66204  0.54565  1.0000
  H   H1019     1.0  0.21236  0.68342  0.56537  1.0000
  C   C590      1.0  0.24789  0.77188  0.61062  1.0000
  C   C591      1.0  0.26152  0.78228  0.60293  1.0000
  C   C592      1.0  0.27092  0.78652  0.61424  1.0000
  C   C593      1.0  0.26641  0.78081  0.63335  1.0000
  C   C594      1.0  0.25239  0.77082  0.64106  1.0000
  C   C595      1.0  0.24326  0.76619  0.62971  1.0000
  H   H1020     1.0  0.26520  0.78661  0.58815  1.0000
  H   H1021     1.0  0.28174  0.79402  0.60811  1.0000
  H   H1022     1.0  0.24878  0.76642  0.65584  1.0000
  H   H1023     1.0  0.23259  0.75834  0.63575  1.0000
  C   C596      1.0  0.29809  0.86042  0.54464  1.0000
  C   C597      1.0  0.18974  0.89442  0.52928  1.0000
  H   H1024     1.0  0.20077  0.96185  0.50958  1.0000
  C   C598      1.0  0.22115  0.92747  0.48994  1.0000
  H   H1025     1.0  0.19037  0.78693  0.56108  1.0000
  C   C599      1.0  0.22905  0.62294  0.66537  1.0000
  C   C600      1.0  0.24114  0.62910  0.67214  1.0000
  C   C601      1.0  0.24754  0.64525  0.66260  1.0000
  C   C602      1.0  0.24152  0.65560  0.64653  1.0000
  C   C603      1.0  0.22939  0.64948  0.63981  1.0000
  C   C604      1.0  0.22339  0.63306  0.64906  1.0000
  H   H1026     1.0  0.24576  0.62128  0.68457  1.0000
  H   H1027     1.0  0.25709  0.64980  0.66777  1.0000
  H   H1028     1.0  0.22486  0.65719  0.62732  1.0000
  H   H1029     1.0  0.21412  0.62832  0.64370  1.0000
  C   C605      1.0  0.15627  0.50242  0.72140  1.0000
  C   C606      1.0  0.25042  0.89245  0.61843  1.0000
  C   C607      1.0  0.26068  0.88052  0.63099  1.0000
  C   C608      1.0  0.27838  0.87091  0.62470  1.0000
  C   C609      1.0  0.28600  0.87360  0.60587  1.0000
  C   C610      1.0  0.27588  0.88572  0.59334  1.0000
  C   C611      1.0  0.25801  0.89491  0.59959  1.0000
  H   H1030     1.0  0.25482  0.87854  0.64557  1.0000
  H   H1031     1.0  0.28614  0.86156  0.63443  1.0000
  H   H1032     1.0  0.28180  0.88793  0.57878  1.0000
  H   H1033     1.0  0.25014  0.90392  0.58981  1.0000
  H   H1034     1.0  0.16218  0.81073  0.51685  1.0000
  H   H1035     1.0  0.27439  0.95842  0.52678  1.0000
  H   H1036     1.0  0.13200  0.74496  0.60629  1.0000
  H   H1037     1.0  0.05031  0.81406  0.69054  1.0000
  H   H1038     1.0  0.28353  0.74488  0.52887  1.0000
  C   C612      1.0  0.19684  0.87669  0.52594  1.0000
  C   C613      1.0  0.20043  0.90344  0.53483  1.0000
  C   C614      1.0  0.21865  0.89522  0.53584  1.0000
  C   C615      1.0  0.22591  0.87758  0.53218  1.0000
  C   C616      1.0  0.21488  0.86814  0.52765  1.0000
  H   H1039     1.0  0.23999  0.87119  0.53291  1.0000
  H   H1040     1.0  0.22057  0.85455  0.52483  1.0000
  C   C617      1.0  0.12006  0.77193  0.64134  1.0000
  C   C618      1.0  0.13729  0.77264  0.62974  1.0000
  C   C619      1.0  0.15147  0.75693  0.63027  1.0000
  C   C620      1.0  0.14836  0.74045  0.64227  1.0000
  C   C621      1.0  0.13116  0.73978  0.65386  1.0000
  C   C622      1.0  0.11710  0.75550  0.65351  1.0000
  H   H1041     1.0  0.13990  0.78545  0.62086  1.0000
  H   H1042     1.0  0.16483  0.75767  0.62164  1.0000
  H   H1043     1.0  0.12873  0.72708  0.66323  1.0000
  H   H1044     1.0  0.10388  0.75489  0.66257  1.0000
  C   C623      1.0  0.14185  0.86839  0.57743  1.0000
  C   C624      1.0  0.15801  0.87531  0.57035  1.0000
  C   C625      1.0  0.16134  0.88888  0.57767  1.0000
  C   C626      1.0  0.14826  0.89597  0.59182  1.0000
  C   C627      1.0  0.13227  0.88878  0.59915  1.0000
  C   C628      1.0  0.12914  0.87489  0.59211  1.0000
  H   H1045     1.0  0.16783  0.87039  0.55894  1.0000
  H   H1046     1.0  0.17367  0.89436  0.57187  1.0000
  H   H1047     1.0  0.12212  0.89419  0.61012  1.0000
  H   H1048     1.0  0.11664  0.86967  0.59764  1.0000
  H   H1049     1.0  0.04615  0.80569  0.59512  1.0000
  C   C629      1.0  0.07032  0.79004  0.52554  1.0000
  C   C630      1.0  0.08829  0.78386  0.51657  1.0000
  C   C631      1.0  0.10287  0.78063  0.52561  1.0000
  C   C632      1.0  0.09942  0.78406  0.54336  1.0000
  C   C633      1.0  0.08147  0.79030  0.55216  1.0000
  C   C634      1.0  0.06691  0.79296  0.54341  1.0000
  H   H1050     1.0  0.22254  0.82337  0.52160  1.0000
  H   H1051     1.0  0.11677  0.77575  0.51878  1.0000
  H   H1052     1.0  0.07867  0.79292  0.56581  1.0000
  H   H1053     1.0  0.05304  0.79766  0.55042  1.0000
  S   S207      1.0  0.18342  0.86597  0.51843  1.0000
  H   H1054     1.0  0.24398  0.75351  0.50300  1.0000
  H   H1055     1.0  0.17591  0.83443  0.57138  1.0000
  H   H1056     1.0  0.23815  0.73757  0.52378  1.0000
  H   H1057     1.0  0.27375  0.68352  0.52523  1.0000
  H   H1058     1.0  0.19481  0.91712  0.53746  1.0000
  C   C635      1.0  0.18435  0.82078  0.56927  1.0000
  C   C636      1.0  0.13140  0.86765  0.51806  1.0000
  H   H1059     1.0  0.04580  0.88514  0.49399  1.0000
  H   H1060     1.0  0.15156  0.84262  0.52011  1.0000
  H   H1061     1.0  0.22635  0.65781  0.72423  1.0000
  H   H1062     1.0  0.05101  0.84884  0.62163  1.0000
  H   H1063     1.0  0.11857  0.96055  0.50710  1.0000
  C   C637      1.0  0.25383  0.50834  0.73081  1.0000
  C   C638      1.0  0.04951  0.84037  0.63582  1.0000
  H   H1064     1.0  0.30253  0.86308  0.55628  1.0000
  C   C639      1.0  0.20820  0.49380  0.71001  1.0000
  H   H1065     1.0  0.99466  0.77452  0.57269  1.0000
  H   H1066     1.0  0.28101  0.72759  0.54925  1.0000
  S   S208      1.0  0.25861  0.83050  0.48936  1.0000
  C   C640      1.0  0.29585  0.71985  0.60041  1.0000
  H   H1067     1.0  0.22956  0.80011  0.52025  1.0000
  C   C641      1.0  0.31117  0.77589  0.56450  1.0000
  C   C642      1.0  0.15295  0.72442  0.54427  1.0000
  H   H1068     1.0  0.29239  0.73711  0.57371  1.0000
  C   C643      1.0  0.01812  0.80416  0.59709  1.0000
  H   H1069     1.0  0.21385  0.76326  0.55228  1.0000
  C   C644      1.0  0.00055  0.81389  0.59456  1.0000
  H   H1070     1.0  0.14051  0.76794  0.58231  1.0000
  H   H1071     1.0  0.11492  0.73175  0.61004  1.0000
  H   H1072     1.0  0.12535  0.74269  0.57062  1.0000
  H   H1073     1.0  0.03347  0.73788  0.57938  1.0000
  C   C645      1.0  0.29297  0.73576  0.62584  1.0000
  C   C646      1.0  0.13169  0.73341  0.58204  1.0000
  C   C647      1.0  0.15531  0.76271  0.57768  1.0000
  H   H1074     1.0  0.26181  0.73030  0.62061  1.0000
  H   H1075     1.0  0.29332  0.70764  0.59694  1.0000
  C   C648      1.0  0.17571  0.98236  0.48467  1.0000
  H   H1076     1.0  0.13903  0.87251  0.52576  1.0000
  H   H1077     1.0  0.99954  0.77243  0.52536  1.0000
  H   H1078     1.0  0.28675  0.49499  0.71257  1.0000
  C   C649      1.0  0.15850  0.71707  0.56318  1.0000
  C   C650      1.0  0.21107  0.51179  0.70278  1.0000
  C   C651      1.0  0.31206  0.74070  0.61830  1.0000
  H   H1079     1.0  0.99500  0.83315  0.64249  1.0000
  H   H1080     1.0  0.06483  0.81344  0.63349  1.0000
  H   H1081     1.0  0.25225  0.70727  0.65238  1.0000
  C   C652      1.0  0.10582  0.94415  0.55712  1.0000
  H   H1082     1.0  0.00734  0.81329  0.63362  1.0000
  H   H1083     1.0  0.27322  0.70888  0.65663  1.0000
  N   N40       1.0  0.01192  0.76273  0.54944  1.0000
  C   C653      1.0  0.01333  0.76806  0.52887  1.0000
  H   H1084     1.0  0.22259  0.97039  0.54321  1.0000
  C   C654      1.0  0.26991  0.94678  0.52451  1.0000
  C   C655      1.0  0.03087  0.75795  0.55354  1.0000
  C   C656      1.0  0.02453  0.75329  0.51777  1.0000
  C   C657      1.0  0.00941  0.79506  0.55520  1.0000
  H   H1085     1.0  0.00972  0.85696  0.58007  1.0000
  C   C658      1.0  0.03187  0.75296  0.57414  1.0000
  C   C659      1.0  0.03487  0.83947  0.52306  1.0000
  H   H1086     1.0  0.01957  0.78033  0.52296  1.0000
  H   H1087     1.0  0.29432  0.90463  0.63300  1.0000
  H   H1088     1.0  0.16228  0.75825  0.58946  1.0000
  H   H1089     1.0  0.30419  0.81533  0.56589  1.0000
  C   C660      1.0  0.99772  0.83289  0.58785  1.0000
  H   H1090     1.0  0.03926  0.74587  0.54773  1.0000
  H   H1091     1.0  0.03867  0.76899  0.54645  1.0000
  C   C661      1.0  0.26249  0.97711  0.48499  1.0000
  H   H1092     1.0  0.02678  0.87780  0.52234  1.0000
  H   H1093     1.0  0.21904  0.77457  0.52849  1.0000
  H   H1094     1.0  0.03883  0.84827  0.54678  1.0000
  C   C662      1.0  0.27766  0.86980  0.54668  1.0000
  H   H1095     1.0  0.06180  0.80026  0.66428  1.0000
  S   S209      1.0  0.30551  0.76809  0.53384  1.0000
  H   H1096     1.0  0.19694  0.64159  0.49478  1.0000
  H   H1097     1.0  0.25178  0.96465  0.55230  1.0000
  C   C663      1.0  0.23363  0.90903  0.48659  1.0000
  H   H1098     1.0  0.30049  0.82049  0.52994  1.0000
  H   H1099     1.0  0.04380  0.75753  0.57589  1.0000
  H   H1100     1.0  0.30603  0.86838  0.53236  1.0000
  C   C664      1.0  0.05723  0.77769  0.64399  1.0000
  C   C665      1.0  0.26263  0.70801  0.53788  1.0000
  H   H1101     1.0  0.01993  0.79159  0.56373  1.0000
  H   H1102     1.0  0.09091  0.78124  0.50287  1.0000
  H   H1103     1.0  0.21154  0.64211  0.72942  1.0000
  C   C666      1.0  0.04687  0.84436  0.53370  1.0000
  H   H1104     1.0  0.17373  0.74474  0.56062  1.0000
  H   H1105     1.0  0.19401  0.81673  0.57876  1.0000
  H   H1106     1.0  0.28093  0.83821  0.53225  1.0000
  S   S210      1.0  0.19481  0.58722  0.72593  1.0000
  H   H1107     1.0  0.26439  0.98399  0.50972  1.0000
  H   H1108     1.0  0.27646  0.88474  0.54070  1.0000
  H   H1109     1.0  0.01063  0.81028  0.66589  1.0000
  H   H1110     1.0  0.11247  0.75432  0.59612  1.0000
  C   C667      1.0  0.00496  0.83088  0.50977  1.0000
  C   C668      1.0  0.00016  0.77877  0.55771  1.0000
  H   H1111     1.0  0.29753  0.77345  0.57065  1.0000
  C   C669      1.0  0.10521  0.95758  0.51549  1.0000
  H   H1112     1.0  0.31134  0.73015  0.51894  1.0000
  H   H1113     1.0  0.12022  0.92606  0.57924  1.0000
  C   C670      1.0  0.24575  0.97874  0.54573  1.0000
  C   C671      1.0  0.27470  0.73505  0.53717  1.0000
  H   H1114     1.0  0.31084  0.71931  0.59537  1.0000
  H   H1115     1.0  0.28649  0.74985  0.59145  1.0000
  H   H1116     1.0  0.17371  0.71255  0.56037  1.0000
  H   H1117     1.0  0.19356  0.82596  0.51108  1.0000
  C   C672      1.0  0.04212  0.81910  0.67958  1.0000
  H   H1118     1.0  0.24859  0.71473  0.54349  1.0000
  N   N41       1.0  0.22674  0.84497  0.61688  1.0000
  C   C673      1.0  0.23656  0.84461  0.63174  1.0000
  C   C674      1.0  0.20722  0.85505  0.62220  1.0000
  C   C675      1.0  0.23590  0.85592  0.59923  1.0000
  C   C676      1.0  0.22822  0.82542  0.61528  1.0000
  C   C677      1.0  0.25712  0.83538  0.62890  1.0000
  C   C678      1.0  0.19619  0.84644  0.64078  1.0000
  C   C679      1.0  0.22836  0.85795  0.58191  1.0000
  C   C680      1.0  0.21354  0.82175  0.60690  1.0000
  H   H1119     1.0  0.23526  0.85880  0.63371  1.0000
  H   H1120     1.0  0.23020  0.83697  0.64525  1.0000
  H   H1121     1.0  0.19907  0.85667  0.61172  1.0000
  H   H1122     1.0  0.20698  0.86945  0.62292  1.0000
  H   H1123     1.0  0.23533  0.87005  0.60097  1.0000
  H   H1124     1.0  0.25068  0.84974  0.59552  1.0000
  H   H1125     1.0  0.24191  0.82025  0.60713  1.0000
  H   H1126     1.0  0.22745  0.81619  0.62916  1.0000
  H   H1127     1.0  0.26221  0.83456  0.64145  1.0000
  H   H1128     1.0  0.25956  0.82113  0.62693  1.0000
  H   H1129     1.0  0.26565  0.84337  0.61737  1.0000
  H   H1130     1.0  0.19774  0.83139  0.64258  1.0000
  H   H1131     1.0  0.20012  0.84949  0.65246  1.0000
  H   H1132     1.0  0.18139  0.85272  0.64156  1.0000
  H   H1133     1.0  0.23539  0.86749  0.57045  1.0000
  H   H1134     1.0  0.21353  0.86405  0.58347  1.0000
  H   H1135     1.0  0.23140  0.84465  0.57752  1.0000
  H   H1136     1.0  0.22014  0.81100  0.59860  1.0000
  H   H1137     1.0  0.20678  0.83370  0.59780  1.0000
  H   H1138     1.0  0.20297  0.81570  0.61791  1.0000
  H   H1139     1.0  0.02041  0.78944  0.60217  1.0000
  C   C681      1.0  0.26285  0.71584  0.64813  1.0000
  H   H1140     1.0  0.00217  0.84042  0.54390  1.0000
  H   H1141     1.0  0.28271  0.74795  0.62120  1.0000
  H   H1142     1.0  0.24121  0.81674  0.54205  1.0000
  H   H1143     1.0  0.05766  0.83215  0.53725  1.0000
  H   H1144     1.0  0.10487  0.95919  0.55196  1.0000
  H   H1145     1.0  0.18310  0.82704  0.54081  1.0000
  H   H1146     1.0  0.25655  0.72954  0.65164  1.0000
  C   C682      1.0  0.21173  0.68312  0.52102  1.0000
  H   H1147     1.0  0.24150  0.73155  0.50187  1.0000
  H   H1148     1.0  0.17338  0.62213  0.70713  1.0000
  H   H1149     1.0  0.24248  0.80548  0.56525  1.0000
  H   H1150     1.0  0.16308  0.69862  0.61606  1.0000
  H   H1151     1.0  0.23168  0.78644  0.55095  1.0000
  C   C683      1.0  0.01091  0.84954  0.50460  1.0000
  C   C684      1.0  0.02309  0.87276  0.51164  1.0000
  H   H1152     1.0  0.20102  0.83447  0.54530  1.0000
  N   N42       1.0  0.19252  0.66082  0.69963  1.0000
  C   C685      1.0  0.19397  0.66633  0.67904  1.0000
  C   C686      1.0  0.19115  0.64082  0.70521  1.0000
  C   C687      1.0  0.21002  0.66290  0.70360  1.0000
  C   C688      1.0  0.17603  0.67329  0.70868  1.0000
  C   C689      1.0  0.19814  0.68556  0.66979  1.0000
  C   C690      1.0  0.17544  0.63603  0.69943  1.0000
  H   H1153     1.0  0.13513  0.87399  0.50339  1.0000
  C   C691      1.0  0.31348  0.88325  0.64730  1.0000
  H   H1154     1.0  0.20479  0.65631  0.67209  1.0000
  H   H1155     1.0  0.18105  0.66606  0.67520  1.0000
  H   H1156     1.0  0.18957  0.63564  0.72023  1.0000
  H   H1157     1.0  0.06100  0.84107  0.64174  1.0000
  H   H1158     1.0  0.22212  0.65517  0.69522  1.0000
  H   H1159     1.0  0.09933  0.94013  0.58709  1.0000
  H   H1160     1.0  0.17942  0.68670  0.70813  1.0000
  H   H1161     1.0  0.16481  0.67661  0.70088  1.0000
  H   H1162     1.0  0.21261  0.68596  0.66913  1.0000
  H   H1163     1.0  0.19642  0.68873  0.65530  1.0000
  H   H1164     1.0  0.18864  0.69653  0.67653  1.0000
  H   H1165     1.0  0.18738  0.62185  0.50606  1.0000
  H   H1166     1.0  0.17594  0.90111  0.52764  1.0000
  H   H1167     1.0  0.23787  0.49046  0.72745  1.0000
  H   H1168     1.0  0.11909  0.95018  0.57653  1.0000
  H   H1169     1.0  0.15613  0.71285  0.53696  1.0000
  C   C692      1.0  0.02972  0.83247  0.58725  1.0000
  C   C693      1.0  0.13646  0.84652  0.52143  1.0000
  C   C694      1.0  0.15683  0.70283  0.60369  1.0000
  H   H1170     1.0  0.16107  0.73463  0.53537  1.0000
  H   H1171     1.0  0.03496  0.79453  0.63168  1.0000
  N   N43       1.0  0.29051  0.71890  0.62091  1.0000
  H   H1172     1.0  0.15195  0.75446  0.55464  1.0000
  H   H1173     1.0  0.21521  0.79294  0.56997  1.0000
  C   C695      1.0  0.22156  0.79845  0.55552  1.0000
  H   H1174     1.0  0.22404  0.82448  0.56107  1.0000
  C   C696      1.0  0.30239  0.84584  0.51004  1.0000
  S   S211      1.0  0.04718  0.84482  0.58400  1.0000
  C   C697      1.0  0.03272  0.81336  0.59317  1.0000
  C   C698      1.0  0.21711  0.81069  0.52386  1.0000
  H   H1175     1.0  0.13073  0.84156  0.53619  1.0000
  C   C699      1.0  0.15875  0.74772  0.56649  1.0000
  Fe  Fe108     1.0  0.30655  0.77816  0.50318  1.0000
  H   H1176     1.0  0.20416  0.63207  0.69932  1.0000
  S   S212      1.0  0.23169  0.60219  0.72534  1.0000
  C   C700      1.0  0.13552  0.94021  0.53457  1.0000
  H   H1177     1.0  0.27531  0.81576  0.55932  1.0000
  H   H1178     1.0  0.25724  0.87563  0.49644  1.0000
  H   H1179     1.0  0.15307  0.70426  0.56926  1.0000
  H   H1180     1.0  0.21195  0.70687  0.49897  1.0000
  N   N44       1.0  0.12984  0.83763  0.50961  1.0000
  C   C701      1.0  0.23251  0.97853  0.53379  1.0000
  H   H1181     1.0  0.27983  0.94126  0.51294  1.0000
  H   H1182     1.0  0.21472  0.94789  0.52530  1.0000
  H   H1183     1.0  0.13809  0.73037  0.54545  1.0000
  C   C702      1.0  0.14919  0.80750  0.52564  1.0000
  H   H1184     1.0  0.26918  0.96239  0.48661  1.0000
  C   C703      1.0  0.20789  0.77267  0.54069  1.0000
  H   H1185     1.0  0.99402  0.82969  0.52233  1.0000
  H   H1186     1.0  0.17903  0.63545  0.68460  1.0000
  C   C704      1.0  0.10965  0.84573  0.51026  1.0000
  H   H1187     1.0  0.18478  0.79596  0.53945  1.0000
  H   H1188     1.0  0.10233  0.84687  0.52453  1.0000
  C   C705      1.0  0.27580  0.82610  0.56692  1.0000
  C   C706      1.0  0.27057  0.71774  0.62721  1.0000
  N   N45       1.0  0.15235  0.73011  0.57641  1.0000
  C   C707      1.0  0.20798  0.52420  0.71447  1.0000
  H   H1189     1.0  0.99891  0.80676  0.55977  1.0000
  N   N46       1.0  0.20741  0.80563  0.54362  1.0000
  C   C708      1.0  0.19675  0.79089  0.54630  1.0000
  C   C709      1.0  0.23282  0.81231  0.55582  1.0000
  H   H1190     1.0  0.01976  0.75987  0.58300  1.0000
  H   H1191     1.0  0.12032  0.81430  0.52850  1.0000
  C   C710      1.0  0.30811  0.72227  0.51030  1.0000
  H   H1192     1.0  0.10764  0.86008  0.50209  1.0000
  C   C711      1.0  0.26751  0.73157  0.50854  1.0000
  H   H1193     1.0  0.13192  0.80983  0.50646  1.0000
  H   H1194     1.0  0.27124  0.73622  0.58990  1.0000
  C   C712      1.0  0.16184  0.72121  0.59236  1.0000
  H   H1195     1.0  0.17699  0.71859  0.58736  1.0000
  N   N47       1.0  0.03857  0.80939  0.65070  1.0000
  C   C713      1.0  0.28579  0.73679  0.58842  1.0000
  N   N48       1.0  0.11762  0.93379  0.54255  1.0000
  H   H1196     1.0  0.17473  0.81122  0.57319  1.0000
  H   H1197     1.0  0.12971  0.90880  0.56004  1.0000
  C   C714      1.0  0.05013  0.82035  0.63496  1.0000
  H   H1198     1.0  0.03938  0.75071  0.51781  1.0000
  C   C715      1.0  0.26066  0.69337  0.52838  1.0000
  C   C716      1.0  0.12130  0.91322  0.54940  1.0000
  C   C717      1.0  0.11168  0.93979  0.57582  1.0000
  H   H1199     1.0  0.12720  0.51266  0.72848  1.0000
  H   H1200     1.0  0.27207  0.72252  0.49827  1.0000
  H   H1201     1.0  0.04697  0.82062  0.62154  1.0000
  H   H1202     1.0  0.27065  0.86813  0.56139  1.0000
  N   N49       1.0  0.27405  0.72168  0.52608  1.0000
  H   H1203     1.0  0.04170  0.79218  0.67734  1.0000
  C   C718      1.0  0.15050  0.93347  0.54615  1.0000
  C   C719      1.0  0.04655  0.80439  0.66781  1.0000
  H   H1204     1.0  0.10864  0.88966  0.56266  1.0000
  H   H1205     1.0  0.01679  0.81931  0.51134  1.0000
  H   H1206     1.0  0.25905  0.75540  0.55326  1.0000
  N   N50       1.0  0.01829  0.85405  0.51895  1.0000
  C   C720      1.0  0.25332  0.98284  0.50358  1.0000
  C   C721      1.0  0.03822  0.87462  0.49399  1.0000
  H   H1207     1.0  0.09672  0.82220  0.51320  1.0000
  H   H1208     1.0  0.12977  0.90615  0.53812  1.0000
  C   C722      1.0  0.24663  0.73874  0.50978  1.0000
  H   H1209     1.0  0.31729  0.70157  0.62281  1.0000
  H   H1210     1.0  0.16252  0.93966  0.53847  1.0000
  C   C723      1.0  0.13962  0.84163  0.48981  1.0000
  Fe  Fe109     1.0  0.17155  0.88744  0.49640  1.0000
  H   H1211     1.0  0.26834  0.70062  0.55035  1.0000
  C   C724      1.0  0.00315  0.74622  0.55757  1.0000
  C   C725      1.0  0.26299  0.50412  0.68825  1.0000
  C   C726      1.0  0.01877  0.81917  0.65469  1.0000
  H   H1212     1.0  0.09134  0.94248  0.56005  1.0000
  H   H1213     1.0  0.01703  0.83168  0.66010  1.0000
  H   H1214     1.0  0.27021  0.86498  0.53891  1.0000
  H   H1215     1.0  0.29528  0.84245  0.50079  1.0000
  H   H1216     1.0  0.19876  0.76584  0.53679  1.0000
  C   C727      1.0  0.29338  0.71093  0.52107  1.0000
  H   H1217     1.0  0.09545  0.91044  0.56950  1.0000
  H   H1218     1.0  0.99919  0.86047  0.50061  1.0000
  H   H1219     1.0  0.04391  0.83544  0.51031  1.0000
  H   H1220     1.0  0.06106  0.77185  0.65760  1.0000
  H   H1221     1.0  0.01567  0.79987  0.54071  1.0000
  H   H1222     1.0  0.01620  0.83434  0.62649  1.0000
  C   C728      1.0  0.10417  0.90464  0.55758  1.0000
  H   H1223     1.0  0.23056  0.96631  0.49457  1.0000
  C   C729      1.0  0.29819  0.68350  0.63109  1.0000
  C   C730      1.0  0.32313  0.85523  0.67972  1.0000
  H   H1224     1.0  0.05595  0.76601  0.63867  1.0000
  H   H1225     1.0  0.09603  0.90599  0.54714  1.0000
  C   C731      1.0  0.10730  0.93783  0.52715  1.0000
  H   H1226     1.0  0.16086  0.77465  0.56860  1.0000
  H   H1227     1.0  0.27546  0.88850  0.48603  1.0000
  H   H1228     1.0  0.11394  0.92846  0.51736  1.0000
  H   H1229     1.0  0.15941  0.73022  0.60224  1.0000
  N   N51       1.0  0.24079  0.97082  0.51662  1.0000
  H   H1230     1.0  0.25085  0.68512  0.53791  1.0000
  C   C732      1.0  0.30271  0.70224  0.63006  1.0000
  H   H1231     1.0  0.20064  0.80195  0.50911  1.0000
  H   H1232     1.0  0.02321  0.75848  0.50318  1.0000
  H   H1233     1.0  0.03647  0.84731  0.64334  1.0000
  C   C733      1.0  0.01221  0.84216  0.58447  1.0000
  H   H1234     1.0  0.29018  0.73436  0.64105  1.0000
  H   H1235     1.0  0.15561  0.65944  0.72940  1.0000
  H   H1236     1.0  0.29390  0.70123  0.51230  1.0000
  H   H1237     1.0  0.25109  0.75758  0.53290  1.0000
  H   H1238     1.0  0.08514  0.84375  0.50225  1.0000
  H   H1239     1.0  0.14198  0.93582  0.52123  1.0000
  H   H1240     1.0  0.16212  0.51246  0.72498  1.0000
  H   H1241     1.0  0.03067  0.82651  0.53138  1.0000
  H   H1242     1.0  0.29827  0.70231  0.53364  1.0000
  H   H1243     1.0  0.05405  0.85549  0.52531  1.0000
  C   C734      1.0  0.25008  0.95088  0.52131  1.0000
  H   H1244     1.0  0.02749  0.82140  0.68669  1.0000
  H   H1245     1.0  0.21146  0.67751  0.69957  1.0000
  H   H1246     1.0  0.02838  0.78434  0.65522  1.0000
  H   H1247     1.0  0.24592  0.73958  0.55294  1.0000
  S   S213      1.0  0.23587  0.56100  0.71718  1.0000
  H   H1248     1.0  0.11658  0.87264  0.52325  1.0000
  H   H1249     1.0  0.29754  0.68152  0.61750  1.0000
  H   H1250     1.0  0.06858  0.78363  0.63436  1.0000
  H   H1251     1.0  0.01089  0.88322  0.50812  1.0000
  H   H1252     1.0  0.04578  0.83228  0.67168  1.0000
  H   H1253     1.0  0.30272  0.70309  0.64431  1.0000
  H   H1254     1.0  0.24177  0.94366  0.53387  1.0000
  H   H1255     1.0  0.16228  0.64582  0.70238  1.0000
  C   C735      1.0  0.20965  0.96229  0.51874  1.0000
  H   H1256     1.0  0.25506  0.69957  0.51573  1.0000
  C   C736      1.0  0.21241  0.65668  0.72368  1.0000
  C   C737      1.0  0.03880  0.79171  0.64530  1.0000
  C   C738      1.0  0.25645  0.74737  0.54435  1.0000
  H   H1257     1.0  0.31516  0.74452  0.60307  1.0000
  H   H1258     1.0  0.02131  0.84938  0.49161  1.0000
  H   H1259     1.0  0.28510  0.68166  0.64087  1.0000
  H   H1260     1.0  0.27149  0.82034  0.58178  1.0000
  H   H1261     1.0  0.23780  0.98576  0.55716  1.0000
  H   H1262     1.0  0.21393  0.81835  0.49544  1.0000
  H   H1263     1.0  0.00912  0.85966  0.54643  1.0000
  H   H1264     1.0  0.27116  0.93570  0.53695  1.0000
  H   H1265     1.0  0.26574  0.83883  0.56337  1.0000
  H   H1266     1.0  0.29868  0.86096  0.50871  1.0000
  H   H1267     1.0  0.01250  0.73355  0.55364  1.0000
  C   C739      1.0  0.32160  0.77959  0.57521  1.0000
  C   C740      1.0  0.20538  0.81436  0.50927  1.0000
  C   C741      1.0  0.29548  0.82934  0.56331  1.0000
  H   H1268     1.0  0.01949  0.74026  0.52257  1.0000
  H   H1269     1.0  0.14626  0.93771  0.55955  1.0000
  H   H1270     1.0  0.27412  0.74355  0.50208  1.0000
  C   C742      1.0  0.29610  0.83554  0.52983  1.0000
  S   S214      1.0  0.27887  0.78046  0.49738  1.0000
  N   N52       1.0  0.30284  0.84012  0.54462  1.0000
  H   H1271     1.0  0.25062  0.94371  0.51021  1.0000
  C   C743      1.0  0.20246  0.48829  0.72900  1.0000
  H   H1272     1.0  0.13318  0.95550  0.53140  1.0000
  C   C744      1.0  0.31829  0.77523  0.54590  1.0000
  H   H1273     1.0  0.19384  0.98483  0.60749  1.0000
  H   H1274     1.0  0.30895  0.89088  0.65876  1.0000
  H   H1275     1.0  0.30909  0.67229  0.63633  1.0000
  H   H1276     1.0  0.20073  0.97002  0.52927  1.0000
  H   H1277     1.0  0.22901  0.93639  0.49255  1.0000
  H   H1278     1.0  0.31609  0.77958  0.58963  1.0000
  H   H1279     1.0  0.30427  0.73160  0.49766  1.0000
  C   C745      1.0  0.25157  0.48899  0.73042  1.0000
  C   C746      1.0  0.16023  0.83327  0.48528  1.0000
  H   H1280     1.0  0.30931  0.88965  0.61883  1.0000
  Fe  Fe110     1.0  0.31615  0.83406  0.61484  1.0000
  H   H1281     1.0  0.13790  0.77287  0.48330  1.0000
  H   H1282     1.0  0.30402  0.87351  0.65046  1.0000
  H   H1283     1.0  0.00073  0.74342  0.57287  1.0000
  C   C747      1.0  0.09895  0.83517  0.50335  1.0000
  H   H1284     1.0  0.30854  0.86232  0.68095  1.0000
  C   C748      1.0  0.22534  0.97208  0.50723  1.0000
  H   H1285     1.0  0.32109  0.71274  0.50582  1.0000
  H   H1286     1.0  0.13394  0.48862  0.72924  1.0000
  H   H1287     1.0  0.26189  0.51547  0.71824  1.0000
  H   H1288     1.0  0.31730  0.84139  0.50485  1.0000
  H   H1289     1.0  0.21047  0.92498  0.50250  1.0000
  H   H1290     1.0  0.13763  0.85659  0.48395  1.0000
  S   S215      1.0  0.14568  0.90873  0.49770  1.0000
  H   H1291     1.0  0.09639  0.95898  0.50559  1.0000
  H   H1292     1.0  0.04874  0.86190  0.49287  1.0000
  S   S216      1.0  0.15734  0.95612  0.48508  1.0000
  H   H1293     1.0  0.16794  0.83593  0.49432  1.0000
  S   S217      1.0  0.30908  0.80665  0.48784  1.0000
  C   C749      1.0  0.00421  0.85450  0.53665  1.0000
  H   H1294     1.0  0.26147  0.50573  0.67388  1.0000
  H   H1295     1.0  0.31755  0.90717  0.62412  1.0000
  H   H1296     1.0  0.22472  0.89892  0.48890  1.0000
  H   H1297     1.0  0.32308  0.72945  0.62314  1.0000
  H   H1298     1.0  0.31227  0.75294  0.62340  1.0000
  H   H1299     1.0  0.20920  0.60256  0.48608  1.0000
  H   H1300     1.0  0.22067  0.61290  0.49664  1.0000
  H   H1301     1.0  0.10560  0.83210  0.48959  1.0000
  H   H1302     1.0  0.24965  0.59016  0.48651  1.0000
  C   C750      1.0  0.19437  0.62885  0.49254  1.0000
  C   C751      1.0  0.21243  0.61596  0.48582  1.0000
  H   H1303     1.0  0.32329  0.84088  0.68758  1.0000
  Fe  Fe111     1.0  0.05821  0.80116  0.48436  1.0000
  C   C752      1.0  0.26702  0.87999  0.48358  1.0000
  H   H1304     1.0  0.20262  0.66576  0.73252  1.0000
  H   H1305     1.0  0.18472  0.63239  0.48307  1.0000
  Fe  Fe112     1.0  0.08487  0.56321  0.85222  1.0000
  S   S218      1.0  0.09328  0.56702  0.82153  1.0000
  Fe  Fe113     1.0  0.12431  0.55964  0.85709  1.0000
  S   S219      1.0  0.13517  0.56338  0.82669  1.0000
  S   S220      1.0  0.14853  0.55279  0.87108  1.0000
  Fe  Fe114     1.0  0.11023  0.58556  0.82417  1.0000
  S   S221      1.0  0.11044  0.61358  0.80627  1.0000
  Fe  Fe115     1.0  0.11728  0.54451  0.82725  1.0000
  S   S222      1.0  0.12878  0.52042  0.81364  1.0000
  S   S223      1.0  0.10044  0.58350  0.85460  1.0000
  S   S224      1.0  0.10780  0.53908  0.85782  1.0000
  Fe  Fe116     1.0  0.17647  0.57505  0.95183  1.0000
  S   S225      1.0  0.20452  0.56912  0.93444  1.0000
  S   S226      1.0  0.15028  0.58121  0.94104  1.0000
  H   H1306     1.0  0.11966  0.52431  0.75493  1.0000
  H   H1307     1.0  0.30050  0.49617  0.86321  1.0000
  Fe  Fe117     1.0  0.21208  0.58656  0.94944  1.0000
  S   S227      1.0  0.22974  0.60586  0.93083  1.0000
  Fe  Fe118     1.0  0.21083  0.54653  0.95818  1.0000
  S   S228      1.0  0.22618  0.51814  0.95545  1.0000
  S   S229      1.0  0.18331  0.59459  0.96530  1.0000
  Fe  Fe119     1.0  0.24306  0.57293  0.73763  1.0000
  S   S230      1.0  0.21776  0.56916  0.75905  1.0000
  C   C753      1.0  0.01275  0.56683  0.83285  1.0000
  H   H1308     1.0  0.23844  0.50712  0.82441  1.0000
  S   S231      1.0  0.30539  0.60012  0.84249  1.0000
  S   S232      1.0  0.30329  0.56237  0.88920  1.0000
  C   C754      1.0  0.27473  0.53165  0.81483  1.0000
  H   H1309     1.0  0.18017  0.51084  0.97274  1.0000
  C   C755      1.0  0.04278  0.49890  0.85208  1.0000
  H   H1310     1.0  0.26029  0.54449  0.79270  1.0000
  H   H1311     1.0  0.29809  0.55786  0.76715  1.0000
  Fe  Fe120     1.0  0.29831  0.58730  0.82272  1.0000
  S   S233      1.0  0.27220  0.59802  0.81190  1.0000
  C   C756      1.0  0.31324  0.63852  0.86073  1.0000
  S   S234      1.0  0.30200  0.55908  0.84022  1.0000
  H   H1312     1.0  0.26698  0.54364  0.85599  1.0000
  H   H1313     1.0  0.20238  0.57081  0.81486  1.0000
  H   H1314     1.0  0.01633  0.60333  0.80499  1.0000
  N   N53       1.0  0.24985  0.54050  0.88331  1.0000
  S   S235      1.0  0.18956  0.62014  0.75967  1.0000
  H   H1315     1.0  0.24437  0.58004  0.86722  1.0000
  H   H1316     1.0  0.06124  0.60602  0.85615  1.0000
  H   H1317     1.0  0.27012  0.50316  0.88122  1.0000
  C   C757      1.0  0.21825  0.50923  0.94088  1.0000
  C   C758      1.0  0.07157  0.60801  0.78790  1.0000
  H   H1318     1.0  0.04005  0.64339  0.82073  1.0000
  H   H1319     1.0  0.13303  0.54966  0.94506  1.0000
  H   H1320     1.0  0.24367  0.58971  0.76530  1.0000
  C   C759      1.0  0.27077  0.57280  0.76454  1.0000
  C   C760      1.0  0.28634  0.56767  0.77241  1.0000
  C   C761      1.0  0.28681  0.57525  0.78706  1.0000
  C   C762      1.0  0.27180  0.58818  0.79372  1.0000
  C   C763      1.0  0.25623  0.59328  0.78589  1.0000
  C   C764      1.0  0.25569  0.58558  0.77135  1.0000
  H   H1321     1.0  0.29886  0.57119  0.79306  1.0000
  H   H1322     1.0  0.24464  0.60335  0.79094  1.0000
  C   C765      1.0  0.08190  0.51633  0.80209  1.0000
  C   C766      1.0  0.25414  0.55097  0.86376  1.0000
  C   C767      1.0  0.24390  0.52329  0.88326  1.0000
  H   H1323     1.0  0.01582  0.56830  0.87594  1.0000
  H   H1324     1.0  0.19500  0.49614  0.75535  1.0000
  Fe  Fe121     1.0  0.20558  0.59730  0.74515  1.0000
  C   C768      1.0  0.25686  0.57073  0.86144  1.0000
  C   C769      1.0  0.24992  0.59368  0.91903  1.0000
  C   C770      1.0  0.25845  0.57642  0.92761  1.0000
  C   C771      1.0  0.27491  0.56704  0.91838  1.0000
  C   C772      1.0  0.28258  0.57454  0.90028  1.0000
  C   C773      1.0  0.27376  0.59153  0.89145  1.0000
  C   C774      1.0  0.25764  0.60125  0.90094  1.0000
  H   H1325     1.0  0.25263  0.57053  0.94159  1.0000
  H   H1326     1.0  0.28165  0.55389  0.92528  1.0000
  H   H1327     1.0  0.27939  0.59727  0.87739  1.0000
  H   H1328     1.0  0.25099  0.61454  0.89420  1.0000
  H   H1329     1.0  0.28943  0.48723  0.77632  1.0000
  H   H1330     1.0  0.99472  0.48868  0.82128  1.0000
  S   S236      1.0  0.26995  0.56238  0.74694  1.0000
  H   H1331     1.0  0.04753  0.50738  0.85897  1.0000
  H   H1332     1.0  0.18719  0.50503  0.83129  1.0000
  C   C775      1.0  0.13195  0.61524  0.79193  1.0000
  C   C776      1.0  0.13737  0.63217  0.78692  1.0000
  C   C777      1.0  0.15499  0.63357  0.77668  1.0000
  C   C778      1.0  0.16715  0.61814  0.77107  1.0000
  C   C779      1.0  0.16155  0.60131  0.77546  1.0000
  C   C780      1.0  0.14395  0.59984  0.78602  1.0000
  H   H1333     1.0  0.12812  0.64410  0.79142  1.0000
  H   H1334     1.0  0.15930  0.64659  0.77331  1.0000
  H   H1335     1.0  0.17087  0.58937  0.77104  1.0000
  H   H1336     1.0  0.13967  0.58682  0.78950  1.0000
  C   C781      1.0  0.14898  0.56235  0.88948  1.0000
  C   C782      1.0  0.13343  0.57327  0.89819  1.0000
  C   C783      1.0  0.13417  0.57955  0.91363  1.0000
  C   C784      1.0  0.15043  0.57499  0.92038  1.0000
  C   C785      1.0  0.16607  0.56445  0.91135  1.0000
  C   C786      1.0  0.16534  0.55820  0.89592  1.0000
  H   H1337     1.0  0.12074  0.57653  0.89332  1.0000
  H   H1338     1.0  0.12199  0.58765  0.92062  1.0000
  H   H1339     1.0  0.17850  0.56058  0.91665  1.0000
  H   H1340     1.0  0.17733  0.54967  0.88924  1.0000
  C   C787      1.0  0.11058  0.51173  0.81187  1.0000
  C   C788      1.0  0.09582  0.52354  0.80471  1.0000
  H   H1341     1.0  0.19651  0.48844  0.85848  1.0000
  H   H1342     1.0  0.99390  0.53189  0.86134  1.0000
  H   H1343     1.0  0.01165  0.51796  0.87338  1.0000
  H   H1344     1.0  0.09542  0.53815  0.80063  1.0000
  C   C789      1.0  0.15907  0.51024  0.84827  1.0000
  H   H1345     1.0  0.17505  0.52837  0.82763  1.0000
  H   H1346     1.0  0.22906  0.50726  0.79901  1.0000
  S   S237      1.0  0.18221  0.55083  0.97457  1.0000
  H   H1347     1.0  0.05223  0.59124  0.80433  1.0000
  H   H1348     1.0  0.03884  0.51286  0.82510  1.0000
  H   H1349     1.0  0.05876  0.59217  0.83192  1.0000
  H   H1350     1.0  0.10741  0.49594  0.96971  1.0000
  C   C790      1.0  0.17354  0.51385  0.83043  1.0000
  H   H1351     1.0  0.99875  0.53322  0.83141  1.0000
  C   C791      1.0  0.25108  0.49650  0.82517  1.0000
  C   C792      1.0  0.26555  0.52406  0.91087  1.0000
  H   H1352     1.0  0.08224  0.60157  0.79616  1.0000
  H   H1353     1.0  0.07486  0.60061  0.77641  1.0000
  C   C793      1.0  0.00709  0.56823  0.85134  1.0000
  H   H1354     1.0  0.07258  0.62251  0.78169  1.0000
  C   C794      1.0  0.14692  0.52508  0.75559  1.0000
  Fe  Fe122     1.0  0.31171  0.57136  0.85852  1.0000
  C   C795      1.0  0.13235  0.50103  0.88353  1.0000
  H   H1355     1.0  0.22454  0.52328  0.77871  1.0000
  C   C796      1.0  0.05736  0.60734  0.82876  1.0000
  C   C797      1.0  0.30721  0.62633  0.87955  1.0000
  C   C798      1.0  0.28490  0.51511  0.78203  1.0000
  C   C799      1.0  0.02587  0.61391  0.82426  1.0000
  H   H1356     1.0  0.00117  0.53390  0.79897  1.0000
  H   H1357     1.0  0.26198  0.51067  0.91204  1.0000
  H   H1358     1.0  0.99262  0.57142  0.85731  1.0000
  H   H1359     1.0  0.14800  0.48856  0.83196  1.0000
  H   H1360     1.0  0.25249  0.49735  0.87399  1.0000
  H   H1361     1.0  0.19432  0.52223  0.90639  1.0000
  N   N54       1.0  0.17562  0.59868  0.83246  1.0000
  C   C800      1.0  0.15791  0.60351  0.84596  1.0000
  H   H1362     1.0  0.26028  0.57670  0.84656  1.0000
  C   C801      1.0  0.17333  0.58431  0.82348  1.0000
  C   C802      1.0  0.17914  0.61582  0.81837  1.0000
  C   C803      1.0  0.14041  0.61103  0.83788  1.0000
  C   C804      1.0  0.04629  0.63626  0.80902  1.0000
  C   C805      1.0  0.18983  0.57701  0.80920  1.0000
  C   C806      1.0  0.19928  0.61624  0.80839  1.0000
  H   H1363     1.0  0.15539  0.59135  0.85710  1.0000
  H   H1364     1.0  0.15866  0.61423  0.85298  1.0000
  H   H1365     1.0  0.01101  0.62817  0.80158  1.0000
  C   C807      1.0  0.25868  0.50897  0.87383  1.0000
  H   H1366     1.0  0.16193  0.58975  0.81592  1.0000
  H   H1367     1.0  0.17089  0.61856  0.80764  1.0000
  H   H1368     1.0  0.17436  0.62802  0.82496  1.0000
  H   H1369     1.0  0.14189  0.62267  0.82600  1.0000
  H   H1370     1.0  0.13613  0.60011  0.83393  1.0000
  H   H1371     1.0  0.12891  0.61616  0.84861  1.0000
  C   C808      1.0  0.20244  0.51338  0.91606  1.0000
  H   H1372     1.0  0.19266  0.61743  0.84743  1.0000
  H   H1373     1.0  0.27054  0.54870  0.89193  1.0000
  H   H1374     1.0  0.18639  0.56601  0.80448  1.0000
  H   H1375     1.0  0.19939  0.62419  0.79408  1.0000
  H   H1376     1.0  0.20834  0.60275  0.80717  1.0000
  H   H1377     1.0  0.20551  0.62394  0.81479  1.0000
  C   C809      1.0  0.03014  0.51153  0.83916  1.0000
  H   H1378     1.0  0.21000  0.54771  0.88814  1.0000
  C   C810      1.0  0.29796  0.61371  0.91972  1.0000
  H   H1379     1.0  0.23922  0.56386  0.89668  1.0000
  H   H1380     1.0  0.28778  0.53507  0.80604  1.0000
  C   C811      1.0  0.03908  0.56313  0.85399  1.0000
  H   H1381     1.0  0.16465  0.48846  0.75282  1.0000
  C   C812      1.0  0.08256  0.49738  0.80707  1.0000
  H   H1382     1.0  0.05024  0.62831  0.84602  1.0000
  C   C813      1.0  0.02025  0.56649  0.86185  1.0000
  H   H1383     1.0  0.20684  0.59796  0.85882  1.0000
  H   H1384     1.0  0.16066  0.51624  0.75574  1.0000
  C   C814      1.0  0.31313  0.60290  0.90673  1.0000
  H   H1385     1.0  0.16953  0.57223  0.83413  1.0000
  C   C815      1.0  0.13124  0.51446  0.76050  1.0000
  H   H1386     1.0  0.14751  0.52514  0.97703  1.0000
  H   H1387     1.0  0.29837  0.61786  0.87754  1.0000
  H   H1388     1.0  0.03615  0.48880  0.86306  1.0000
  H   H1389     1.0  0.03779  0.60964  0.85520  1.0000
  C   C816      1.0  0.23465  0.55187  0.89490  1.0000
  H   H1390     1.0  0.16639  0.49441  0.97581  1.0000
  C   C817      1.0  0.99876  0.51809  0.86935  1.0000
  H   H1391     1.0  0.05902  0.55734  0.82980  1.0000
  H   H1392     1.0  0.23859  0.51628  0.89750  1.0000
  C   C818      1.0  0.11425  0.54096  0.96993  1.0000
  C   C819      1.0  0.23230  0.52024  0.78990  1.0000
  H   H1393     1.0  0.12607  0.51246  0.77561  1.0000
  H   H1394     1.0  0.27917  0.52107  0.91466  1.0000
  C   C820      1.0  0.19923  0.50065  0.74065  1.0000
  H   H1395     1.0  0.02690  0.52568  0.84187  1.0000
  H   H1396     1.0  0.20397  0.58619  0.83474  1.0000
  H   H1397     1.0  0.02346  0.52883  0.80381  1.0000
  H   H1398     1.0  0.30691  0.59275  0.90367  1.0000
  C   C821      1.0  0.04464  0.56063  0.83583  1.0000
  H   H1399     1.0  0.14604  0.51940  0.84506  1.0000
  C   C822      1.0  0.14174  0.51931  0.91885  1.0000
  H   H1400     1.0  0.25687  0.49698  0.83685  1.0000
  C   C823      1.0  0.01245  0.61522  0.81189  1.0000
  H   H1401     1.0  0.25603  0.50617  0.77434  1.0000
  H   H1402     1.0  0.02606  0.60017  0.83360  1.0000
  C   C824      1.0  0.05221  0.60618  0.79916  1.0000
  H   H1403     1.0  0.14544  0.49071  0.96104  1.0000
  H   H1404     1.0  0.22707  0.53192  0.79707  1.0000
  H   H1405     1.0  0.19250  0.58785  0.79674  1.0000
  H   H1406     1.0  0.14699  0.53468  0.74205  1.0000
  C   C825      1.0  0.10064  0.49754  0.75702  1.0000
  C   C826      1.0  0.03154  0.56275  0.82524  1.0000
  C   C827      1.0  0.00191  0.51978  0.82721  1.0000
  C   C828      1.0  0.15471  0.52281  0.96306  1.0000
  C   C829      1.0  0.13726  0.49132  0.86709  1.0000
  H   H1407     1.0  0.01926  0.62408  0.83325  1.0000
  C   C830      1.0  0.21660  0.55907  0.88770  1.0000
  H   H1408     1.0  0.18276  0.60273  0.86804  1.0000
  H   H1409     1.0  0.20685  0.56824  0.89647  1.0000
  H   H1410     1.0  0.07152  0.60988  0.82319  1.0000
  H   H1411     1.0  0.28512  0.61884  0.91427  1.0000
  H   H1412     1.0  0.27897  0.52915  0.88211  1.0000
  H   H1413     1.0  0.13269  0.53291  0.91548  1.0000
  H   H1414     1.0  0.07067  0.52540  0.79619  1.0000
  C   C831      1.0  0.19319  0.60302  0.85501  1.0000
  H   H1415     1.0  0.06078  0.63808  0.80548  1.0000
  H   H1416     1.0  0.29802  0.63607  0.88810  1.0000
  H   H1417     1.0  0.25455  0.53039  0.76999  1.0000
  C   C832      1.0  0.19046  0.59047  0.84350  1.0000
  H   H1418     1.0  0.11767  0.53777  0.94237  1.0000
  H   H1419     1.0  0.15011  0.49135  0.78604  1.0000
  S   S238      1.0  0.05518  0.56346  0.86667  1.0000
  H   H1420     1.0  0.04313  0.61064  0.78907  1.0000
  C   C833      1.0  0.15250  0.51840  0.93355  1.0000
  H   H1421     1.0  0.23222  0.52664  0.87611  1.0000
  H   H1422     1.0  0.18752  0.57752  0.85320  1.0000
  H   H1423     1.0  0.26840  0.57102  0.86742  1.0000
  H   H1424     1.0  0.09553  0.51094  0.76137  1.0000
  C   C834      1.0  0.31532  0.48793  0.81988  1.0000
  C   C835      1.0  0.26684  0.53594  0.89124  1.0000
  H   H1425     1.0  0.26412  0.51466  0.85923  1.0000
  H   H1426     1.0  0.16046  0.53536  0.95599  1.0000
  H   H1427     1.0  0.01388  0.51083  0.80064  1.0000
  H   H1428     1.0  0.15176  0.51738  0.90587  1.0000
  S   S239      1.0  0.19801  0.53351  0.74864  1.0000
  H   H1429     1.0  0.16896  0.51224  0.81843  1.0000
  C   C836      1.0  0.25288  0.51805  0.78119  1.0000
  C   C837      1.0  0.01087  0.52326  0.80655  1.0000
  C   C838      1.0  0.30737  0.49774  0.84893  1.0000
  H   H1430     1.0  0.23105  0.54385  0.90906  1.0000
  C   C839      1.0  0.20733  0.52066  0.92870  1.0000
  H   H1431     1.0  0.21859  0.56730  0.87354  1.0000
  C   C840      1.0  0.29167  0.50119  0.76919  1.0000
  H   H1432     1.0  0.25573  0.53147  0.92121  1.0000
  H   H1433     1.0  0.24743  0.53267  0.81221  1.0000
  H   H1434     1.0  0.24333  0.55176  0.85618  1.0000
  C   C841      1.0  0.00123  0.50271  0.85882  1.0000
  H   H1435     1.0  0.27774  0.51843  0.82457  1.0000
  H   H1436     1.0  0.29537  0.51204  0.79065  1.0000
  N   N55       1.0  0.15655  0.49063  0.85588  1.0000
  H   H1437     1.0  0.20288  0.53510  0.92880  1.0000
  C   C842      1.0  0.12683  0.53739  0.95150  1.0000
  H   H1438     1.0  0.16264  0.50522  0.93393  1.0000
  N   N56       1.0  0.13517  0.49667  0.75397  1.0000
  N   N57       1.0  0.14167  0.52023  0.95262  1.0000
  C   C843      1.0  0.05102  0.61344  0.84746  1.0000
  N   N58       1.0  0.04520  0.61623  0.81491  1.0000
  H   H1439     1.0  0.16249  0.51586  0.85871  1.0000
  S   S240      1.0  0.22087  0.56329  0.97198  1.0000
  C   C844      1.0  0.26119  0.53141  0.80315  1.0000
  H   H1440     1.0  0.28584  0.52895  0.77317  1.0000
  C   C845      1.0  0.03681  0.64779  0.79313  1.0000
  H   H1441     1.0  0.02239  0.65415  0.79851  1.0000
  H   H1442     1.0  0.03708  0.64008  0.78271  1.0000
  H   H1443     1.0  0.04428  0.65896  0.78546  1.0000
  H   H1444     1.0  0.16073  0.52930  0.92784  1.0000
  H   H1445     1.0  0.14497  0.53322  0.76627  1.0000
  H   H1446     1.0  0.03601  0.56139  0.81101  1.0000
  H   H1447     1.0  0.26872  0.54267  0.82286  1.0000
  H   H1448     1.0  0.13516  0.51510  0.87959  1.0000
  H   H1449     1.0  0.30236  0.62521  0.92249  1.0000
  H   H1450     1.0  0.99862  0.61449  0.82067  1.0000
  S   S241      1.0  0.99704  0.57181  0.81824  1.0000
  C   C846      1.0  0.13443  0.50309  0.96264  1.0000
  H   H1451     1.0  0.29441  0.60426  0.93311  1.0000
  N   N59       1.0  0.26590  0.51522  0.79387  1.0000
  H   H1452     1.0  0.12192  0.48823  0.94979  1.0000
  N   N60       1.0  0.01296  0.50526  0.83969  1.0000
  H   H1453     1.0  0.11044  0.51175  0.94841  1.0000
  H   H1454     1.0  0.17954  0.50263  0.95340  1.0000
  H   H1455     1.0  0.28507  0.50604  0.75708  1.0000
  C   C847      1.0  0.20193  0.51863  0.73343  1.0000
  C   C848      1.0  0.26600  0.49700  0.80729  1.0000
  C   C849      1.0  0.20776  0.49456  0.91623  1.0000
  C   C850      1.0  0.11770  0.49985  0.95713  1.0000
  H   H1456     1.0  0.13397  0.50819  0.92247  1.0000
  C   C851      1.0  0.11122  0.49280  0.81685  1.0000
  C   C852      1.0  0.31804  0.51123  0.84138  1.0000
  C   C853      1.0  0.17101  0.50662  0.96625  1.0000
  S   S242      1.0  0.06567  0.48832  0.80303  1.0000
  C   C854      1.0  0.01836  0.48718  0.83349  1.0000
  H   H1457     1.0  0.30087  0.64567  0.85490  1.0000
  H   H1458     1.0  0.05508  0.49117  0.84403  1.0000
  H   H1459     1.0  0.27933  0.49214  0.81189  1.0000
  H   H1460     1.0  0.11745  0.50219  0.88947  1.0000
  H   H1461     1.0  0.13091  0.50240  0.97778  1.0000
  H   H1462     1.0  0.13958  0.49281  0.89468  1.0000
  H   H1463     1.0  0.12703  0.49811  0.85817  1.0000
  H   H1464     1.0  0.02827  0.48806  0.82011  1.0000
  N   N61       1.0  0.32218  0.61413  0.88913  1.0000
  H   H1465     1.0  0.31942  0.51986  0.84989  1.0000
  H   H1466     1.0  0.32238  0.63061  0.85051  1.0000
  C   C855      1.0  0.22321  0.49038  0.94127  1.0000
  H   H1467     1.0  0.30665  0.50015  0.76379  1.0000
  H   H1468     1.0  0.00654  0.48945  0.86761  1.0000
  H   H1469     1.0  0.10140  0.49938  0.74207  1.0000
  H   H1470     1.0  0.25972  0.50775  0.74271  1.0000
  H   H1471     1.0  0.31956  0.64944  0.86207  1.0000
  C   C856      1.0  0.11903  0.48738  0.76270  1.0000
  H   H1472     1.0  0.10279  0.55270  0.96703  1.0000
  Fe  Fe123     1.0  0.20959  0.55924  0.73783  1.0000
  H   H1473     1.0  0.09014  0.48909  0.76417  1.0000
  H   H1474     1.0  0.17675  0.65605  0.73711  1.0000
  H   H1475     1.0  0.16113  0.67749  0.73597  1.0000
  H   H1476     1.0  0.10808  0.52902  0.97786  1.0000
  H   H1477     1.0  0.16866  0.48840  0.87907  1.0000
  H   H1478     1.0  0.12150  0.54512  0.97848  1.0000
  H   H1479     1.0  0.26503  0.48621  0.80045  1.0000
  H   H1480     1.0  0.24004  0.51739  0.73317  1.0000
  C   C857      1.0  0.13722  0.50018  0.73332  1.0000
  H   H1481     1.0  0.32341  0.59457  0.91507  1.0000
  Fe  Fe124     1.0  0.45719  0.16770  0.11962  1.0000
  S   S243      1.0  0.44849  0.19706  0.10624  1.0000
  S   S244      1.0  0.48547  0.15701  0.12526  1.0000
  Fe  Fe125     1.0  0.42189  0.15742  0.11930  1.0000
  S   S245      1.0  0.40993  0.18611  0.10598  1.0000
  S   S246      1.0  0.40764  0.13442  0.12201  1.0000
  Fe  Fe126     1.0  0.43783  0.18573  0.08770  1.0000
  S   S247      1.0  0.44665  0.19305  0.05680  1.0000
  Fe  Fe127     1.0  0.42163  0.19472  0.12591  1.0000
  S   S248      1.0  0.40540  0.21568  0.14312  1.0000
  S   S249      1.0  0.44890  0.15650  0.09963  1.0000
  S   S250      1.0  0.43125  0.16584  0.14071  1.0000
  H   H1482     1.0  0.53973  0.27344  0.98671  1.0000
  H   H1483     1.0  0.42963  0.12615  0.08495  1.0000
  H   H1484     1.0  0.59265  0.13596  0.11958  1.0000
  H   H1485     1.0  0.40608  0.14095  0.02565  1.0000
  C   C858      1.0  0.60231  0.23906  0.98327  1.0000
  C   C859      1.0  0.60675  0.12370  0.20185  1.0000
  C   C860      1.0  0.46789  0.16090  0.20737  1.0000
  C   C861      1.0  0.59511  0.16211  0.19375  1.0000
  H   H1486     1.0  0.53748  0.03118  0.19661  1.0000
  C   C862      1.0  0.57352  0.27375  0.13697  1.0000
  C   C863      1.0  0.51430  0.21975  0.04804  1.0000
  H   H1487     1.0  0.51612  0.19955  0.21581  1.0000
  N   N62       1.0  0.59809  0.12551  0.14726  1.0000
  Fe  Fe128     1.0  0.53386  0.20808  0.15896  1.0000
  S   S251      1.0  0.54432  0.21926  0.12932  1.0000
  S   S252      1.0  0.50376  0.20817  0.16784  1.0000
  S   S253      1.0  0.54929  0.22294  0.16958  1.0000
  S   S254      1.0  0.55490  0.18183  0.16041  1.0000
  C   C864      1.0  0.61153  0.13541  0.14986  1.0000
  H   H1488     1.0  0.57592  0.98810  0.19308  1.0000
  H   H1489     1.0  0.52005  0.38153  0.14809  1.0000
  H   H1490     1.0  0.43834  0.12403  0.06110  1.0000
  C   C865      1.0  0.59951  0.10692  0.16010  1.0000
  H   H1491     1.0  0.59659  0.22247  0.17650  1.0000
  H   H1492     1.0  0.55434  0.01909  0.22311  1.0000
  N   N63       1.0  0.49792  0.16191  0.21593  1.0000
  S   S255      1.0  0.57347  0.28907  0.21270  1.0000
  H   H1493     1.0  0.62935  0.10014  0.16001  1.0000
  C   C866      1.0  0.42081  0.01280  0.17023  1.0000
  H   H1494     1.0  0.62369  0.19900  0.22842  1.0000
  C   C867      1.0  0.56679  0.21508  0.06406  1.0000
  H   H1495     1.0  0.38978  0.16019  0.04404  1.0000
  H   H1496     1.0  0.62831  0.22157  0.22285  1.0000
  H   H1497     1.0  0.48923  0.21031  0.06243  1.0000
  Fe  Fe129     1.0  0.43457  0.29414  0.17008  1.0000
  S   S256      1.0  0.44685  0.27382  0.15125  1.0000
  S   S257      1.0  0.44019  0.32261  0.16092  1.0000
  C   C868      1.0  0.34933  0.39562  0.18160  1.0000
  C   C869      1.0  0.36522  0.38613  0.17152  1.0000
  H   H1498     1.0  0.34189  0.40845  0.17496  1.0000
  H   H1499     1.0  0.36993  0.39172  0.15713  1.0000
  C   C870      1.0  0.49327  0.31577  0.19828  1.0000
  C   C871      1.0  0.48489  0.32145  0.21489  1.0000
  C   C872      1.0  0.54797  0.99245  0.20883  1.0000
  H   H1500     1.0  0.48538  0.99461  0.15802  1.0000
  C   C873      1.0  0.52279  0.30754  0.20754  1.0000
  C   C874      1.0  0.51215  0.30842  0.19487  1.0000
  C   C875      1.0  0.56315  0.99879  0.19271  1.0000
  C   C876      1.0  0.53975  0.02620  0.22492  1.0000
  H   H1501     1.0  0.63034  0.11041  0.12264  1.0000
  Fe  Fe130     1.0  0.53881  0.18000  0.00213  1.0000
  Fe  Fe131     1.0  0.59412  0.32681  0.22194  1.0000
  H   H1502     1.0  0.56808  0.15677  0.19772  1.0000
  H   H1503     1.0  0.35870  0.41677  0.22234  1.0000
  C   C877      1.0  0.56971  0.20466  0.05062  1.0000
  C   C878      1.0  0.57526  0.17679  0.07381  1.0000
  C   C879      1.0  0.57395  0.18546  0.05555  1.0000
  H   H1504     1.0  0.57874  0.16195  0.07748  1.0000
  H   H1505     1.0  0.57651  0.17730  0.04524  1.0000
  H   H1506     1.0  0.59007  0.09904  0.15824  1.0000
  C   C880      1.0  0.62305  0.22556  0.16048  1.0000
  H   H1507     1.0  0.47549  0.18461  0.21022  1.0000
  H   H1508     1.0  0.41060  0.00382  0.17558  1.0000
  H   H1509     1.0  0.59248  0.23041  0.99179  1.0000
  S   S258      1.0  0.46387  0.99307  0.23009  1.0000
  H   H1510     1.0  0.52430  0.35613  0.21540  1.0000
  Fe  Fe132     1.0  0.56205  0.23156  0.13993  1.0000
  H   H1511     1.0  0.44248  0.99912  0.13971  1.0000
  H   H1512     1.0  0.43773  0.99909  0.19002  1.0000
  C   C881      1.0  0.41701  0.23151  0.14593  1.0000
  C   C882      1.0  0.40713  0.24620  0.15451  1.0000
  C   C883      1.0  0.41610  0.25926  0.15640  1.0000
  C   C884      1.0  0.43500  0.25761  0.14973  1.0000
  C   C885      1.0  0.44488  0.24272  0.14153  1.0000
  C   C886      1.0  0.43596  0.22967  0.13973  1.0000
  H   H1513     1.0  0.39246  0.24768  0.15938  1.0000
  H   H1514     1.0  0.40836  0.27076  0.16267  1.0000
  H   H1515     1.0  0.45948  0.24126  0.13644  1.0000
  H   H1516     1.0  0.44376  0.21826  0.13344  1.0000
  C   C887      1.0  0.40807  0.08543  0.17049  1.0000
  C   C888      1.0  0.39978  0.08640  0.15598  1.0000
  C   C889      1.0  0.39975  0.10154  0.14128  1.0000
  C   C890      1.0  0.40763  0.11609  0.14115  1.0000
  C   C891      1.0  0.41541  0.11552  0.15595  1.0000
  C   C892      1.0  0.41598  0.10000  0.17047  1.0000
  H   H1517     1.0  0.39345  0.07531  0.15603  1.0000
  H   H1518     1.0  0.39351  0.10200  0.13000  1.0000
  H   H1519     1.0  0.42094  0.12703  0.15619  1.0000
  H   H1520     1.0  0.42213  0.09953  0.18178  1.0000
  C   C893      1.0  0.41339  0.18389  0.01944  1.0000
  H   H1521     1.0  0.52536  0.99184  0.18954  1.0000
  C   C894      1.0  0.44258  0.18077  0.02783  1.0000
  C   C895      1.0  0.43361  0.18865  0.04319  1.0000
  C   C896      1.0  0.41450  0.19413  0.04666  1.0000
  C   C897      1.0  0.40446  0.19193  0.03470  1.0000
  H   H1522     1.0  0.46804  0.23228  0.01081  1.0000
  H   H1523     1.0  0.45739  0.17666  0.02500  1.0000
  H   H1524     1.0  0.40751  0.20052  0.05829  1.0000
  H   H1525     1.0  0.38971  0.19655  0.03725  1.0000
  C   C898      1.0  0.49021  0.17142  0.13705  1.0000
  C   C899      1.0  0.50843  0.17132  0.13675  1.0000
  C   C900      1.0  0.51250  0.18317  0.14557  1.0000
  C   C901      1.0  0.49842  0.19469  0.15534  1.0000
  C   C902      1.0  0.48013  0.19481  0.15564  1.0000
  C   C903      1.0  0.47602  0.18332  0.14631  1.0000
  H   H1526     1.0  0.51945  0.16240  0.12932  1.0000
  H   H1527     1.0  0.52660  0.18333  0.14470  1.0000
  H   H1528     1.0  0.46914  0.20389  0.16289  1.0000
  H   H1529     1.0  0.46188  0.18360  0.14640  1.0000
  H   H1530     1.0  0.59395  0.28925  0.99034  1.0000
  C   C904      1.0  0.43199  0.13376  0.07048  1.0000
  H   H1531     1.0  0.40973  0.15621  0.07540  1.0000
  H   H1532     1.0  0.56354  0.23778  0.21785  1.0000
  H   H1533     1.0  0.45828  0.16911  0.19826  1.0000
  H   H1534     1.0  0.48972  0.19690  0.10137  1.0000
  H   H1535     1.0  0.53740  0.30241  0.20444  1.0000
  H   H1536     1.0  0.47324  0.20783  0.01782  1.0000
  H   H1537     1.0  0.38101  0.11518  0.19115  1.0000
  C   C905      1.0  0.49867  0.09209  0.22379  1.0000
  H   H1538     1.0  0.34444  0.35118  0.17247  1.0000
  H   H1539     1.0  0.39587  0.40871  0.20252  1.0000
  H   H1540     1.0  0.41901  0.20128  0.18774  1.0000
  H   H1541     1.0  0.49930  0.13387  0.21352  1.0000
  H   H1542     1.0  0.44029  0.25022  0.99916  1.0000
  C   C906      1.0  0.50812  0.14418  0.20985  1.0000
  H   H1543     1.0  0.37607  0.39952  0.20350  1.0000
  H   H1544     1.0  0.57835  0.12280  0.20499  1.0000
  H   H1545     1.0  0.59523  0.11188  0.12691  1.0000
  S   S259      1.0  0.46891  0.04098  0.23162  1.0000
  N   N64       1.0  0.53065  0.35829  0.16793  1.0000
  H   H1546     1.0  0.49721  0.02643  0.19915  1.0000
  C   C907      1.0  0.52763  0.34467  0.15842  1.0000
  H   H1547     1.0  0.47489  0.98614  0.12162  1.0000
  C   C908      1.0  0.55005  0.36134  0.16190  1.0000
  H   H1548     1.0  0.38871  0.12726  0.23162  1.0000
  C   C909      1.0  0.54301  0.32744  0.15702  1.0000
  H   H1549     1.0  0.42589  0.25662  0.21294  1.0000
  C   C910      1.0  0.55647  0.36850  0.14108  1.0000
  H   H1550     1.0  0.60508  0.21798  0.23150  1.0000
  H   H1551     1.0  0.53760  0.33814  0.19180  1.0000
  H   H1552     1.0  0.52541  0.35117  0.14425  1.0000
  H   H1553     1.0  0.51475  0.33969  0.16555  1.0000
  H   H1554     1.0  0.38139  0.46973  0.17873  1.0000
  H   H1555     1.0  0.54019  0.36779  0.19835  1.0000
  H   H1556     1.0  0.34845  0.36615  0.22304  1.0000
  H   H1557     1.0  0.56009  0.34873  0.16650  1.0000
  H   H1558     1.0  0.36086  0.48313  0.17147  1.0000
  H   H1559     1.0  0.34549  0.45552  0.18574  1.0000
  C   C911      1.0  0.48905  0.16389  0.99521  1.0000
  H   H1560     1.0  0.54673  0.32052  0.17049  1.0000
  H   H1561     1.0  0.53837  0.31740  0.15201  1.0000
  H   H1562     1.0  0.55546  0.33084  0.14696  1.0000
  H   H1563     1.0  0.49360  0.00347  0.20239  1.0000
  H   H1564     1.0  0.55197  0.37160  0.16880  1.0000
  H   H1565     1.0  0.46190  0.00499  0.14250  1.0000
  N   N65       1.0  0.44944  0.98645  0.16624  1.0000
  H   H1566     1.0  0.54929  0.36458  0.13236  1.0000
  H   H1567     1.0  0.57125  0.36243  0.13684  1.0000
  N   N66       1.0  0.50609  0.27588  0.14037  1.0000
  C   C912      1.0  0.50124  0.25712  0.14477  1.0000
  C   C913      1.0  0.51561  0.27640  0.15510  1.0000
  C   C914      1.0  0.51897  0.27797  0.12182  1.0000
  C   C915      1.0  0.48854  0.29011  0.14019  1.0000
  C   C916      1.0  0.49568  0.25152  0.12933  1.0000
  C   C917      1.0  0.50526  0.27129  0.17515  1.0000
  C   C918      1.0  0.52999  0.29345  0.11641  1.0000
  C   C919      1.0  0.49005  0.31047  0.13576  1.0000
  H   H1568     1.0  0.51297  0.24615  0.14879  1.0000
  H   H1569     1.0  0.48957  0.25596  0.15679  1.0000
  H   H1570     1.0  0.51858  0.29010  0.15368  1.0000
  H   H1571     1.0  0.52926  0.26686  0.15378  1.0000
  H   H1572     1.0  0.52943  0.26500  0.12093  1.0000
  H   H1573     1.0  0.51138  0.28013  0.11063  1.0000
  H   H1574     1.0  0.48134  0.28880  0.12988  1.0000
  H   H1575     1.0  0.47846  0.28766  0.15336  1.0000
  H   H1576     1.0  0.48379  0.26138  0.12450  1.0000
  H   H1577     1.0  0.50730  0.24958  0.11754  1.0000
  H   H1578     1.0  0.49158  0.23799  0.13486  1.0000
  H   H1579     1.0  0.51316  0.27311  0.18457  1.0000
  H   H1580     1.0  0.49153  0.28030  0.17778  1.0000
  H   H1581     1.0  0.50403  0.25666  0.17903  1.0000
  H   H1582     1.0  0.52155  0.30723  0.11256  1.0000
  H   H1583     1.0  0.54063  0.29124  0.10389  1.0000
  H   H1584     1.0  0.53756  0.29335  0.12692  1.0000
  H   H1585     1.0  0.49050  0.31645  0.12091  1.0000
  H   H1586     1.0  0.50175  0.31300  0.13991  1.0000
  H   H1587     1.0  0.47781  0.31839  0.14358  1.0000
  N   N67       1.0  0.39906  0.13785  0.06541  1.0000
  C   C920      1.0  0.40576  0.12362  0.05355  1.0000
  C   C921      1.0  0.39201  0.12867  0.08487  1.0000
  C   C922      1.0  0.38412  0.15241  0.05774  1.0000
  C   C923      1.0  0.37536  0.11978  0.08779  1.0000
  C   C924      1.0  0.37376  0.16690  0.06951  1.0000
  H   H1588     1.0  0.41513  0.11144  0.05994  1.0000
  H   H1589     1.0  0.39412  0.11816  0.05241  1.0000
  H   H1590     1.0  0.38824  0.13856  0.09423  1.0000
  H   H1591     1.0  0.40291  0.11756  0.09027  1.0000
  H   H1592     1.0  0.37374  0.14612  0.05514  1.0000
  H   H1593     1.0  0.36332  0.12980  0.08344  1.0000
  H   H1594     1.0  0.37881  0.10804  0.08076  1.0000
  H   H1595     1.0  0.37114  0.11421  0.10273  1.0000
  H   H1596     1.0  0.44225  0.14216  0.06911  1.0000
  H   H1597     1.0  0.36556  0.16082  0.08272  1.0000
  H   H1598     1.0  0.36399  0.17736  0.06185  1.0000
  H   H1599     1.0  0.38307  0.17432  0.07223  1.0000
  H   H1600     1.0  0.57714  0.13941  0.16685  1.0000
  S   S260      1.0  0.53701  0.20979  0.00035  1.0000
  S   S261      1.0  0.61127  0.30488  0.20654  1.0000
  C   C925      1.0  0.57592  0.23027  0.20968  1.0000
  C   C926      1.0  0.35642  0.45802  0.19138  1.0000
  C   C927      1.0  0.60072  0.12374  0.12753  1.0000
  C   C928      1.0  0.50181  0.17399  0.99514  1.0000
  Fe  Fe133     1.0  0.58763  0.31015  0.19242  1.0000
  C   C929      1.0  0.62230  0.24598  0.18962  1.0000
  H   H1601     1.0  0.58028  0.21689  0.21866  1.0000
  C   C930      1.0  0.57902  0.13639  0.15298  1.0000
  H   H1602     1.0  0.52296  0.13147  0.18670  1.0000
  H   H1603     1.0  0.36706  0.12573  0.20955  1.0000
  H   H1604     1.0  0.56456  0.12275  0.14052  1.0000
  S   S262      1.0  0.40749  0.06615  0.18868  1.0000
  C   C931      1.0  0.58829  0.29910  0.13387  1.0000
  H   H1605     1.0  0.59512  0.10859  0.17469  1.0000
  H   H1606     1.0  0.53960  0.04098  0.22362  1.0000
  H   H1607     1.0  0.60822  0.20486  0.20290  1.0000
  H   H1608     1.0  0.43304  0.20821  0.98891  1.0000
  C   C932      1.0  0.40310  0.25090  0.20575  1.0000
  H   H1609     1.0  0.59842  0.24557  0.16732  1.0000
  H   H1610     1.0  0.47760  0.08398  0.21580  1.0000
  H   H1611     1.0  0.57680  0.14997  0.14350  1.0000
  H   H1612     1.0  0.52379  0.16691  0.21780  1.0000
  C   C933      1.0  0.36859  0.46884  0.17525  1.0000
  Fe  Fe134     1.0  0.56457  0.20051  0.00813  1.0000
  H   H1613     1.0  0.63639  0.23924  0.18360  1.0000
  H   H1614     1.0  0.60602  0.01907  0.22176  1.0000
  S   S263      1.0  0.49603  0.06493  0.18634  1.0000
  H   H1615     1.0  0.62333  0.24828  0.20301  1.0000
  H   H1616     1.0  0.55581  0.18618  0.22338  1.0000
  H   H1617     1.0  0.53922  0.18671  0.05101  1.0000
  C   C934      1.0  0.50420  0.07572  0.19917  1.0000
  C   C935      1.0  0.46343  0.21954  0.01143  1.0000
  H   H1618     1.0  0.40072  0.09360  0.21284  1.0000
  C   C936      1.0  0.51632  0.14554  0.18909  1.0000
  H   H1619     1.0  0.42156  0.01831  0.15531  1.0000
  H   H1620     1.0  0.42881  0.22021  0.00691  1.0000
  H   H1621     1.0  0.40873  0.24630  0.99171  1.0000
  H   H1622     1.0  0.51567  0.37596  0.19975  1.0000
  H   H1623     1.0  0.62595  0.12880  0.14493  1.0000
  S   S264      1.0  0.51317  0.16878  0.01346  1.0000
  C   C937      1.0  0.61836  0.21357  0.22240  1.0000
  S   S265      1.0  0.56675  0.25987  0.12595  1.0000
  C   C938      1.0  0.58402  0.29767  0.15292  1.0000
  C   C939      1.0  0.43420  0.21717  0.19580  1.0000
  H   H1624     1.0  0.43954  0.17191  0.00444  1.0000
  C   C940      1.0  0.60709  0.99323  0.21465  1.0000
  H   H1625     1.0  0.51689  0.17794  0.19660  1.0000
  H   H1626     1.0  0.60462  0.27341  0.18337  1.0000
  C   C941      1.0  0.38552  0.40856  0.19487  1.0000
  H   H1627     1.0  0.56639  0.01171  0.19370  1.0000
  H   H1628     1.0  0.53231  0.06940  0.18497  1.0000
  H   H1629     1.0  0.52716  0.15378  0.18410  1.0000
  S   S266      1.0  0.48143  0.32046  0.18026  1.0000
  S   S267      1.0  0.56813  0.21612  0.02783  1.0000
  S   S268      1.0  0.40021  0.18090  0.00509  1.0000
  S   S269      1.0  0.44799  0.28757  0.19422  1.0000
  H   H1630     1.0  0.44822  0.01371  0.17053  1.0000
  Fe  Fe135     1.0  0.45361  0.02387  0.22365  1.0000
  H   H1631     1.0  0.62052  0.11847  0.10265  1.0000
  H   H1632     1.0  0.52767  0.21531  0.03913  1.0000
  S   S270      1.0  0.40628  0.30354  0.18593  1.0000
  N   N68       1.0  0.48029  0.10169  0.13671  1.0000
  C   C942      1.0  0.49809  0.10318  0.14056  1.0000
  C   C943      1.0  0.46497  0.11371  0.14752  1.0000
  C   C944      1.0  0.48063  0.10927  0.11648  1.0000
  C   C945      1.0  0.47871  0.08170  0.14171  1.0000
  C   C946      1.0  0.51582  0.09329  0.12942  1.0000
  C   C947      1.0  0.46464  0.11019  0.16829  1.0000
  C   C948      1.0  0.46373  0.10877  0.10950  1.0000
  C   C949      1.0  0.45922  0.07747  0.14840  1.0000
  H   H1633     1.0  0.49904  0.11787  0.13823  1.0000
  H   H1634     1.0  0.49877  0.09731  0.15527  1.0000
  H   H1635     1.0  0.45147  0.11255  0.14604  1.0000
  H   H1636     1.0  0.46544  0.12849  0.14194  1.0000
  H   H1637     1.0  0.48252  0.12379  0.11274  1.0000
  H   H1638     1.0  0.49245  0.10155  0.10790  1.0000
  H   H1639     1.0  0.48559  0.07482  0.12989  1.0000
  H   H1640     1.0  0.48623  0.07389  0.15277  1.0000
  H   H1641     1.0  0.51890  0.10103  0.11505  1.0000
  H   H1642     1.0  0.52754  0.09263  0.13569  1.0000
  H   H1643     1.0  0.51531  0.07896  0.12956  1.0000
  H   H1644     1.0  0.47488  0.11664  0.17086  1.0000
  H   H1645     1.0  0.45095  0.11656  0.17547  1.0000
  H   H1646     1.0  0.46736  0.09535  0.17454  1.0000
  H   H1647     1.0  0.46307  0.09448  0.10967  1.0000
  H   H1648     1.0  0.46506  0.11612  0.09490  1.0000
  H   H1649     1.0  0.45066  0.11575  0.11712  1.0000
  H   H1650     1.0  0.45302  0.08015  0.16241  1.0000
  H   H1651     1.0  0.46013  0.06260  0.14941  1.0000
  H   H1652     1.0  0.44974  0.08511  0.13909  1.0000
  N   N69       1.0  0.51175  0.18723  0.06734  1.0000
  C   C950      1.0  0.52883  0.17792  0.05585  1.0000
  H   H1653     1.0  0.46450  0.23054  0.17878  1.0000
  C   C951      1.0  0.49804  0.17486  0.07510  1.0000
  C   C952      1.0  0.51696  0.19177  0.08307  1.0000
  C   C953      1.0  0.53856  0.15912  0.06550  1.0000
  H   H1654     1.0  0.45928  0.25243  0.18546  1.0000
  C   C954      1.0  0.49316  0.16658  0.06108  1.0000
  C   C955      1.0  0.50156  0.20365  0.09489  1.0000
  H   H1655     1.0  0.52596  0.17605  0.04303  1.0000
  C   C956      1.0  0.41827  0.20698  0.19992  1.0000
  H   H1656     1.0  0.63047  0.20951  0.19505  1.0000
  N   N70       1.0  0.52939  0.00502  0.20980  1.0000
  H   H1657     1.0  0.50278  0.16328  0.08601  1.0000
  H   H1658     1.0  0.48482  0.18240  0.08203  1.0000
  H   H1659     1.0  0.52172  0.17900  0.09281  1.0000
  H   H1660     1.0  0.52884  0.19880  0.07805  1.0000
  H   H1661     1.0  0.55074  0.15369  0.05555  1.0000
  H   H1662     1.0  0.54367  0.16031  0.07730  1.0000
  H   H1663     1.0  0.52973  0.14879  0.07006  1.0000
  C   C957      1.0  0.52243  0.00570  0.19292  1.0000
  H   H1664     1.0  0.47425  0.00033  0.18041  1.0000
  H   H1665     1.0  0.59267  0.24580  0.21575  1.0000
  H   H1666     1.0  0.48730  0.17729  0.05023  1.0000
  H   H1667     1.0  0.48249  0.15839  0.06831  1.0000
  H   H1668     1.0  0.50504  0.15711  0.05460  1.0000
  H   H1669     1.0  0.50325  0.00717  0.22956  1.0000
  H   H1670     1.0  0.50695  0.20564  0.10621  1.0000
  H   H1671     1.0  0.63384  0.12908  0.19718  1.0000
  H   H1672     1.0  0.39299  0.40193  0.18304  1.0000
  Fe  Fe136     1.0  0.57148  0.19757  0.16812  1.0000
  C   C958      1.0  0.58241  0.15076  0.19764  1.0000
  C   C959      1.0  0.58818  0.13155  0.20195  1.0000
  H   H1673     1.0  0.62979  0.21123  0.16565  1.0000
  Fe  Fe137     1.0  0.56650  0.19401  0.13109  1.0000
  Fe  Fe138     1.0  0.41304  0.33170  0.17900  1.0000
  H   H1674     1.0  0.55967  0.00031  0.17919  1.0000
  H   H1675     1.0  0.61805  0.26483  0.16316  1.0000
  C   C960      1.0  0.57230  0.18723  0.08725  1.0000
  S   S271      1.0  0.39499  0.35806  0.16669  1.0000
  C   C961      1.0  0.37513  0.36944  0.17995  1.0000
  S   S272      1.0  0.57415  0.17599  0.11004  1.0000
  S   S273      1.0  0.57174  0.33387  0.20570  1.0000
  H   H1676     1.0  0.55002  0.13794  0.15487  1.0000
  H   H1677     1.0  0.61769  0.08176  0.16993  1.0000
  C   C962      1.0  0.60926  0.15598  0.14065  1.0000
  H   H1678     1.0  0.43450  0.22591  0.18175  1.0000
  S   S274      1.0  0.58795  0.18608  0.19021  1.0000
  S   S275      1.0  0.61444  0.09975  0.20637  1.0000
  C   C963      1.0  0.61948  0.13510  0.19738  1.0000
  C   C964      1.0  0.61363  0.15426  0.19361  1.0000
  C   C965      1.0  0.62459  0.35448  0.22816  1.0000
  H   H1679     1.0  0.39128  0.12655  0.20210  1.0000
  H   H1680     1.0  0.64033  0.33318  0.21362  1.0000
  Fe  Fe139     1.0  0.45216  0.31649  0.18608  1.0000
  H   H1681     1.0  0.41932  0.19520  0.21173  1.0000
  C   C966      1.0  0.48279  0.17163  0.20562  1.0000
  H   H1682     1.0  0.40241  0.22532  0.99280  1.0000
  C   C967      1.0  0.56803  0.20642  0.08231  1.0000
  C   C968      1.0  0.41548  0.13030  0.03355  1.0000
  C   C969      1.0  0.41432  0.14683  0.06547  1.0000
  H   H1683     1.0  0.37820  0.09009  0.21569  1.0000
  H   H1684     1.0  0.56128  0.26215  0.16468  1.0000
  H   H1685     1.0  0.41834  0.15566  0.05187  1.0000
  C   C970      1.0  0.36901  0.36229  0.19855  1.0000
  Fe  Fe140     1.0  0.42032  0.29909  0.20953  1.0000
  H   H1686     1.0  0.62855  0.27301  0.17683  1.0000
  H   H1687     1.0  0.57003  0.28375  0.17866  1.0000
  H   H1688     1.0  0.42009  0.11855  0.02638  1.0000
  H   H1689     1.0  0.42785  0.13557  0.03271  1.0000
  H   H1690     1.0  0.55282  0.99003  0.22185  1.0000
  C   C971      1.0  0.56898  0.27231  0.15610  1.0000
  C   C972      1.0  0.49714  0.37588  0.16978  1.0000
  H   H1691     1.0  0.48857  0.17577  0.19077  1.0000
  C   C973      1.0  0.51466  0.31430  0.22362  1.0000
  S   S276      1.0  0.58543  0.20723  0.13903  1.0000
  H   H1692     1.0  0.56601  0.21463  0.09244  1.0000
  C   C974      1.0  0.34322  0.38848  0.20022  1.0000
  H   H1693     1.0  0.36479  0.42648  0.18050  1.0000
  C   C975      1.0  0.50185  0.01363  0.19378  1.0000
  H   H1694     1.0  0.51963  0.13780  0.21722  1.0000
  H   H1695     1.0  0.62231  0.08861  0.14561  1.0000
  H   H1696     1.0  0.56366  0.22993  0.06032  1.0000
  H   H1697     1.0  0.62556  0.13461  0.11266  1.0000
  H   H1698     1.0  0.59756  0.16430  0.14875  1.0000
  C   C976      1.0  0.59075  0.24209  0.20337  1.0000
  H   H1699     1.0  0.59577  0.30940  0.12516  1.0000
  C   C977      1.0  0.57407  0.28444  0.16405  1.0000
  H   H1700     1.0  0.56444  0.24492  0.99010  1.0000
  H   H1701     1.0  0.49898  0.01684  0.17973  1.0000
  C   C978      1.0  0.52292  0.07573  0.19579  1.0000
  H   H1702     1.0  0.46191  0.21551  0.21278  1.0000
  H   H1703     1.0  0.34893  0.46756  0.20066  1.0000
  C   C979      1.0  0.64083  0.34453  0.21928  1.0000
  C   C980      1.0  0.46371  0.21714  0.99197  1.0000
  S   S277      1.0  0.42544  0.32786  0.20367  1.0000
  C   C981      1.0  0.61792  0.26530  0.17751  1.0000
  C   C982      1.0  0.60008  0.00699  0.22518  1.0000
  H   H1704     1.0  0.62172  0.16094  0.14029  1.0000
  C   C983      1.0  0.52960  0.08341  0.20684  1.0000
  H   H1705     1.0  0.61047  0.13458  0.16472  1.0000
  C   C984      1.0  0.51775  0.37635  0.16325  1.0000
  H   H1706     1.0  0.61843  0.99482  0.20307  1.0000
  N   N71       1.0  0.60883  0.23379  0.19246  1.0000
  S   S278      1.0  0.56532  0.17027  0.01212  1.0000
  H   H1707     1.0  0.49669  0.21750  0.08697  1.0000
  H   H1708     1.0  0.49306  0.37218  0.18497  1.0000
  C   C985      1.0  0.61651  0.21491  0.20251  1.0000
  H   H1709     1.0  0.62350  0.16298  0.19063  1.0000
  H   H1710     1.0  0.49312  0.36630  0.16360  1.0000
  C   C986      1.0  0.43138  0.22213  0.99172  1.0000
  H   H1711     1.0  0.39376  0.44349  0.19944  1.0000
  C   C987      1.0  0.38600  0.09943  0.21792  1.0000
  H   H1712     1.0  0.42943  0.25433  0.18983  1.0000
  H   H1713     1.0  0.41547  0.02476  0.17712  1.0000
  H   H1714     1.0  0.54409  0.08322  0.20438  1.0000
  S   S279      1.0  0.59097  0.31319  0.16189  1.0000
  H   H1715     1.0  0.52978  0.01415  0.18059  1.0000
  S   S280      1.0  0.45637  0.03916  0.19432  1.0000
  C   C988      1.0  0.35309  0.37178  0.20863  1.0000
  C   C989      1.0  0.43249  0.17814  0.01614  1.0000
  H   H1716     1.0  0.51869  0.30397  0.18208  1.0000
  H   H1717     1.0  0.37653  0.34943  0.20517  1.0000
  H   H1718     1.0  0.55460  0.38373  0.13791  1.0000
  C   C990      1.0  0.58293  0.28734  0.12595  1.0000
  C   C991      1.0  0.56301  0.12751  0.15341  1.0000
  H   H1719     1.0  0.51375  0.34611  0.19305  1.0000
  Fe  Fe141     1.0  0.43014  0.05775  0.20442  1.0000
  Fe  Fe142     1.0  0.46952  0.05750  0.20301  1.0000
  H   H1720     1.0  0.34192  0.42867  0.20899  1.0000
  H   H1721     1.0  0.40460  0.21597  0.20248  1.0000
  H   H1722     1.0  0.50567  0.15088  0.18061  1.0000
  H   H1723     1.0  0.63301  0.23473  0.15659  1.0000
  C   C992      1.0  0.60574  0.23224  0.17434  1.0000
  S   S281      1.0  0.57589  0.07058  0.22125  1.0000
  H   H1724     1.0  0.56140  0.11599  0.16545  1.0000
  H   H1725     1.0  0.33517  0.40470  0.13149  1.0000
  H   H1726     1.0  0.51665  0.22502  0.05921  1.0000
  H   H1727     1.0  0.60725  0.15862  0.12635  1.0000
  H   H1728     1.0  0.38351  0.47082  0.20894  1.0000
  C   C993      1.0  0.38085  0.44266  0.20998  1.0000
  H   H1729     1.0  0.39735  0.26592  0.20326  1.0000
  H   H1730     1.0  0.52054  0.38719  0.16880  1.0000
  H   H1731     1.0  0.38435  0.43038  0.22086  1.0000
  H   H1732     1.0  0.51635  0.03304  0.21248  1.0000
  S   S282      1.0  0.44345  0.07768  0.21037  1.0000
  H   H1733     1.0  0.39578  0.24518  0.21960  1.0000
  H   H1734     1.0  0.58451  0.25525  0.19520  1.0000
  H   H1735     1.0  0.45968  0.15876  0.22158  1.0000
  C   C994      1.0  0.50440  0.19270  0.21817  1.0000
  C   C995      1.0  0.53034  0.02431  0.21016  1.0000
  N   N72       1.0  0.43413  0.22844  0.20935  1.0000
  H   H1736     1.0  0.58627  0.28868  0.11115  1.0000
  C   C996      1.0  0.49207  0.08393  0.21313  1.0000
  H   H1737     1.0  0.37195  0.46278  0.16284  1.0000
  H   H1738     1.0  0.50653  0.23153  0.03944  1.0000
  H   H1739     1.0  0.48897  0.38980  0.16538  1.0000
  H   H1740     1.0  0.47361  0.14758  0.20295  1.0000
  H   H1741     1.0  0.33588  0.38260  0.15669  1.0000
  H   H1742     1.0  0.50092  0.20098  0.04281  1.0000
  C   C997      1.0  0.50316  0.20433  0.05525  1.0000
  N   N73       1.0  0.36626  0.44017  0.20143  1.0000
  C   C998      1.0  0.37516  0.42807  0.18750  1.0000
  H   H1743     1.0  0.57162  0.22797  0.19787  1.0000
  H   H1744     1.0  0.47896  0.23589  0.19068  1.0000
  H   H1745     1.0  0.39995  0.24574  0.19494  1.0000
  H   H1746     1.0  0.46376  0.20239  0.99292  1.0000
  H   H1747     1.0  0.38548  0.43446  0.17642  1.0000
  C   C999      1.0  0.62049  0.12163  0.11601  1.0000
  H   H1748     1.0  0.47034  0.32723  0.21760  1.0000
  C   C1000     1.0  0.52687  0.36364  0.20084  1.0000
  C   C1001     1.0  0.42391  0.24797  0.20424  1.0000
  H   H1749     1.0  0.48550  0.15331  0.00704  1.0000
  H   H1750     1.0  0.49459  0.20224  0.20998  1.0000
  C   C1002     1.0  0.61846  0.09395  0.15846  1.0000
  H   H1751     1.0  0.44988  0.21968  0.02078  1.0000
  H   H1752     1.0  0.44694  0.20635  0.19440  1.0000
  H   H1753     1.0  0.61888  0.22555  0.14765  1.0000
  C   C1003     1.0  0.52708  0.35067  0.18836  1.0000
  C   C1004     1.0  0.51158  0.17423  0.21166  1.0000
  H   H1754     1.0  0.60473  0.24762  0.99171  1.0000
  H   H1755     1.0  0.42632  0.99524  0.22666  1.0000
  C   C1005     1.0  0.45365  0.22940  0.20868  1.0000
  C   C1006     1.0  0.46446  0.23754  0.18974  1.0000
  C   C1007     1.0  0.38095  0.11793  0.20469  1.0000
  C   C1008     1.0  0.44666  0.24895  0.98466  1.0000
  C   C1009     1.0  0.43977  0.00298  0.17476  1.0000
  H   H1756     1.0  0.57619  0.26775  0.99580  1.0000
  C   C1010     1.0  0.47996  0.98908  0.17267  1.0000
  C   C1011     1.0  0.35228  0.43071  0.21567  1.0000
  Fe  Fe143     1.0  0.55877  0.31231  0.22690  1.0000
  C   C1012     1.0  0.45490  0.99319  0.14578  1.0000
  C   C1013     1.0  0.51748  0.09145  0.22093  1.0000
  C   C1014     1.0  0.37663  0.45993  0.21848  1.0000
  H   H1757     1.0  0.47745  0.21916  0.98394  1.0000
  Fe  Fe144     1.0  0.59542  0.28573  0.22827  1.0000
  H   H1758     1.0  0.55997  0.16186  0.23074  1.0000
  Fe  Fe145     1.0  0.59409  0.08550  0.22810  1.0000
  C   C1015     1.0  0.41329  0.23348  0.98628  1.0000
  H   H1759     1.0  0.36196  0.46582  0.22293  1.0000
  C   C1016     1.0  0.49560  0.32076  0.22753  1.0000
  H   H1760     1.0  0.45407  0.23744  0.21873  1.0000
  H   H1761     1.0  0.33225  0.36687  0.14522  1.0000
  C   C1017     1.0  0.51684  0.99768  0.22721  1.0000
  H   H1762     1.0  0.33436  0.45441  0.22718  1.0000
  H   H1763     1.0  0.60577  0.15153  0.23148  1.0000
  H   H1764     1.0  0.41187  0.21845  0.23027  1.0000
  C   C1018     1.0  0.34177  0.44025  0.23175  1.0000
  C   C1019     1.0  0.42597  0.22042  0.22892  1.0000
  H   H1765     1.0  0.38271  0.45629  0.23092  1.0000
  C   C1020     1.0  0.32972  0.35811  0.17458  1.0000
  H   H1766     1.0  0.44200  0.19211  0.22824  1.0000
  S   S283      1.0  0.60285  0.34883  0.23112  1.0000
  H   H1767     1.0  0.65484  0.38994  0.18513  1.0000
  H   H1768     1.0  0.32701  0.36393  0.18705  1.0000
  C   C1021     1.0  0.32667  0.37329  0.15752  1.0000
  H   H1769     1.0  0.44709  0.27684  0.23256  1.0000
  H   H1770     1.0  0.50238  0.11794  0.98354  1.0000
  H   H1771     1.0  0.53405  0.25364  0.98330  1.0000
  H   H1772     1.0  0.54353  0.17650  0.24525  1.0000
  H   H1773     1.0  0.35657  0.20854  0.38613  1.0000
  H   H1774     1.0  0.60675  0.09600  0.27927  1.0000
  H   H1775     1.0  0.54898  0.21983  0.30602  1.0000
  H   H1776     1.0  0.47836  0.16938  0.24021  1.0000
  C   C1022     1.0  0.61556  0.27473  0.30571  1.0000
  H   H1777     1.0  0.52245  0.99689  0.23943  1.0000
  H   H1778     1.0  0.47503  0.22288  0.30892  1.0000
  H   H1779     1.0  0.35263  0.08604  0.46024  1.0000
  S   S284      1.0  0.43288  0.07052  0.26485  1.0000
  H   H1780     1.0  0.46691  0.07417  0.28926  1.0000
  H   H1781     1.0  0.37645  0.21080  0.35536  1.0000
  S   S285      1.0  0.55675  0.06627  0.26490  1.0000
  H   H1782     1.0  0.64294  0.38561  0.23915  1.0000
  C   C1023     1.0  0.32688  0.24534  0.35039  1.0000
  Fe  Fe146     1.0  0.56479  0.17139  0.35510  1.0000
  S   S286      1.0  0.53449  0.17154  0.36478  1.0000
  C   C1024     1.0  0.60236  0.24848  0.26284  1.0000
  H   H1783     1.0  0.49790  0.09490  0.26818  1.0000
  C   C1025     1.0  0.48239  0.08123  0.31493  1.0000
  H   H1784     1.0  0.58314  0.19690  0.26534  1.0000
  S   S287      1.0  0.57683  0.18121  0.32555  1.0000
  C   C1026     1.0  0.64248  0.37415  0.23362  1.0000
  S   S288      1.0  0.57615  0.18991  0.36557  1.0000
  H   H1785     1.0  0.49873  0.22977  0.33736  1.0000
  H   H1786     1.0  0.39569  0.10360  0.26900  1.0000
  S   S289      1.0  0.40760  0.28349  0.23689  1.0000
  Fe  Fe147     1.0  0.44139  0.16040  0.28888  1.0000
  S   S290      1.0  0.44340  0.14582  0.31807  1.0000
  S   S291      1.0  0.43770  0.15187  0.26407  1.0000
  Fe  Fe148     1.0  0.45267  0.19448  0.29228  1.0000
  S   S292      1.0  0.45551  0.18314  0.32146  1.0000
  S   S293      1.0  0.46376  0.21926  0.27520  1.0000
  Fe  Fe149     1.0  0.46929  0.15668  0.31254  1.0000
  S   S294      1.0  0.49752  0.14130  0.31683  1.0000
  Fe  Fe150     1.0  0.42919  0.17350  0.32521  1.0000
  S   S295      1.0  0.40927  0.18060  0.35111  1.0000
  S   S296      1.0  0.46841  0.16871  0.28303  1.0000
  S   S297      1.0  0.42526  0.18733  0.29633  1.0000
  H   H1787     1.0  0.47777  0.13996  0.26019  1.0000
  C   C1027     1.0  0.60406  0.14042  0.24378  1.0000
  S   S298      1.0  0.34353  0.14509  0.40428  1.0000
  C   C1028     1.0  0.60084  0.10403  0.28984  1.0000
  C   C1029     1.0  0.39225  0.16909  0.36623  1.0000
  C   C1030     1.0  0.38582  0.15584  0.36145  1.0000
  C   C1031     1.0  0.37112  0.14829  0.37341  1.0000
  C   C1032     1.0  0.36277  0.15392  0.39018  1.0000
  C   C1033     1.0  0.36957  0.16681  0.39512  1.0000
  C   C1034     1.0  0.38413  0.17442  0.38315  1.0000
  H   H1788     1.0  0.39192  0.15166  0.34844  1.0000
  H   H1789     1.0  0.36603  0.13824  0.36952  1.0000
  H   H1790     1.0  0.36351  0.17103  0.40811  1.0000
  H   H1791     1.0  0.38911  0.18458  0.38700  1.0000
  H   H1792     1.0  0.36473  0.09731  0.27462  1.0000
  C   C1035     1.0  0.41668  0.25255  0.26253  1.0000
  C   C1036     1.0  0.42904  0.23802  0.27093  1.0000
  C   C1037     1.0  0.44791  0.23744  0.26533  1.0000
  C   C1038     1.0  0.45435  0.25151  0.25153  1.0000
  H   H1793     1.0  0.64373  0.30389  0.23967  1.0000
  H   H1794     1.0  0.40209  0.25294  0.26680  1.0000
  H   H1795     1.0  0.42396  0.22737  0.28179  1.0000
  H   H1796     1.0  0.46892  0.25129  0.24736  1.0000
  H   H1797     1.0  0.38925  0.08017  0.26267  1.0000
  H   H1798     1.0  0.62250  0.15199  0.42914  1.0000
  C   C1039     1.0  0.60316  0.12613  0.30662  1.0000
  S   S299      1.0  0.57722  0.02082  0.25497  1.0000
  S   S300      1.0  0.52822  0.31639  0.23807  1.0000
  Fe  Fe151     1.0  0.55377  0.08707  0.23921  1.0000
  H   H1799     1.0  0.60214  0.31927  0.26458  1.0000
  C   C1040     1.0  0.60959  0.23034  0.27080  1.0000
  C   C1041     1.0  0.52442  0.16255  0.35178  1.0000
  C   C1042     1.0  0.53518  0.15328  0.33798  1.0000
  C   C1043     1.0  0.52681  0.14641  0.32764  1.0000
  C   C1044     1.0  0.50763  0.14932  0.33060  1.0000
  C   C1045     1.0  0.49687  0.15862  0.34440  1.0000
  C   C1046     1.0  0.50527  0.16499  0.35513  1.0000
  H   H1800     1.0  0.54995  0.15123  0.33544  1.0000
  H   H1801     1.0  0.53522  0.13884  0.31731  1.0000
  H   H1802     1.0  0.48208  0.16064  0.34701  1.0000
  H   H1803     1.0  0.49691  0.17190  0.36598  1.0000
  H   H1804     1.0  0.48872  0.06447  0.27593  1.0000
  H   H1805     1.0  0.47001  0.25614  0.30069  1.0000
  C   C1047     1.0  0.43546  0.09276  0.26455  1.0000
  C   C1048     1.0  0.44064  0.10475  0.24801  1.0000
  C   C1049     1.0  0.44135  0.12281  0.24808  1.0000
  C   C1050     1.0  0.43752  0.12883  0.26470  1.0000
  C   C1051     1.0  0.43290  0.11668  0.28129  1.0000
  C   C1052     1.0  0.43167  0.09875  0.28119  1.0000
  C   C1053     1.0  0.57238  0.17643  0.24427  1.0000
  C   C1054     1.0  0.32734  0.19757  0.38250  1.0000
  H   H1806     1.0  0.42968  0.12130  0.29415  1.0000
  H   H1807     1.0  0.42762  0.08954  0.29404  1.0000
  H   H1808     1.0  0.50800  0.20581  0.34175  1.0000
  H   H1809     1.0  0.49267  0.25673  0.30184  1.0000
  H   H1810     1.0  0.47635  0.24970  0.32256  1.0000
  H   H1811     1.0  0.51826  0.23802  0.30980  1.0000
  C   C1055     1.0  0.59240  0.31942  0.29320  1.0000
  H   H1812     1.0  0.60317  0.16875  0.25692  1.0000
  H   H1813     1.0  0.59577  0.18494  0.28275  1.0000
  H   H1814     1.0  0.60203  0.27743  0.30201  1.0000
  H   H1815     1.0  0.54508  0.14791  0.26221  1.0000
  H   H1816     1.0  0.49258  0.19222  0.31701  1.0000
  H   H1817     1.0  0.47698  0.10496  0.28098  1.0000
  H   H1818     1.0  0.60712  0.12725  0.23901  1.0000
  H   H1819     1.0  0.63375  0.48125  0.26821  1.0000
  C   C1056     1.0  0.55701  0.17487  0.23563  1.0000
  H   H1820     1.0  0.34417  0.11282  0.27028  1.0000
  H   H1821     1.0  0.32436  0.10059  0.47860  1.0000
  H   H1822     1.0  0.55079  0.17438  0.27619  1.0000
  H   H1823     1.0  0.53623  0.20974  0.32736  1.0000
  H   H1824     1.0  0.35292  0.23080  0.37215  1.0000
  H   H1825     1.0  0.62843  0.18923  0.37676  1.0000
  H   H1826     1.0  0.51376  0.11482  0.27035  1.0000
  C   C1057     1.0  0.63240  0.29626  0.24489  1.0000
  H   H1827     1.0  0.40511  0.07715  0.24238  1.0000
  H   H1828     1.0  0.59578  0.15515  0.27879  1.0000
  H   H1829     1.0  0.33628  0.24294  0.33731  1.0000
  N   N74       1.0  0.62338  0.30107  0.27832  1.0000
  H   H1830     1.0  0.51549  0.18805  0.31931  1.0000
  C   C1058     1.0  0.58317  0.10313  0.30021  1.0000
  H   H1831     1.0  0.63097  0.32536  0.25908  1.0000
  C   C1059     1.0  0.58446  0.14318  0.25550  1.0000
  C   C1060     1.0  0.42317  0.26634  0.24832  1.0000
  H   H1832     1.0  0.55394  0.13279  0.28142  1.0000
  C   C1061     1.0  0.48747  0.22902  0.30487  1.0000
  H   H1833     1.0  0.62386  0.26184  0.30139  1.0000
  H   H1834     1.0  0.56366  0.15578  0.28973  1.0000
  C   C1062     1.0  0.58562  0.12499  0.31714  1.0000
  C   C1063     1.0  0.63809  0.17265  0.42633  1.0000
  C   C1064     1.0  0.59215  0.23538  0.30088  1.0000
  N   N75       1.0  0.49600  0.08670  0.29761  1.0000
  H   H1835     1.0  0.59861  0.33070  0.29384  1.0000
  H   H1836     1.0  0.56214  0.11262  0.32222  1.0000
  H   H1837     1.0  0.57974  0.13298  0.32771  1.0000
  H   H1838     1.0  0.48920  0.32591  0.24000  1.0000
  C   C1065     1.0  0.49783  0.21647  0.33467  1.0000
  H   H1839     1.0  0.34180  0.06982  0.45662  1.0000
  S   S301      1.0  0.57142  0.10366  0.24389  1.0000
  H   H1840     1.0  0.44374  0.10027  0.23515  1.0000
  H   H1841     1.0  0.34705  0.08960  0.26886  1.0000
  C   C1066     1.0  0.55975  0.16054  0.27597  1.0000
  C   C1067     1.0  0.57571  0.11345  0.31401  1.0000
  H   H1842     1.0  0.62849  0.32610  0.28233  1.0000
  Fe  Fe152     1.0  0.60124  0.15886  0.33074  1.0000
  N   N76       1.0  0.57661  0.16169  0.26073  1.0000
  C   C1068     1.0  0.34569  0.21980  0.38079  1.0000
  H   H1843     1.0  0.42795  0.19538  0.25015  1.0000
  H   H1844     1.0  0.49106  0.11526  0.29931  1.0000
  C   C1069     1.0  0.51822  0.10924  0.28363  1.0000
  H   H1845     1.0  0.52459  0.19960  0.28441  1.0000
  C   C1070     1.0  0.63359  0.31663  0.27252  1.0000
  H   H1846     1.0  0.57506  0.26227  0.30133  1.0000
  H   H1847     1.0  0.45543  0.08967  0.33140  1.0000
  Fe  Fe153     1.0  0.58039  0.05055  0.24755  1.0000
  H   H1848     1.0  0.35093  0.44009  0.24085  1.0000
  C   C1071     1.0  0.63104  0.18455  0.39057  1.0000
  H   H1849     1.0  0.52035  0.07289  0.28144  1.0000
  Fe  Fe154     1.0  0.60082  0.16708  0.36787  1.0000
  H   H1850     1.0  0.62213  0.30026  0.30722  1.0000
  C   C1072     1.0  0.60345  0.30919  0.27770  1.0000
  H   H1851     1.0  0.61442  0.13912  0.25204  1.0000
  H   H1852     1.0  0.63554  0.28512  0.23707  1.0000
  H   H1853     1.0  0.64074  0.16801  0.44011  1.0000
  C   C1073     1.0  0.64156  0.19342  0.39674  1.0000
  S   S302      1.0  0.61529  0.14155  0.30935  1.0000
  H   H1854     1.0  0.61262  0.27247  0.32096  1.0000
  C   C1074     1.0  0.33336  0.22768  0.39738  1.0000
  H   H1855     1.0  0.35432  0.10042  0.23806  1.0000
  H   H1856     1.0  0.65284  0.42732  0.30726  1.0000
  H   H1857     1.0  0.57844  0.32578  0.29042  1.0000
  H   H1858     1.0  0.64431  0.27923  0.26765  1.0000
  Fe  Fe155     1.0  0.32412  0.15886  0.42692  1.0000
  C   C1075     1.0  0.49046  0.15844  0.23652  1.0000
  H   H1859     1.0  0.35804  0.12143  0.24061  1.0000
  H   H1860     1.0  0.36366  0.22877  0.34062  1.0000
  H   H1861     1.0  0.64767  0.46437  0.31461  1.0000
  H   H1862     1.0  0.34359  0.20477  0.34318  1.0000
  C   C1076     1.0  0.39012  0.08098  0.24789  1.0000
  S   S303      1.0  0.32835  0.18270  0.43606  1.0000
  H   H1863     1.0  0.50079  0.15905  0.24412  1.0000
  H   H1864     1.0  0.40050  0.12575  0.25853  1.0000
  H   H1865     1.0  0.59598  0.29855  0.27772  1.0000
  C   C1077     1.0  0.35022  0.20485  0.35446  1.0000
  H   H1866     1.0  0.37514  0.20755  0.33366  1.0000
  C   C1078     1.0  0.36214  0.10622  0.24481  1.0000
  H   H1867     1.0  0.32768  0.21689  0.40829  1.0000
  S   S304      1.0  0.57947  0.30725  0.24451  1.0000
  H   H1868     1.0  0.54529  0.17620  0.40096  1.0000
  H   H1869     1.0  0.53413  0.15046  0.28514  1.0000
  H   H1870     1.0  0.57565  0.13973  0.24804  1.0000
  C   C1079     1.0  0.63064  0.28767  0.26555  1.0000
  C   C1080     1.0  0.57829  0.98895  0.24488  1.0000
  H   H1871     1.0  0.44477  0.13216  0.23518  1.0000
  H   H1872     1.0  0.57214  0.18419  0.28689  1.0000
  H   H1873     1.0  0.48849  0.07864  0.32724  1.0000
  C   C1081     1.0  0.43692  0.20187  0.23769  1.0000
  C   C1082     1.0  0.51984  0.22451  0.30614  1.0000
  C   C1083     1.0  0.54767  0.14723  0.27589  1.0000
  C   C1084     1.0  0.46435  0.09540  0.31847  1.0000
  H   H1874     1.0  0.47313  0.08266  0.26514  1.0000
  Fe  Fe156     1.0  0.57631  0.08153  0.26841  1.0000
  N   N77       1.0  0.55569  0.13735  0.41772  1.0000
  C   C1085     1.0  0.56577  0.15303  0.41236  1.0000
  C   C1086     1.0  0.56982  0.11973  0.42025  1.0000
  C   C1087     1.0  0.54228  0.13920  0.43567  1.0000
  C   C1088     1.0  0.54578  0.13899  0.40260  1.0000
  C   C1089     1.0  0.55373  0.17256  0.41160  1.0000
  C   C1090     1.0  0.58434  0.11597  0.40292  1.0000
  C   C1091     1.0  0.53558  0.12175  0.44749  1.0000
  C   C1092     1.0  0.53656  0.12309  0.40350  1.0000
  H   H1875     1.0  0.57512  0.15132  0.42192  1.0000
  H   H1876     1.0  0.57474  0.15325  0.39849  1.0000
  H   H1877     1.0  0.56350  0.10747  0.42545  1.0000
  H   H1878     1.0  0.57730  0.11952  0.43100  1.0000
  H   H1879     1.0  0.54842  0.14403  0.44480  1.0000
  H   H1880     1.0  0.52981  0.14989  0.43322  1.0000
  H   H1881     1.0  0.53464  0.15147  0.40211  1.0000
  H   H1882     1.0  0.55486  0.14152  0.38878  1.0000
  H   H1883     1.0  0.54491  0.17452  0.42510  1.0000
  H   H1884     1.0  0.56289  0.18261  0.40769  1.0000
  H   H1885     1.0  0.48924  0.09847  0.23456  1.0000
  H   H1886     1.0  0.57804  0.11577  0.39152  1.0000
  H   H1887     1.0  0.59357  0.12595  0.39825  1.0000
  H   H1888     1.0  0.59321  0.10220  0.40624  1.0000
  H   H1889     1.0  0.54664  0.11190  0.45386  1.0000
  H   H1890     1.0  0.53009  0.11480  0.43978  1.0000
  H   H1891     1.0  0.52430  0.12565  0.45899  1.0000
  H   H1892     1.0  0.52220  0.12538  0.41137  1.0000
  H   H1893     1.0  0.54408  0.10935  0.40909  1.0000
  H   H1894     1.0  0.53624  0.12252  0.38925  1.0000
  H   H1895     1.0  0.47877  0.06800  0.31524  1.0000
  C   C1093     1.0  0.62776  0.16361  0.42006  1.0000
  H   H1896     1.0  0.46682  0.10828  0.32047  1.0000
  C   C1094     1.0  0.47861  0.07730  0.27795  1.0000
  S   S305      1.0  0.61582  0.17661  0.33900  1.0000
  H   H1897     1.0  0.50081  0.20211  0.28328  1.0000
  C   C1095     1.0  0.50250  0.10304  0.29919  1.0000
  H   H1898     1.0  0.64043  0.28461  0.29746  1.0000
  H   H1899     1.0  0.49165  0.23018  0.28970  1.0000
  S   S306      1.0  0.61170  0.15728  0.39461  1.0000
  C   C1096     1.0  0.59085  0.16666  0.26792  1.0000
  H   H1900     1.0  0.46895  0.22557  0.34752  1.0000
  C   C1097     1.0  0.48745  0.09194  0.28091  1.0000
  H   H1901     1.0  0.56724  0.98715  0.25672  1.0000
  H   H1902     1.0  0.45653  0.09845  0.30742  1.0000
  C   C1098     1.0  0.62572  0.29085  0.29738  1.0000
  C   C1099     1.0  0.58467  0.25331  0.29282  1.0000
  S   S307      1.0  0.58818  0.14755  0.35970  1.0000
  S   S308      1.0  0.60066  0.06416  0.25318  1.0000
  C   C1100     1.0  0.52426  0.06528  0.30956  1.0000
  H   H1903     1.0  0.50689  0.10061  0.31251  1.0000
  H   H1904     1.0  0.34176  0.23323  0.40361  1.0000
  S   S309      1.0  0.58664  0.22841  0.32486  1.0000
  H   H1905     1.0  0.52242  0.12051  0.28712  1.0000
  H   H1906     1.0  0.53063  0.09826  0.28191  1.0000
  N   N78       1.0  0.33625  0.21281  0.36976  1.0000
  H   H1907     1.0  0.50655  0.05793  0.29646  1.0000
  N   N79       1.0  0.50260  0.21693  0.31426  1.0000
  H   H1908     1.0  0.53176  0.07619  0.30847  1.0000
  H   H1909     1.0  0.53487  0.05291  0.30677  1.0000
  H   H1910     1.0  0.51666  0.06179  0.32388  1.0000
  C   C1101     1.0  0.51168  0.07052  0.29544  1.0000
  C   C1102     1.0  0.58580  0.00474  0.24049  1.0000
  C   C1103     1.0  0.60435  0.22372  0.28982  1.0000
  H   H1911     1.0  0.58368  0.27356  0.26787  1.0000
  H   H1912     1.0  0.62438  0.11634  0.28487  1.0000
  C   C1104     1.0  0.50539  0.19762  0.31144  1.0000
  H   H1913     1.0  0.61021  0.20985  0.29602  1.0000
  C   C1105     1.0  0.58962  0.25977  0.27385  1.0000
  H   H1914     1.0  0.33119  0.43238  0.24032  1.0000
  C   C1106     1.0  0.36711  0.21377  0.34561  1.0000
  S   S310      1.0  0.56982  0.08968  0.29600  1.0000
  C   C1107     1.0  0.34112  0.07864  0.46622  1.0000
  C   C1108     1.0  0.61079  0.11554  0.29303  1.0000
  H   H1915     1.0  0.59060  0.30991  0.30679  1.0000
  H   H1916     1.0  0.61954  0.30557  0.24179  1.0000
  Fe  Fe157     1.0  0.59006  0.19802  0.33618  1.0000
  H   H1917     1.0  0.52252  0.22745  0.29083  1.0000
  H   H1918     1.0  0.47250  0.20557  0.33772  1.0000
  C   C1109     1.0  0.47860  0.21266  0.34476  1.0000
  C   C1110     1.0  0.51156  0.19504  0.29137  1.0000
  N   N80       1.0  0.38249  0.10002  0.23808  1.0000
  H   H1919     1.0  0.47955  0.20376  0.35851  1.0000
  C   C1111     1.0  0.48149  0.24895  0.30788  1.0000
  H   H1920     1.0  0.35624  0.19016  0.35958  1.0000
  C   C1112     1.0  0.58480  0.18421  0.27609  1.0000
  C   C1113     1.0  0.44202  0.26591  0.24300  1.0000
  H   H1921     1.0  0.51382  0.18016  0.29140  1.0000
  H   H1922     1.0  0.61947  0.22151  0.26236  1.0000
  C   C1114     1.0  0.48486  0.13978  0.24569  1.0000
  C   C1115     1.0  0.39132  0.11642  0.25926  1.0000
  C   C1116     1.0  0.53747  0.21244  0.31225  1.0000
  C   C1117     1.0  0.62418  0.16950  0.40215  1.0000
  H   H1923     1.0  0.58482  0.13224  0.26809  1.0000
  H   H1924     1.0  0.54155  0.19923  0.30753  1.0000
  S   S311      1.0  0.52545  0.10096  0.23502  1.0000
  Fe  Fe158     1.0  0.44164  0.05961  0.23853  1.0000
  C   C1118     1.0  0.35454  0.10097  0.26577  1.0000
  H   H1925     1.0  0.61309  0.37702  0.24230  1.0000
  H   H1926     1.0  0.56807  0.19020  0.24789  1.0000
  H   H1927     1.0  0.33713  0.18760  0.39044  1.0000
  H   H1928     1.0  0.37725  0.12345  0.26477  1.0000
  H   H1929     1.0  0.62166  0.27748  0.26871  1.0000
  H   H1930     1.0  0.64704  0.20486  0.38753  1.0000
  C   C1119     1.0  0.64519  0.18753  0.41460  1.0000
  C   C1120     1.0  0.65457  0.31108  0.27094  1.0000
  C   C1121     1.0  0.39308  0.11333  0.23979  1.0000
  C   C1122     1.0  0.64721  0.48465  0.26424  1.0000
  H   H1931     1.0  0.47555  0.13634  0.23887  1.0000
  H   H1932     1.0  0.36619  0.06888  0.24997  1.0000
  C   C1123     1.0  0.38135  0.06551  0.24658  1.0000
  H   H1933     1.0  0.38591  0.05284  0.25652  1.0000
  H   H1934     1.0  0.32999  0.17950  0.36307  1.0000
  S   S312      1.0  0.60983  0.25701  0.23926  1.0000
  H   H1935     1.0  0.44862  0.20394  0.24240  1.0000
  H   H1936     1.0  0.33291  0.25217  0.35781  1.0000
  H   H1937     1.0  0.34381  0.07017  0.47965  1.0000
  H   H1938     1.0  0.42437  0.23020  0.23795  1.0000
  H   H1939     1.0  0.49709  0.12857  0.24618  1.0000
  C   C1124     1.0  0.62556  0.36924  0.23537  1.0000
  H   H1940     1.0  0.53246  0.02137  0.23910  1.0000
  H   H1941     1.0  0.40797  0.10891  0.23407  1.0000
  H   H1942     1.0  0.58487  0.17707  0.23320  1.0000
  H   H1943     1.0  0.49806  0.19107  0.23302  1.0000
  S   S313      1.0  0.42612  0.04092  0.23321  1.0000
  H   H1944     1.0  0.38600  0.06202  0.23273  1.0000
  C   C1125     1.0  0.47995  0.15635  0.73174  1.0000
  H   H1945     1.0  0.60136  0.20182  0.70212  1.0000
  S   S314      1.0  0.57718  0.23678  0.69097  1.0000
  H   H1946     1.0  0.50549  0.21932  0.70849  1.0000
  C   C1126     1.0  0.48261  0.22219  0.73127  1.0000
  H   H1947     1.0  0.35485  0.18582  0.52846  1.0000
  H   H1948     1.0  0.50127  0.26178  0.72472  1.0000
  H   H1949     1.0  0.37344  0.21958  0.51321  1.0000
  C   C1127     1.0  0.36357  0.18476  0.56254  1.0000
  H   H1950     1.0  0.64962  0.26202  0.69415  1.0000
  H   H1951     1.0  0.32462  0.22341  0.67138  1.0000
  H   H1952     1.0  0.64186  0.25259  0.67023  1.0000
  H   H1953     1.0  0.36615  0.15194  0.67538  1.0000
  S   S315      1.0  0.44686  0.22405  0.69101  1.0000
  H   H1954     1.0  0.37145  0.23929  0.53489  1.0000
  H   H1955     1.0  0.36306  0.18202  0.57759  1.0000
  C   C1128     1.0  0.45253  0.22601  0.72438  1.0000
  S   S316      1.0  0.35546  0.22796  0.68271  1.0000
  C   C1129     1.0  0.50554  0.28564  0.70334  1.0000
  C   C1130     1.0  0.46720  0.28900  0.72362  1.0000
  S   S317      1.0  0.34887  0.19372  0.61777  1.0000
  C   C1131     1.0  0.36903  0.20860  0.52498  1.0000
  H   H1956     1.0  0.35929  0.17297  0.56008  1.0000
  C   C1132     1.0  0.45430  0.17043  0.70373  1.0000
  C   C1133     1.0  0.35415  0.21767  0.66499  1.0000
  C   C1134     1.0  0.36977  0.21001  0.65332  1.0000
  C   C1135     1.0  0.36795  0.20278  0.63887  1.0000
  C   C1136     1.0  0.35053  0.20285  0.63616  1.0000
  C   C1137     1.0  0.33493  0.21015  0.64809  1.0000
  C   C1138     1.0  0.33676  0.21769  0.66228  1.0000
  H   H1957     1.0  0.38324  0.21002  0.65516  1.0000
  H   H1958     1.0  0.38011  0.19714  0.62973  1.0000
  C   C1139     1.0  0.64754  0.22508  0.52279  1.0000
  S   S318      1.0  0.39186  0.24294  0.70351  1.0000
  H   H1959     1.0  0.43429  0.17374  0.72855  1.0000
  S   S319      1.0  0.54993  0.20058  0.72815  1.0000
  H   H1960     1.0  0.63667  0.22961  0.69242  1.0000
  Fe  Fe159     1.0  0.37872  0.22198  0.69829  1.0000
  C   C1140     1.0  0.38479  0.21764  0.55408  1.0000
  H   H1961     1.0  0.51168  0.27708  0.73023  1.0000
  H   H1962     1.0  0.56997  0.24008  0.63602  1.0000
  C   C1141     1.0  0.65379  0.22902  0.55091  1.0000
  C   C1142     1.0  0.47968  0.22213  0.70049  1.0000
  C   C1143     1.0  0.38874  0.15844  0.69413  1.0000
  H   H1963     1.0  0.38205  0.19984  0.52826  1.0000
  C   C1144     1.0  0.35462  0.16312  0.67960  1.0000
  H   H1964     1.0  0.32707  0.04816  0.49913  1.0000
  Fe  Fe160     1.0  0.41749  0.22067  0.70348  1.0000
  H   H1965     1.0  0.44814  0.18326  0.69497  1.0000
  H   H1966     1.0  0.45132  0.18677  0.72340  1.0000
  C   C1145     1.0  0.63482  0.21036  0.66389  1.0000
  C   C1146     1.0  0.44935  0.17289  0.72384  1.0000
  H   H1967     1.0  0.39175  0.15710  0.67957  1.0000
  C   C1147     1.0  0.60823  0.20911  0.68925  1.0000
  C   C1148     1.0  0.59950  0.22646  0.68109  1.0000
  C   C1149     1.0  0.60853  0.23578  0.66441  1.0000
  C   C1150     1.0  0.62611  0.22776  0.65581  1.0000
  C   C1151     1.0  0.46052  0.22427  0.70627  1.0000
  H   H1968     1.0  0.60184  0.24924  0.65810  1.0000
  H   H1969     1.0  0.63286  0.23509  0.64299  1.0000
  C   C1152     1.0  0.49075  0.22118  0.71295  1.0000
  C   C1153     1.0  0.32405  0.27219  0.64340  1.0000
  H   H1970     1.0  0.51970  0.27885  0.69766  1.0000
  S   S320      1.0  0.64542  0.19193  0.51706  1.0000
  H   H1971     1.0  0.50544  0.30046  0.70131  1.0000
  C   C1154     1.0  0.37013  0.17134  0.69931  1.0000
  H   H1972     1.0  0.39522  0.21015  0.54424  1.0000
  H   H1973     1.0  0.38137  0.20829  0.56754  1.0000
  H   H1974     1.0  0.37047  0.18494  0.68977  1.0000
  H   H1975     1.0  0.57396  0.24121  0.61210  1.0000
  H   H1976     1.0  0.33974  0.14170  0.71164  1.0000
  C   C1155     1.0  0.50037  0.27667  0.72384  1.0000
  S   S321      1.0  0.40509  0.20100  0.69538  1.0000
  H   H1977     1.0  0.63249  0.18761  0.68699  1.0000
  H   H1978     1.0  0.33338  0.15504  0.52711  1.0000
  H   H1979     1.0  0.46098  0.13617  0.72314  1.0000
  H   H1980     1.0  0.64392  0.23097  0.50948  1.0000
  H   H1981     1.0  0.45806  0.27657  0.70580  1.0000
  H   H1982     1.0  0.37074  0.18992  0.50720  1.0000
  C   C1156     1.0  0.36020  0.19680  0.51753  1.0000
  C   C1157     1.0  0.62583  0.20107  0.68063  1.0000
  H   H1983     1.0  0.48599  0.22094  0.68643  1.0000
  H   H1984     1.0  0.62650  0.18107  0.61930  1.0000
  H   H1985     1.0  0.49646  0.28368  0.69517  1.0000
  H   H1986     1.0  0.39136  0.22775  0.55674  1.0000
  H   H1987     1.0  0.37807  0.18436  0.55574  1.0000
  C   C1158     1.0  0.36742  0.22811  0.54662  1.0000
  H   H1988     1.0  0.36983  0.17409  0.71288  1.0000
  H   H1989     1.0  0.35761  0.17596  0.66989  1.0000
  H   H1990     1.0  0.39984  0.16434  0.69572  1.0000
  H   H1991     1.0  0.36346  0.13487  0.70530  1.0000
  N   N81       1.0  0.35708  0.21697  0.54089  1.0000
  H   H1992     1.0  0.48576  0.14835  0.72061  1.0000
  C   C1159     1.0  0.33612  0.17825  0.70465  1.0000
  H   H1993     1.0  0.46929  0.16789  0.69827  1.0000
  C   C1160     1.0  0.34994  0.20291  0.55703  1.0000
  N   N82       1.0  0.60838  0.21898  0.60822  1.0000
  C   C1161     1.0  0.60114  0.20604  0.60141  1.0000
  C   C1162     1.0  0.62752  0.21076  0.61159  1.0000
  C   C1163     1.0  0.60903  0.23642  0.59376  1.0000
  C   C1164     1.0  0.59597  0.22270  0.62608  1.0000
  C   C1165     1.0  0.61327  0.19924  0.58409  1.0000
  C   C1166     1.0  0.63017  0.19161  0.62441  1.0000
  C   C1167     1.0  0.61191  0.25288  0.59996  1.0000
  C   C1168     1.0  0.57574  0.23165  0.62527  1.0000
  H   H1994     1.0  0.59864  0.19378  0.61239  1.0000
  H   H1995     1.0  0.58745  0.21271  0.59798  1.0000
  H   H1996     1.0  0.63223  0.21985  0.61781  1.0000
  H   H1997     1.0  0.63754  0.20980  0.59841  1.0000
  H   H1998     1.0  0.62031  0.23396  0.58175  1.0000
  H   H1999     1.0  0.59647  0.24106  0.58782  1.0000
  H   H2000     1.0  0.59551  0.20972  0.63655  1.0000
  H   H2001     1.0  0.60144  0.23104  0.63250  1.0000
  H   H2002     1.0  0.61511  0.21073  0.57208  1.0000
  H   H2003     1.0  0.62688  0.19108  0.58647  1.0000
  H   H2004     1.0  0.60646  0.19007  0.58022  1.0000
  H   H2005     1.0  0.34029  0.15851  0.66070  1.0000
  Fe  Fe161     1.0  0.56378  0.22484  0.72001  1.0000
  H   H2006     1.0  0.64817  0.27267  0.63979  1.0000
  H   H2007     1.0  0.59986  0.25821  0.61005  1.0000
  H   H2008     1.0  0.61370  0.26425  0.58778  1.0000
  H   H2009     1.0  0.62445  0.24950  0.60570  1.0000
  H   H2010     1.0  0.56750  0.22098  0.62773  1.0000
  Fe  Fe162     1.0  0.39659  0.19106  0.72576  1.0000
  H   H2011     1.0  0.64706  0.25125  0.52853  1.0000
  C   C1169     1.0  0.64963  0.20612  0.52955  1.0000
  H   H2012     1.0  0.64490  0.18688  0.62514  1.0000
  C   C1170     1.0  0.33742  0.15945  0.67542  1.0000
  H   H2013     1.0  0.33246  0.22269  0.52981  1.0000
  H   H2014     1.0  0.38966  0.14472  0.70341  1.0000
  C   C1171     1.0  0.35273  0.14577  0.71122  1.0000
  H   H2015     1.0  0.62261  0.19201  0.63872  1.0000
  N   N83       1.0  0.35342  0.16455  0.69917  1.0000
  H   H2016     1.0  0.33813  0.19887  0.55434  1.0000
  H   H2017     1.0  0.33645  0.26287  0.64793  1.0000
  H   H2018     1.0  0.44842  0.15927  0.70216  1.0000
  H   H2019     1.0  0.45379  0.29479  0.73174  1.0000
  H   H2020     1.0  0.43782  0.22855  0.72882  1.0000
  H   H2021     1.0  0.64574  0.23281  0.71070  1.0000
  H   H2022     1.0  0.32538  0.17085  0.67729  1.0000
  H   H2023     1.0  0.33349  0.25297  0.54874  1.0000
  H   H2024     1.0  0.32793  0.27701  0.62833  1.0000
  C   C1172     1.0  0.64929  0.23653  0.53360  1.0000
  C   C1173     1.0  0.33543  0.18783  0.72023  1.0000
  H   H2025     1.0  0.35857  0.23498  0.55785  1.0000
  C   C1174     1.0  0.32462  0.16847  0.52435  1.0000
  H   H2026     1.0  0.34909  0.20522  0.51034  1.0000
  S   S322      1.0  0.65502  0.24388  0.56441  1.0000
  S   S323      1.0  0.32823  0.16155  0.49028  1.0000
  H   H2027     1.0  0.34409  0.19834  0.71517  1.0000
  H   H2028     1.0  0.33389  0.14625  0.68366  1.0000
  H   H2029     1.0  0.47676  0.26200  0.71487  1.0000
  H   H2030     1.0  0.47741  0.18685  0.72809  1.0000
  S   S324      1.0  0.36964  0.21070  0.72848  1.0000
  H   H2031     1.0  0.48634  0.31326  0.72409  1.0000
  H   H2032     1.0  0.49234  0.17677  0.70954  1.0000
  H   H2033     1.0  0.49927  0.17327  0.73071  1.0000
  C   C1175     1.0  0.34096  0.23017  0.53378  1.0000
  H   H2034     1.0  0.46910  0.29996  0.71104  1.0000
  H   H2035     1.0  0.34572  0.23993  0.52097  1.0000
  H   H2036     1.0  0.45451  0.26493  0.72969  1.0000
  C   C1176     1.0  0.64830  0.22506  0.69963  1.0000
  H   H2037     1.0  0.33360  0.18970  0.69275  1.0000
  H   H2038     1.0  0.34426  0.20902  0.56952  1.0000
  C   C1177     1.0  0.46401  0.27209  0.71836  1.0000
  H   H2039     1.0  0.64832  0.21043  0.70642  1.0000
  C   C1178     1.0  0.48724  0.17443  0.72468  1.0000
  H   H2040     1.0  0.65584  0.18391  0.55209  1.0000
  C   C1179     1.0  0.32755  0.24190  0.54713  1.0000
  H   H2041     1.0  0.40358  0.25891  0.73129  1.0000
  C   C1180     1.0  0.65637  0.25158  0.66278  1.0000
  C   C1181     1.0  0.35382  0.14329  0.73152  1.0000
  C   C1182     1.0  0.65421  0.19858  0.54684  1.0000
  H   H2042     1.0  0.65195  0.28190  0.65724  1.0000
  C   C1183     1.0  0.65665  0.20997  0.55736  1.0000
  H   H2043     1.0  0.32391  0.17175  0.70863  1.0000
  S   S325      1.0  0.53865  0.24353  0.73235  1.0000
  H   H2044     1.0  0.33959  0.17828  0.73256  1.0000
  H   H2045     1.0  0.41179  0.22602  0.84237  1.0000
  Fe  Fe163     1.0  0.44910  0.08140  0.84774  1.0000
  S   S326      1.0  0.42796  0.06499  0.86436  1.0000
  S   S327      1.0  0.47915  0.07121  0.84744  1.0000
  Fe  Fe164     1.0  0.42156  0.11292  0.83091  1.0000
  S   S328      1.0  0.39802  0.09909  0.84581  1.0000
  S   S329      1.0  0.41840  0.14259  0.81599  1.0000
  Fe  Fe165     1.0  0.41123  0.09223  0.87028  1.0000
  S   S330      1.0  0.39404  0.09834  0.89740  1.0000
  Fe  Fe166     1.0  0.41686  0.07311  0.83840  1.0000
  S   S331      1.0  0.40701  0.05346  0.82730  1.0000
  S   S332      1.0  0.43338  0.10789  0.85586  1.0000
  S   S333      1.0  0.43936  0.08771  0.82125  1.0000
  Fe  Fe167     1.0  0.57250  0.08571  0.87897  1.0000
  S   S334      1.0  0.56086  0.10779  0.85696  1.0000
  Fe  Fe168     1.0  0.56266  0.11082  0.90653  1.0000
  S   S335      1.0  0.55011  0.13489  0.88714  1.0000
  S   S336      1.0  0.55832  0.11211  0.93628  1.0000
  Fe  Fe169     1.0  0.53776  0.11493  0.88017  1.0000
  S   S337      1.0  0.50792  0.12341  0.87964  1.0000
  Fe  Fe170     1.0  0.57429  0.12603  0.86569  1.0000
  S   S338      1.0  0.58607  0.14970  0.84687  1.0000
  S   S339      1.0  0.54806  0.09143  0.90137  1.0000
  S   S340      1.0  0.58818  0.10341  0.88578  1.0000
  C   C1184     1.0  0.47445  0.11326  0.97283  1.0000
  S   S341      1.0  0.40001  0.20738  0.91445  1.0000
  H   H2046     1.0  0.45919  0.11077  0.74817  1.0000
  Fe  Fe171     1.0  0.55234  0.21007  0.97139  1.0000
  H   H2047     1.0  0.63881  0.32747  0.76475  1.0000
  S   S342      1.0  0.54153  0.23141  0.94847  1.0000
  C   C1185     1.0  0.62086  0.37022  0.74814  1.0000
  S   S343      1.0  0.60051  0.15572  0.96555  1.0000
  H   H2048     1.0  0.44036  0.17798  0.86772  1.0000
  S   S344      1.0  0.55198  0.18095  0.97254  1.0000
  H   H2049     1.0  0.64507  0.04138  0.80320  1.0000
  S   S345      1.0  0.53596  0.21112  0.76903  1.0000
  Fe  Fe172     1.0  0.55021  0.23484  0.75788  1.0000
  S   S346      1.0  0.54297  0.25626  0.77539  1.0000
  Fe  Fe173     1.0  0.56099  0.19487  0.75395  1.0000
  S   S347      1.0  0.57085  0.16524  0.76670  1.0000
  Fe  Fe174     1.0  0.58980  0.29010  0.86587  1.0000
  S   S348      1.0  0.60934  0.30079  0.84062  1.0000
  S   S349      1.0  0.60093  0.26971  0.88917  1.0000
  Fe  Fe175     1.0  0.55614  0.31099  0.85051  1.0000
  S   S350      1.0  0.57277  0.32385  0.82408  1.0000
  S   S351      1.0  0.52525  0.31381  0.85801  1.0000
  Fe  Fe176     1.0  0.59065  0.29568  0.82517  1.0000
  S   S352      1.0  0.60277  0.28192  0.80087  1.0000
  Fe  Fe177     1.0  0.59029  0.32814  0.84166  1.0000
  S   S353      1.0  0.60262  0.35395  0.83290  1.0000
  S   S354      1.0  0.57286  0.28247  0.85034  1.0000
  S   S355      1.0  0.57185  0.31780  0.86824  1.0000
  H   H2050     1.0  0.63809  0.08239  0.84511  1.0000
  H   H2051     1.0  0.55296  0.22626  0.87469  1.0000
  S   S356      1.0  0.57655  0.21794  0.74492  1.0000
  S   S357      1.0  0.34443  0.40859  0.79648  1.0000
  Fe  Fe178     1.0  0.45135  0.31025  0.80813  1.0000
  S   S358      1.0  0.45201  0.28401  0.80018  1.0000
  S   S359      1.0  0.47823  0.32003  0.79879  1.0000
  Fe  Fe179     1.0  0.41051  0.31508  0.82415  1.0000
  S   S360      1.0  0.40828  0.28864  0.81788  1.0000
  S   S361      1.0  0.38440  0.33209  0.83790  1.0000
  Fe  Fe180     1.0  0.43461  0.27662  0.82799  1.0000
  S   S362      1.0  0.44542  0.24716  0.84095  1.0000
  Fe  Fe181     1.0  0.42592  0.29807  0.79071  1.0000
  S   S363      1.0  0.42373  0.29567  0.76275  1.0000
  S   S364      1.0  0.43552  0.30208  0.83683  1.0000
  S   S365      1.0  0.42651  0.32519  0.79614  1.0000
  H   H2052     1.0  0.35236  0.35806  0.79607  1.0000
  C   C1186     1.0  0.52067  0.03301  0.84616  1.0000
  C   C1187     1.0  0.43548  0.26454  0.97218  1.0000
  C   C1188     1.0  0.38328  0.41056  0.83125  1.0000
  H   H2053     1.0  0.38134  0.13572  0.87117  1.0000
  H   H2054     1.0  0.56365  0.28616  0.98247  1.0000
  S   S366      1.0  0.37359  0.24446  0.75725  1.0000
  N   N84       1.0  0.36646  0.44362  0.81963  1.0000
  H   H2055     1.0  0.63269  0.41566  0.86935  1.0000
  H   H2056     1.0  0.37000  0.40600  0.83590  1.0000
  C   C1189     1.0  0.40894  0.28233  0.76118  1.0000
  C   C1190     1.0  0.39474  0.27772  0.77585  1.0000
  C   C1191     1.0  0.38349  0.26659  0.77431  1.0000
  C   C1192     1.0  0.38680  0.25957  0.75833  1.0000
  H   H2057     1.0  0.45729  0.22550  0.75085  1.0000
  H   H2058     1.0  0.64613  0.43574  0.87981  1.0000
  H   H2059     1.0  0.39250  0.28259  0.78838  1.0000
  H   H2060     1.0  0.37251  0.26300  0.78566  1.0000
  H   H2061     1.0  0.45417  0.00091  0.84741  1.0000
  H   H2062     1.0  0.40761  0.00108  0.86340  1.0000
  C   C1193     1.0  0.35598  0.38807  0.80874  1.0000
  C   C1194     1.0  0.34720  0.37896  0.82559  1.0000
  C   C1195     1.0  0.35637  0.36218  0.83468  1.0000
  C   C1196     1.0  0.37427  0.35419  0.82690  1.0000
  C   C1197     1.0  0.38322  0.36350  0.81022  1.0000
  C   C1198     1.0  0.37411  0.38042  0.80121  1.0000
  C   C1199     1.0  0.45214  0.16152  0.75631  1.0000
  H   H2063     1.0  0.34935  0.35509  0.84758  1.0000
  H   H2064     1.0  0.39706  0.35759  0.80416  1.0000
  H   H2065     1.0  0.38101  0.38739  0.78818  1.0000
  H   H2066     1.0  0.56565  0.06688  0.84819  1.0000
  H   H2067     1.0  0.65363  0.35298  0.81949  1.0000
  C   C1200     1.0  0.51237  0.31621  0.84119  1.0000
  C   C1201     1.0  0.52031  0.31868  0.82241  1.0000
  C   C1202     1.0  0.50957  0.32043  0.80945  1.0000
  C   C1203     1.0  0.49095  0.31934  0.81521  1.0000
  C   C1204     1.0  0.48304  0.31697  0.83397  1.0000
  C   C1205     1.0  0.49370  0.31547  0.84688  1.0000
  H   H2068     1.0  0.53468  0.31926  0.81787  1.0000
  H   H2069     1.0  0.51581  0.32218  0.79497  1.0000
  H   H2070     1.0  0.46868  0.31634  0.83854  1.0000
  H   H2071     1.0  0.48745  0.31371  0.86137  1.0000
  C   C1206     1.0  0.61469  0.36058  0.84618  1.0000
  H   H2072     1.0  0.37674  0.16016  0.86778  1.0000
  H   H2073     1.0  0.48536  0.25813  0.77806  1.0000
  H   H2074     1.0  0.57839  0.37771  0.78985  1.0000
  C   C1207     1.0  0.37345  0.99217  0.87503  1.0000
  C   C1208     1.0  0.56009  0.26368  0.78139  1.0000
  C   C1209     1.0  0.57858  0.25509  0.77752  1.0000
  C   C1210     1.0  0.59172  0.26089  0.78332  1.0000
  C   C1211     1.0  0.58633  0.27496  0.79337  1.0000
  C   C1212     1.0  0.56787  0.28361  0.79710  1.0000
  C   C1213     1.0  0.55489  0.27825  0.79077  1.0000
  H   H2075     1.0  0.58273  0.24391  0.77020  1.0000
  H   H2076     1.0  0.60601  0.25421  0.78036  1.0000
  H   H2077     1.0  0.56363  0.29464  0.80461  1.0000
  H   H2078     1.0  0.54077  0.28550  0.79312  1.0000
  C   C1214     1.0  0.55820  0.24093  0.93107  1.0000
  C   C1215     1.0  0.57687  0.23388  0.93074  1.0000
  C   C1216     1.0  0.58998  0.24254  0.91754  1.0000
  C   C1217     1.0  0.58445  0.25811  0.90449  1.0000
  C   C1218     1.0  0.56579  0.26472  0.90437  1.0000
  C   C1219     1.0  0.55267  0.25614  0.91768  1.0000
  H   H2079     1.0  0.56144  0.27676  0.89433  1.0000
  H   H2080     1.0  0.53823  0.26159  0.91783  1.0000
  C   C1220     1.0  0.41315  0.21898  0.89476  1.0000
  C   C1221     1.0  0.43140  0.21119  0.88811  1.0000
  C   C1222     1.0  0.44124  0.22008  0.87166  1.0000
  C   C1223     1.0  0.43306  0.23704  0.86207  1.0000
  C   C1224     1.0  0.41497  0.24507  0.86893  1.0000
  C   C1225     1.0  0.40493  0.23588  0.88507  1.0000
  H   H2081     1.0  0.43782  0.19816  0.89544  1.0000
  H   H2082     1.0  0.45524  0.21381  0.86640  1.0000
  H   H2083     1.0  0.40857  0.25817  0.86161  1.0000
  H   H2084     1.0  0.39081  0.24194  0.89016  1.0000
  C   C1226     1.0  0.58292  0.15394  0.82418  1.0000
  C   C1227     1.0  0.58240  0.13950  0.81648  1.0000
  C   C1228     1.0  0.57923  0.14306  0.79859  1.0000
  C   C1229     1.0  0.57632  0.16113  0.78842  1.0000
  C   C1230     1.0  0.57684  0.17561  0.79610  1.0000
  C   C1231     1.0  0.58041  0.17197  0.81388  1.0000
  H   H2085     1.0  0.58459  0.12559  0.82429  1.0000
  H   H2086     1.0  0.57878  0.13187  0.79268  1.0000
  H   H2087     1.0  0.57459  0.18959  0.78831  1.0000
  H   H2088     1.0  0.58091  0.18318  0.81976  1.0000
  C   C1232     1.0  0.57115  0.12341  0.94406  1.0000
  C   C1233     1.0  0.58731  0.12865  0.93323  1.0000
  C   C1234     1.0  0.59691  0.13788  0.94013  1.0000
  C   C1235     1.0  0.59003  0.14228  0.95760  1.0000
  C   C1236     1.0  0.57396  0.13691  0.96834  1.0000
  C   C1237     1.0  0.56472  0.12732  0.96169  1.0000
  H   H2089     1.0  0.59248  0.12546  0.91968  1.0000
  H   H2090     1.0  0.60940  0.14196  0.93180  1.0000
  H   H2091     1.0  0.45757  0.21258  0.96217  1.0000
  H   H2092     1.0  0.55245  0.12306  0.97026  1.0000
  C   C1238     1.0  0.41127  0.14704  0.79506  1.0000
  C   C1239     1.0  0.40477  0.16525  0.78689  1.0000
  C   C1240     1.0  0.40013  0.16938  0.76959  1.0000
  C   C1241     1.0  0.40240  0.15534  0.76018  1.0000
  C   C1242     1.0  0.40840  0.13703  0.76856  1.0000
  C   C1243     1.0  0.41278  0.13286  0.78605  1.0000
  H   H2093     1.0  0.40341  0.17616  0.79393  1.0000
  H   H2094     1.0  0.39494  0.18346  0.76350  1.0000
  H   H2095     1.0  0.41003  0.12610  0.76140  1.0000
  H   H2096     1.0  0.41768  0.11874  0.79238  1.0000
  C   C1244     1.0  0.40587  0.10317  0.91185  1.0000
  C   C1245     1.0  0.42476  0.09660  0.91038  1.0000
  C   C1246     1.0  0.43401  0.10105  0.92173  1.0000
  C   C1247     1.0  0.39631  0.11427  0.92460  1.0000
  H   H2097     1.0  0.43220  0.08794  0.90066  1.0000
  H   H2098     1.0  0.44860  0.09578  0.92069  1.0000
  H   H2099     1.0  0.38166  0.11924  0.92588  1.0000
  C   C1248     1.0  0.48745  0.08447  0.85770  1.0000
  C   C1249     1.0  0.50611  0.08513  0.85306  1.0000
  C   C1250     1.0  0.51266  0.09644  0.86052  1.0000
  C   C1251     1.0  0.50046  0.10743  0.87221  1.0000
  C   C1252     1.0  0.48195  0.10639  0.87725  1.0000
  C   C1253     1.0  0.47553  0.09464  0.87027  1.0000
  H   H2100     1.0  0.51542  0.07729  0.84336  1.0000
  H   H2101     1.0  0.52701  0.09712  0.85668  1.0000
  H   H2102     1.0  0.47261  0.11450  0.88672  1.0000
  H   H2103     1.0  0.46139  0.09332  0.87480  1.0000
  C   C1254     1.0  0.41989  0.15680  0.89459  1.0000
  C   C1255     1.0  0.36186  0.47052  0.83622  1.0000
  C   C1256     1.0  0.41365  0.01812  0.82201  1.0000
  C   C1257     1.0  0.41929  0.03053  0.82900  1.0000
  C   C1258     1.0  0.43419  0.02430  0.83780  1.0000
  H   H2104     1.0  0.60071  0.27133  0.93008  1.0000
  H   H2105     1.0  0.62828  0.34850  0.88733  1.0000
  H   H2106     1.0  0.40222  0.02294  0.81504  1.0000
  H   H2107     1.0  0.43873  0.03377  0.84309  1.0000
  N   N85       1.0  0.50527  0.25809  0.84113  1.0000
  C   C1259     1.0  0.48490  0.26506  0.84701  1.0000
  C   C1260     1.0  0.51459  0.25982  0.85557  1.0000
  C   C1261     1.0  0.50824  0.23834  0.83957  1.0000
  C   C1262     1.0  0.47576  0.25588  0.86636  1.0000
  C   C1263     1.0  0.53497  0.26132  0.84946  1.0000
  C   C1264     1.0  0.52786  0.22887  0.83158  1.0000
  H   H2108     1.0  0.48188  0.28011  0.84659  1.0000
  H   H2109     1.0  0.47721  0.26323  0.83738  1.0000
  H   H2110     1.0  0.50757  0.27247  0.86115  1.0000
  H   H2111     1.0  0.51357  0.24810  0.86754  1.0000
  H   H2112     1.0  0.50437  0.22963  0.85334  1.0000
  H   H2113     1.0  0.49875  0.23658  0.83163  1.0000
  H   H2114     1.0  0.47621  0.24113  0.86736  1.0000
  H   H2115     1.0  0.48167  0.25763  0.87739  1.0000
  H   H2116     1.0  0.46099  0.26259  0.86903  1.0000
  H   H2117     1.0  0.54369  0.25022  0.84252  1.0000
  H   H2118     1.0  0.53654  0.27487  0.84034  1.0000
  H   H2119     1.0  0.53602  0.22287  0.84250  1.0000
  H   H2120     1.0  0.53548  0.23779  0.82014  1.0000
  H   H2121     1.0  0.52705  0.21768  0.82527  1.0000
  C   C1265     1.0  0.44001  0.21703  0.81179  1.0000
  C   C1266     1.0  0.45417  0.20196  0.80282  1.0000
  H   H2122     1.0  0.44723  0.22804  0.81132  1.0000
  H   H2123     1.0  0.43638  0.21097  0.82663  1.0000
  H   H2124     1.0  0.45882  0.20655  0.78780  1.0000
  H   H2125     1.0  0.46653  0.19840  0.80894  1.0000
  H   H2126     1.0  0.44887  0.18917  0.80560  1.0000
  H   H2127     1.0  0.44863  0.14764  0.88056  1.0000
  H   H2128     1.0  0.47205  0.15878  0.97963  1.0000
  N   N86       1.0  0.50168  0.11954  0.94553  1.0000
  C   C1267     1.0  0.50505  0.12676  0.92499  1.0000
  C   C1268     1.0  0.51134  0.09962  0.94868  1.0000
  C   C1269     1.0  0.50978  0.13062  0.95390  1.0000
  C   C1270     1.0  0.48126  0.12197  0.95254  1.0000
  C   C1271     1.0  0.49884  0.14770  0.91848  1.0000
  C   C1272     1.0  0.50412  0.08675  0.94098  1.0000
  C   C1273     1.0  0.59187  0.28729  0.97722  1.0000
  C   C1274     1.0  0.58586  0.32899  0.76556  1.0000
  H   H2129     1.0  0.51992  0.12318  0.91879  1.0000
  H   H2130     1.0  0.49788  0.12024  0.91831  1.0000
  H   H2131     1.0  0.51093  0.09349  0.96344  1.0000
  H   H2132     1.0  0.52623  0.09837  0.94250  1.0000
  H   H2133     1.0  0.52294  0.13365  0.94492  1.0000
  H   H2134     1.0  0.50063  0.14427  0.95473  1.0000
  H   H2135     1.0  0.47481  0.13681  0.95098  1.0000
  H   H2136     1.0  0.47466  0.11708  0.94387  1.0000
  H   H2137     1.0  0.50183  0.15106  0.90321  1.0000
  H   H2138     1.0  0.48388  0.15240  0.92299  1.0000
  H   H2139     1.0  0.50640  0.15570  0.92296  1.0000
  H   H2140     1.0  0.51173  0.07244  0.94485  1.0000
  H   H2141     1.0  0.48936  0.08680  0.94679  1.0000
  H   H2142     1.0  0.50655  0.09009  0.92573  1.0000
  C   C1275     1.0  0.54329  0.26361  0.97740  1.0000
  C   C1276     1.0  0.32460  0.35717  0.79664  1.0000
  H   H2143     1.0  0.33254  0.31536  0.79355  1.0000
  H   H2144     1.0  0.35080  0.44010  0.85679  1.0000
  H   H2145     1.0  0.34725  0.47075  0.84294  1.0000
  H   H2146     1.0  0.57070  0.35707  0.79138  1.0000
  C   C1277     1.0  0.58567  0.17734  0.88277  1.0000
  C   C1278     1.0  0.47716  0.27229  0.75217  1.0000
  H   H2147     1.0  0.38046  0.46649  0.81071  1.0000
  H   H2148     1.0  0.52597  0.11026  0.97263  1.0000
  H   H2149     1.0  0.39190  0.40292  0.84148  1.0000
  H   H2150     1.0  0.36086  0.46629  0.78262  1.0000
  H   H2151     1.0  0.34538  0.30059  0.83869  1.0000
  C   C1279     1.0  0.63582  0.07634  0.81068  1.0000
  C   C1280     1.0  0.63374  0.03637  0.81389  1.0000
  H   H2152     1.0  0.37390  0.19008  0.90348  1.0000
  H   H2153     1.0  0.44549  0.19198  0.75107  1.0000
  C   C1281     1.0  0.58251  0.01380  0.85700  1.0000
  H   H2154     1.0  0.60548  0.28041  0.97059  1.0000
  H   H2155     1.0  0.47187  0.00670  0.87979  1.0000
  N   N87       1.0  0.57805  0.26417  0.96809  1.0000
  C   C1282     1.0  0.63501  0.37161  0.86605  1.0000
  H   H2156     1.0  0.43086  0.15175  0.85809  1.0000
  C   C1283     1.0  0.34250  0.43548  0.84977  1.0000
  H   H2157     1.0  0.37816  0.34656  0.76541  1.0000
  H   H2158     1.0  0.61144  0.05681  0.80507  1.0000
  C   C1284     1.0  0.43689  0.99316  0.83379  1.0000
  H   H2159     1.0  0.61996  0.37754  0.73381  1.0000
  H   H2160     1.0  0.62893  0.44646  0.85145  1.0000
  H   H2161     1.0  0.62600  0.09863  0.78888  1.0000
  H   H2162     1.0  0.59869  0.34558  0.80013  1.0000
  C   C1285     1.0  0.49549  0.01816  0.86422  1.0000
  C   C1286     1.0  0.34542  0.35050  0.79023  1.0000
  H   H2163     1.0  0.37102  0.46280  0.84585  1.0000
  C   C1287     1.0  0.52808  0.03986  0.87947  1.0000
  H   H2164     1.0  0.35302  0.29423  0.81666  1.0000
  H   H2165     1.0  0.34915  0.33321  0.82349  1.0000
  N   N88       1.0  0.61091  0.34238  0.77225  1.0000
  C   C1288     1.0  0.46751  0.31326  0.74993  1.0000
  H   H2166     1.0  0.54038  0.26064  0.86176  1.0000
  C   C1289     1.0  0.58130  0.36528  0.78387  1.0000
  C   C1290     1.0  0.51168  0.27020  0.82304  1.0000
  H   H2167     1.0  0.59480  0.07719  0.84116  1.0000
  C   C1291     1.0  0.36674  0.46352  0.81814  1.0000
  H   H2168     1.0  0.48240  0.01424  0.89383  1.0000
  N   N89       1.0  0.61901  0.42984  0.89164  1.0000
  C   C1292     1.0  0.63267  0.44214  0.88747  1.0000
  H   H2169     1.0  0.43589  0.12953  0.88948  1.0000
  H   H2170     1.0  0.38246  0.32263  0.76311  1.0000
  C   C1293     1.0  0.60038  0.43999  0.89988  1.0000
  H   H2171     1.0  0.42252  0.27961  0.73348  1.0000
  H   H2172     1.0  0.37793  0.33318  0.80025  1.0000
  C   C1294     1.0  0.60338  0.08182  0.82752  1.0000
  C   C1295     1.0  0.58342  0.43463  0.89703  1.0000
  H   H2173     1.0  0.59718  0.09178  0.79947  1.0000
  H   H2174     1.0  0.62821  0.45546  0.87826  1.0000
  C   C1296     1.0  0.52194  0.02517  0.82923  1.0000
  H   H2175     1.0  0.51050  0.99295  0.82129  1.0000
  H   H2176     1.0  0.46050  0.25224  0.98215  1.0000
  H   H2177     1.0  0.59897  0.43843  0.91498  1.0000
  H   H2178     1.0  0.59873  0.45508  0.89432  1.0000
  H   H2179     1.0  0.54029  0.02853  0.87991  1.0000
  Fe  Fe182     1.0  0.38468  0.22984  0.73342  1.0000
  C   C1297     1.0  0.61930  0.42462  0.87390  1.0000
  S   S367      1.0  0.49529  0.22011  0.74810  1.0000
  H   H2180     1.0  0.56339  0.28823  0.95186  1.0000
  C   C1298     1.0  0.52753  0.00400  0.86808  1.0000
  H   H2181     1.0  0.60634  0.04571  0.82823  1.0000
  H   H2182     1.0  0.47744  0.17554  0.85333  1.0000
  H   H2183     1.0  0.35478  0.33307  0.75667  1.0000
  H   H2184     1.0  0.57090  0.44164  0.90546  1.0000
  C   C1299     1.0  0.62715  0.05949  0.84203  1.0000
  H   H2185     1.0  0.60654  0.09493  0.82832  1.0000
  C   C1300     1.0  0.48400  0.30332  0.73738  1.0000
  C   C1301     1.0  0.51419  0.12211  0.97314  1.0000
  C   C1302     1.0  0.38308  0.33203  0.77167  1.0000
  C   C1303     1.0  0.57051  0.05214  0.85060  1.0000
  H   H2186     1.0  0.62938  0.02629  0.80864  1.0000
  C   C1304     1.0  0.61408  0.39773  0.91093  1.0000
  N   N90       1.0  0.44860  0.22953  0.98258  1.0000
  H   H2187     1.0  0.39633  0.00577  0.88520  1.0000
  C   C1305     1.0  0.61626  0.44085  0.85757  1.0000
  C   C1306     1.0  0.45373  0.22742  0.96279  1.0000
  H   H2188     1.0  0.35553  0.30558  0.78484  1.0000
  H   H2189     1.0  0.62186  0.38516  0.91864  1.0000
  H   H2190     1.0  0.62102  0.38398  0.82512  1.0000
  H   H2191     1.0  0.43080  0.26006  0.96190  1.0000
  S   S368      1.0  0.39937  0.16072  0.73737  1.0000
  C   C1307     1.0  0.37446  0.00286  0.85494  1.0000
  C   C1308     1.0  0.60063  0.35420  0.78607  1.0000
  C   C1309     1.0  0.59048  0.08671  0.81376  1.0000
  C   C1310     1.0  0.34591  0.32423  0.81593  1.0000
  C   C1311     1.0  0.63204  0.32201  0.79435  1.0000
  C   C1312     1.0  0.50628  0.18771  0.97985  1.0000
  H   H2192     1.0  0.44182  0.17980  0.84381  1.0000
  H   H2193     1.0  0.41555  0.24056  0.77812  1.0000
  H   H2194     1.0  0.43384  0.22183  0.77553  1.0000
  S   S369      1.0  0.44154  0.16821  0.92803  1.0000
  H   H2195     1.0  0.41292  0.16873  0.84994  1.0000
  S   S370      1.0  0.40199  0.16678  0.95761  1.0000
  H   H2196     1.0  0.57476  0.34062  0.76907  1.0000
  H   H2197     1.0  0.61473  0.08184  0.85756  1.0000
  C   C1313     1.0  0.61674  0.35069  0.86381  1.0000
  H   H2198     1.0  0.61064  0.33873  0.86979  1.0000
  H   H2199     1.0  0.39786  0.33056  0.77142  1.0000
  H   H2200     1.0  0.39610  0.14798  0.85333  1.0000
  H   H2201     1.0  0.58125  0.22190  0.94075  1.0000
  H   H2202     1.0  0.44195  0.23264  0.95579  1.0000
  S   S371      1.0  0.57998  0.20358  0.97869  1.0000
  H   H2203     1.0  0.59601  0.24128  0.95677  1.0000
  H   H2204     1.0  0.39045  0.40630  0.81805  1.0000
  H   H2205     1.0  0.51450  0.99710  0.89819  1.0000
  H   H2206     1.0  0.50313  0.20066  0.95217  1.0000
  H   H2207     1.0  0.50552  0.02646  0.89283  1.0000
  C   C1314     1.0  0.57426  0.02270  0.84199  1.0000
  H   H2208     1.0  0.52661  0.26636  0.81802  1.0000
  H   H2209     1.0  0.50949  0.28447  0.82491  1.0000
  H   H2210     1.0  0.50447  0.25700  0.80418  1.0000
  H   H2211     1.0  0.42292  0.19367  0.85650  1.0000
  H   H2212     1.0  0.59750  0.32061  0.78966  1.0000
  H   H2213     1.0  0.55514  0.21825  0.90849  1.0000
  C   C1315     1.0  0.43211  0.17992  0.85725  1.0000
  C   C1316     1.0  0.49910  0.19043  0.96415  1.0000
  C   C1317     1.0  0.50266  0.27081  0.80711  1.0000
  H   H2214     1.0  0.48801  0.27759  0.80955  1.0000
  C   C1318     1.0  0.62669  0.35631  0.87375  1.0000
  H   H2215     1.0  0.53385  0.13212  0.80010  1.0000
  H   H2216     1.0  0.53470  0.21652  0.89011  1.0000
  Fe  Fe183     1.0  0.41522  0.18781  0.93558  1.0000
  S   S372      1.0  0.47825  0.18351  0.94400  1.0000
  C   C1319     1.0  0.48670  0.18005  0.96401  1.0000
  H   H2217     1.0  0.52493  0.16971  0.77667  1.0000
  C   C1320     1.0  0.54961  0.21345  0.88419  1.0000
  C   C1321     1.0  0.42799  0.23289  0.78355  1.0000
  C   C1322     1.0  0.45487  0.14015  0.73671  1.0000
  H   H2218     1.0  0.45294  0.12431  0.76526  1.0000
  S   S373      1.0  0.58527  0.05584  0.87839  1.0000
  C   C1323     1.0  0.42455  0.11271  0.93400  1.0000
  H   H2219     1.0  0.42319  0.27178  0.98070  1.0000
  C   C1324     1.0  0.38115  0.43146  0.82960  1.0000
  H   H2220     1.0  0.45489  0.31730  0.74421  1.0000
  Fe  Fe184     1.0  0.57847  0.17410  0.98190  1.0000
  H   H2221     1.0  0.60443  0.23731  0.91752  1.0000
  H   H2222     1.0  0.52734  0.11350  0.81794  1.0000
  H   H2223     1.0  0.59556  0.20035  0.90930  1.0000
  C   C1325     1.0  0.56099  0.20810  0.89934  1.0000
  H   H2224     1.0  0.57476  0.21099  0.89259  1.0000
  N   N91       1.0  0.42303  0.22493  0.80379  1.0000
  H   H2225     1.0  0.48644  0.14828  0.74353  1.0000
  C   C1326     1.0  0.40569  0.11939  0.93536  1.0000
  Fe  Fe185     1.0  0.52590  0.21877  0.74262  1.0000
  H   H2226     1.0  0.51526  0.19633  0.98008  1.0000
  C   C1327     1.0  0.56334  0.25288  0.97599  1.0000
  H   H2227     1.0  0.36705  0.17365  0.89561  1.0000
  C   C1328     1.0  0.63283  0.38159  0.84849  1.0000
  C   C1329     1.0  0.53102  0.12716  0.81525  1.0000
  H   H2228     1.0  0.54065  0.15974  0.80033  1.0000
  H   H2229     1.0  0.54369  0.12499  0.82051  1.0000
  H   H2230     1.0  0.53663  0.19756  0.92948  1.0000
  H   H2231     1.0  0.42105  0.19910  0.79861  1.0000
  H   H2232     1.0  0.41004  0.20274  0.82101  1.0000
  H   H2233     1.0  0.36347  0.48506  0.83294  1.0000
  H   H2234     1.0  0.51205  0.04702  0.84403  1.0000
  H   H2235     1.0  0.53461  0.03504  0.84532  1.0000
  C   C1330     1.0  0.48138  0.16703  0.97968  1.0000
  Fe  Fe186     1.0  0.45056  0.17650  0.94964  1.0000
  H   H2236     1.0  0.50934  0.27940  0.79446  1.0000
  C   C1331     1.0  0.42245  0.99946  0.82435  1.0000
  H   H2237     1.0  0.45960  0.15097  0.76624  1.0000
  C   C1332     1.0  0.34586  0.31903  0.78565  1.0000
  H   H2238     1.0  0.56659  0.19655  0.93386  1.0000
  H   H2239     1.0  0.41993  0.24980  0.81362  1.0000
  H   H2240     1.0  0.62618  0.07605  0.78569  1.0000
  N   N92       1.0  0.45939  0.15810  0.73702  1.0000
  H   H2241     1.0  0.53001  0.03298  0.81698  1.0000
  H   H2242     1.0  0.62547  0.32902  0.80605  1.0000
  C   C1333     1.0  0.46129  0.12335  0.75129  1.0000
  H   H2243     1.0  0.54515  0.14885  0.83108  1.0000
  H   H2244     1.0  0.59923  0.18559  0.93051  1.0000
  C   C1334     1.0  0.41272  0.20990  0.80633  1.0000
  C   C1335     1.0  0.42112  0.16468  0.86087  1.0000
  H   H2245     1.0  0.61551  0.22949  0.97953  1.0000
  H   H2246     1.0  0.46478  0.30503  0.76405  1.0000
  H   H2247     1.0  0.56495  0.24254  0.96756  1.0000
  H   H2248     1.0  0.53130  0.05110  0.86760  1.0000
  C   C1336     1.0  0.59328  0.18704  0.91833  1.0000
  C   C1337     1.0  0.41146  0.24011  0.81343  1.0000
  H   H2249     1.0  0.44233  0.25268  0.76328  1.0000
  H   H2250     1.0  0.38819  0.18385  0.86966  1.0000
  Fe  Fe187     1.0  0.42927  0.14781  0.95138  1.0000
  S   S374      1.0  0.43652  0.11850  0.94766  1.0000
  S   S375      1.0  0.42537  0.19813  0.95518  1.0000
  H   H2251     1.0  0.39827  0.12819  0.94497  1.0000
  H   H2252     1.0  0.52499  0.16873  0.93821  1.0000
  H   H2253     1.0  0.33320  0.38461  0.83147  1.0000
  H   H2254     1.0  0.64947  0.06688  0.81039  1.0000
  H   H2255     1.0  0.49284  0.99301  0.88531  1.0000
  H   H2256     1.0  0.38580  0.44203  0.79366  1.0000
  H   H2257     1.0  0.59890  0.35775  0.74858  1.0000
  C   C1338     1.0  0.62835  0.07337  0.85293  1.0000
  H   H2258     1.0  0.64101  0.05048  0.83990  1.0000
  H   H2259     1.0  0.34430  0.45148  0.79282  1.0000
  C   C1339     1.0  0.54248  0.18719  0.92053  1.0000
  C   C1340     1.0  0.40192  0.23405  0.83361  1.0000
  C   C1341     1.0  0.44125  0.24634  0.77812  1.0000
  H   H2260     1.0  0.39129  0.22617  0.83490  1.0000
  H   H2261     1.0  0.63993  0.40623  0.89932  1.0000
  H   H2262     1.0  0.54012  0.27075  0.96373  1.0000
  H   H2263     1.0  0.49851  0.16432  0.86050  1.0000
  H   H2264     1.0  0.46312  0.27746  0.75962  1.0000
  H   H2265     1.0  0.34000  0.14707  0.74010  1.0000
  C   C1342     1.0  0.40099  0.26420  0.74369  1.0000
  C   C1343     1.0  0.41178  0.27585  0.74499  1.0000
  H   H2266     1.0  0.55262  0.20280  0.87587  1.0000
  N   N93       1.0  0.56185  0.18878  0.91058  1.0000
  H   H2267     1.0  0.53328  0.19018  0.91063  1.0000
  C   C1344     1.0  0.57285  0.18614  0.92506  1.0000
  C   C1345     1.0  0.44296  0.00570  0.84014  1.0000
  H   H2268     1.0  0.43621  0.25777  0.78564  1.0000
  H   H2269     1.0  0.60484  0.45213  0.86155  1.0000
  H   H2270     1.0  0.61148  0.39357  0.89920  1.0000
  H   H2271     1.0  0.47605  0.12134  0.75133  1.0000
  H   H2272     1.0  0.61252  0.31449  0.76953  1.0000
  H   H2273     1.0  0.42989  0.99666  0.88195  1.0000
  C   C1346     1.0  0.35896  0.45186  0.78700  1.0000
  C   C1347     1.0  0.45298  0.18014  0.75974  1.0000
  H   H2274     1.0  0.54641  0.16446  0.94466  1.0000
  H   H2275     1.0  0.47072  0.32613  0.75122  1.0000
  C   C1348     1.0  0.57956  0.04332  0.86509  1.0000
  H   H2276     1.0  0.45531  0.23931  0.78006  1.0000
  C   C1349     1.0  0.56834  0.04191  0.83878  1.0000
  S   S376      1.0  0.44054  0.15450  0.97256  1.0000
  H   H2277     1.0  0.39477  0.43497  0.82262  1.0000
  H   H2278     1.0  0.37160  0.42558  0.80043  1.0000
  H   H2279     1.0  0.33687  0.45119  0.82343  1.0000
  H   H2280     1.0  0.52537  0.04559  0.89203  1.0000
  H   H2281     1.0  0.65441  0.32263  0.82646  1.0000
  H   H2282     1.0  0.63760  0.08816  0.81545  1.0000
  H   H2283     1.0  0.50817  0.02679  0.82626  1.0000
  C   C1350     1.0  0.51489  0.14024  0.82495  1.0000
  H   H2284     1.0  0.51141  0.13289  0.83943  1.0000
  H   H2285     1.0  0.54080  0.18296  0.82727  1.0000
  H   H2286     1.0  0.40061  0.24859  0.80591  1.0000
  H   H2287     1.0  0.39481  0.24652  0.83932  1.0000
  H   H2288     1.0  0.40104  0.18986  0.88266  1.0000
  C   C1351     1.0  0.38793  0.14784  0.86750  1.0000
  S   S377      1.0  0.64855  0.37736  0.87847  1.0000
  C   C1352     1.0  0.39465  0.17867  0.88192  1.0000
  N   N94       1.0  0.40895  0.16143  0.87967  1.0000
  C   C1353     1.0  0.40010  0.14551  0.88141  1.0000
  H   H2289     1.0  0.59575  0.16414  0.88228  1.0000
  H   H2290     1.0  0.54458  0.17049  0.84934  1.0000
  H   H2291     1.0  0.52912  0.01065  0.83082  1.0000
  H   H2292     1.0  0.50265  0.14129  0.81928  1.0000
  C   C1354     1.0  0.53987  0.16820  0.93260  1.0000
  C   C1355     1.0  0.39431  0.21612  0.79975  1.0000
  H   H2293     1.0  0.41166  0.15142  0.90816  1.0000
  H   H2294     1.0  0.49714  0.00997  0.85368  1.0000
  H   H2295     1.0  0.33064  0.33953  0.76601  1.0000
  H   H2296     1.0  0.39156  0.14220  0.89536  1.0000
  C   C1356     1.0  0.59621  0.25081  0.96547  1.0000
  H   H2297     1.0  0.41780  0.98993  0.81924  1.0000
  H   H2298     1.0  0.52589  0.99402  0.86065  1.0000
  H   H2299     1.0  0.44363  0.13868  0.90461  1.0000
  Fe  Fe188     1.0  0.41459  0.17547  0.97676  1.0000
  H   H2300     1.0  0.60108  0.17538  0.91167  1.0000
  H   H2301     1.0  0.48594  0.03137  0.86015  1.0000
  C   C1357     1.0  0.53142  0.15653  0.83670  1.0000
  H   H2302     1.0  0.52704  0.14790  0.85039  1.0000
  H   H2303     1.0  0.39638  0.22115  0.78463  1.0000
  H   H2304     1.0  0.41062  0.13281  0.87989  1.0000
  H   H2305     1.0  0.42333  0.16933  0.89651  1.0000
  C   C1358     1.0  0.37156  0.44009  0.80029  1.0000
  H   H2306     1.0  0.36787  0.30260  0.82625  1.0000
  H   H2307     1.0  0.49053  0.17226  0.82143  1.0000
  H   H2308     1.0  0.60768  0.25775  0.95779  1.0000
  C   C1359     1.0  0.37319  0.32634  0.79170  1.0000
  H   H2309     1.0  0.38461  0.22694  0.80652  1.0000
  H   H2310     1.0  0.38746  0.20425  0.80309  1.0000
  H   H2311     1.0  0.57985  0.31645  0.77040  1.0000
  H   H2312     1.0  0.64397  0.45867  0.89925  1.0000
  H   H2313     1.0  0.32807  0.44246  0.85420  1.0000
  H   H2314     1.0  0.35680  0.47275  0.80990  1.0000
  C   C1360     1.0  0.52670  0.16758  0.80505  1.0000
  H   H2315     1.0  0.54477  0.15705  0.92468  1.0000
  C   C1361     1.0  0.51089  0.03343  0.87871  1.0000
  H   H2316     1.0  0.56193  0.04887  0.82718  1.0000
  H   H2317     1.0  0.63899  0.39350  0.84246  1.0000
  H   H2318     1.0  0.60106  0.40187  0.92051  1.0000
  N   N95       1.0  0.51828  0.15893  0.82425  1.0000
  C   C1362     1.0  0.51539  0.17072  0.79012  1.0000
  H   H2319     1.0  0.52193  0.18246  0.84711  1.0000
  H   H2320     1.0  0.50700  0.16028  0.79258  1.0000
  H   H2321     1.0  0.58362  0.41973  0.90125  1.0000
  C   C1363     1.0  0.37899  0.17667  0.89906  1.0000
  C   C1364     1.0  0.43795  0.14237  0.89192  1.0000
  H   H2322     1.0  0.58547  0.29230  0.92367  1.0000
  H   H2323     1.0  0.64535  0.43560  0.91168  1.0000
  H   H2324     1.0  0.57376  0.16059  0.90802  1.0000
  H   H2325     1.0  0.54124  0.98689  0.76446  1.0000
  H   H2326     1.0  0.50627  0.18456  0.78884  1.0000
  C   C1365     1.0  0.63020  0.33506  0.77562  1.0000
  H   H2327     1.0  0.57974  0.37059  0.76946  1.0000
  C   C1366     1.0  0.62265  0.37615  0.83867  1.0000
  H   H2328     1.0  0.43759  0.16015  0.76084  1.0000
  C   C1367     1.0  0.40370  0.99428  0.87801  1.0000
  C   C1368     1.0  0.53460  0.17432  0.84010  1.0000
  H   H2329     1.0  0.57886  0.09791  0.81767  1.0000
  H   H2330     1.0  0.64701  0.08328  0.78133  1.0000
  H   H2331     1.0  0.34877  0.35571  0.77517  1.0000
  H   H2332     1.0  0.52915  0.18132  0.80468  1.0000
  C   C1369     1.0  0.50026  0.17127  0.83032  1.0000
  H   H2333     1.0  0.62616  0.41608  0.91811  1.0000
  H   H2334     1.0  0.57272  0.17255  0.93442  1.0000
  H   H2335     1.0  0.55841  0.17236  0.89312  1.0000
  C   C1370     1.0  0.49023  0.16522  0.85030  1.0000
  H   H2336     1.0  0.50200  0.18563  0.82847  1.0000
  H   H2337     1.0  0.59332  0.18750  0.88323  1.0000
  H   H2338     1.0  0.48616  0.15185  0.85243  1.0000
  H   H2339     1.0  0.49630  0.30152  0.74329  1.0000
  C   C1371     1.0  0.63637  0.44724  0.90420  1.0000
  H   H2340     1.0  0.38312  0.16644  0.91109  1.0000
  H   H2341     1.0  0.34282  0.42056  0.85514  1.0000
  C   C1372     1.0  0.56942  0.17417  0.89913  1.0000
  H   H2342     1.0  0.50440  0.26106  0.75953  1.0000
  H   H2343     1.0  0.44386  0.27497  0.96450  1.0000
  H   H2344     1.0  0.48261  0.23135  0.95533  1.0000
  C   C1373     1.0  0.58544  0.02413  0.86831  1.0000
  C   C1374     1.0  0.34762  0.43963  0.82846  1.0000
  H   H2345     1.0  0.34595  0.42746  0.82415  1.0000
  H   H2346     1.0  0.47232  0.23326  0.93653  1.0000
  H   H2347     1.0  0.36721  0.00269  0.88367  1.0000
  H   H2348     1.0  0.58175  0.43927  0.88253  1.0000
  H   H2349     1.0  0.37912  0.43374  0.84369  1.0000
  H   H2350     1.0  0.59245  0.01722  0.87952  1.0000
  H   H2351     1.0  0.49109  0.28030  0.76993  1.0000
  H   H2352     1.0  0.62653  0.30948  0.79635  1.0000
  C   C1375     1.0  0.46958  0.23653  0.95039  1.0000
  C   C1376     1.0  0.60224  0.32608  0.77481  1.0000
  C   C1377     1.0  0.52753  0.99409  0.88836  1.0000
  H   H2353     1.0  0.54171  0.00645  0.86220  1.0000
  H   H2354     1.0  0.47655  0.25885  0.74961  1.0000
  H   H2355     1.0  0.58102  0.18113  0.86949  1.0000
  H   H2356     1.0  0.46605  0.25169  0.94852  1.0000
  H   H2357     1.0  0.60881  0.36382  0.78713  1.0000
  H   H2358     1.0  0.33071  0.32585  0.81950  1.0000
  C   C1378     1.0  0.49040  0.26789  0.76549  1.0000
  H   H2359     1.0  0.62068  0.34388  0.74301  1.0000
  N   N96       1.0  0.51371  0.02177  0.86472  1.0000
  H   H2360     1.0  0.58428  0.07497  0.81437  1.0000
  H   H2361     1.0  0.50009  0.04600  0.87602  1.0000
  C   C1379     1.0  0.61240  0.35301  0.75267  1.0000
  H   H2362     1.0  0.61305  0.43590  0.84659  1.0000
  C   C1380     1.0  0.34276  0.32805  0.76597  1.0000
  C   C1381     1.0  0.61713  0.05204  0.81773  1.0000
  H   H2363     1.0  0.38023  0.99384  0.84479  1.0000
  C   C1382     1.0  0.35361  0.30418  0.82461  1.0000
  H   H2364     1.0  0.33991  0.31767  0.75987  1.0000
  H   H2365     1.0  0.61797  0.05043  0.85145  1.0000
  H   H2366     1.0  0.60904  0.41617  0.87560  1.0000
  N   N97       1.0  0.48215  0.28532  0.73425  1.0000
  H   H2367     1.0  0.38234  0.01392  0.85179  1.0000
  N   N98       1.0  0.62083  0.06760  0.82401  1.0000
  C   C1383     1.0  0.46355  0.22465  0.73682  1.0000
  H   H2368     1.0  0.62355  0.45198  0.91375  1.0000
  H   H2369     1.0  0.64680  0.31727  0.79491  1.0000
  C   C1384     1.0  0.62560  0.41273  0.90503  1.0000
  H   H2370     1.0  0.36323  0.15093  0.73364  1.0000
  N   N99       1.0  0.35251  0.33007  0.79543  1.0000
  H   H2371     1.0  0.63698  0.34645  0.77490  1.0000
  H   H2372     1.0  0.58718  0.99902  0.85955  1.0000
  H   H2373     1.0  0.59032  0.33069  0.75040  1.0000
  H   H2374     1.0  0.63875  0.02868  0.82659  1.0000
  H   H2375     1.0  0.36266  0.44615  0.77432  1.0000
  H   H2376     1.0  0.41381  0.23642  0.97130  1.0000
  H   H2377     1.0  0.61333  0.38005  0.75720  1.0000
  S   S378      1.0  0.57161  0.01044  0.82663  1.0000
  C   C1385     1.0  0.63330  0.08401  0.79066  1.0000
  H   H2378     1.0  0.44606  0.18085  0.77420  1.0000
  H   H2379     1.0  0.36036  0.00974  0.85291  1.0000
  C   C1386     1.0  0.57440  0.27590  0.94980  1.0000
  H   H2380     1.0  0.36594  0.98990  0.91337  1.0000
  H   H2381     1.0  0.56908  0.26823  0.94250  1.0000
  H   H2382     1.0  0.37894  0.31147  0.79577  1.0000
  H   H2383     1.0  0.63562  0.36664  0.74870  1.0000
  H   H2384     1.0  0.46729  0.18148  0.75835  1.0000
  C   C1387     1.0  0.48535  0.00743  0.88201  1.0000
  C   C1388     1.0  0.59067  0.28279  0.93566  1.0000
  H   H2385     1.0  0.43978  0.14158  0.73845  1.0000
  H   H2386     1.0  0.59773  0.29044  0.94109  1.0000
  H   H2387     1.0  0.48338  0.10026  0.97803  1.0000
  H   H2388     1.0  0.53887  0.99678  0.89314  1.0000
  H   H2389     1.0  0.58781  0.30102  0.96854  1.0000
  C   C1389     1.0  0.57684  0.27597  0.98148  1.0000
  H   H2390     1.0  0.38890  0.99046  0.91483  1.0000
  H   H2391     1.0  0.46108  0.10950  0.97423  1.0000
  H   H2392     1.0  0.51838  0.13256  0.97802  1.0000
  H   H2393     1.0  0.35964  0.12865  0.73683  1.0000
  H   H2394     1.0  0.63338  0.06562  0.86563  1.0000
  H   H2395     1.0  0.65486  0.38268  0.80143  1.0000
  H   H2396     1.0  0.51453  0.99916  0.78542  1.0000
  H   H2397     1.0  0.56870  0.14005  0.98190  1.0000
  H   H2398     1.0  0.49038  0.98858  0.83797  1.0000
  H   H2399     1.0  0.48698  0.99587  0.77505  1.0000
  H   H2400     1.0  0.48474  0.00002  0.80572  1.0000
  S   S379      1.0  0.41088  0.20894  0.73364  1.0000
  H   H2401     1.0  0.47239  0.12313  0.98186  1.0000
  Fe  Fe189     1.0  0.58403  0.80725  0.09389  1.0000
  S   S380      1.0  0.57691  0.78764  0.12077  1.0000
  S   S381      1.0  0.58993  0.79366  0.06941  1.0000
  Fe  Fe190     1.0  0.57707  0.83938  0.11301  1.0000
  S   S382      1.0  0.56930  0.82228  0.14080  1.0000
  S   S383      1.0  0.57296  0.86936  0.11366  1.0000
  Fe  Fe191     1.0  0.59337  0.80103  0.13157  1.0000
  S   S384      1.0  0.60964  0.78643  0.15346  1.0000
  Fe  Fe192     1.0  0.55366  0.81060  0.12757  1.0000
  S   S385      1.0  0.52545  0.80668  0.14243  1.0000
  S   S386      1.0  0.60270  0.81897  0.10432  1.0000
  S   S387      1.0  0.55926  0.82931  0.10012  1.0000
  H   H2402     1.0  0.38118  0.81780  0.14298  1.0000
  H   H2403     1.0  0.42335  0.78018  0.15759  1.0000
  C   C1390     1.0  0.45259  0.97697  0.22724  1.0000
  H   H2404     1.0  0.41436  0.64774  0.17021  1.0000
  H   H2405     1.0  0.51394  0.82409  0.01981  1.0000
  Fe  Fe193     1.0  0.44537  0.82591  0.09575  1.0000
  S   S388      1.0  0.44573  0.79774  0.11362  1.0000
  S   S389      1.0  0.44343  0.85234  0.10457  1.0000
  Fe  Fe194     1.0  0.44886  0.81230  0.06033  1.0000
  S   S390      1.0  0.44986  0.78300  0.07511  1.0000
  S   S391      1.0  0.44981  0.82306  0.02986  1.0000
  Fe  Fe195     1.0  0.42738  0.79461  0.09666  1.0000
  S   S392      1.0  0.40125  0.78400  0.10726  1.0000
  Fe  Fe196     1.0  0.46821  0.78870  0.09059  1.0000
  S   S393      1.0  0.49529  0.77056  0.09437  1.0000
  S   S394      1.0  0.42486  0.82369  0.08072  1.0000
  S   S395      1.0  0.46926  0.81708  0.07397  1.0000
  H   H2406     1.0  0.39320  0.82806  0.15340  1.0000
  Fe  Fe197     1.0  0.44348  0.87260  0.19674  1.0000
  S   S396      1.0  0.47337  0.86237  0.19716  1.0000
  S   S397      1.0  0.43066  0.85283  0.18921  1.0000
  C   C1391     1.0  0.46254  0.95909  0.22630  1.0000
  Fe  Fe198     1.0  0.47569  0.89154  0.18474  1.0000
  S   S398      1.0  0.49884  0.89921  0.16195  1.0000
  H   H2407     1.0  0.42642  0.97836  0.16111  1.0000
  Fe  Fe199     1.0  0.59116  0.90775  0.18959  1.0000
  S   S399      1.0  0.56290  0.90562  0.20578  1.0000
  S   S400      1.0  0.60662  0.88532  0.17403  1.0000
  Fe  Fe200     1.0  0.59211  0.94003  0.20575  1.0000
  S   S401      1.0  0.42548  0.93467  0.21693  1.0000
  S   S402      1.0  0.60901  0.96013  0.20601  1.0000
  H   H2408     1.0  0.63032  0.63624  0.18324  1.0000
  H   H2409     1.0  0.36792  0.69659  0.19977  1.0000
  Fe  Fe201     1.0  0.55695  0.93633  0.19806  1.0000
  S   S403      1.0  0.52991  0.95194  0.19139  1.0000
  S   S404      1.0  0.60162  0.90946  0.21379  1.0000
  S   S405      1.0  0.58445  0.93847  0.17982  1.0000
  H   H2410     1.0  0.58406  0.83271  0.05189  1.0000
  C   C1392     1.0  0.53423  0.81066  0.05489  1.0000
  H   H2411     1.0  0.45283  0.77917  0.16489  1.0000
  C   C1393     1.0  0.52679  0.86098  0.18309  1.0000
  H   H2412     1.0  0.43895  0.76734  0.18423  1.0000
  C   C1394     1.0  0.43419  0.98156  0.22568  1.0000
  C   C1395     1.0  0.32800  0.53231  0.19295  1.0000
  H   H2413     1.0  0.50841  0.80960  0.05041  1.0000
  H   H2414     1.0  0.39166  0.67426  0.19583  1.0000
  S   S406      1.0  0.59509  0.70619  0.18703  1.0000
  H   H2415     1.0  0.54674  0.82726  0.02095  1.0000
  H   H2416     1.0  0.52036  0.78812  0.05958  1.0000
  S   S407      1.0  0.42027  0.69094  0.20196  1.0000
  H   H2417     1.0  0.51188  0.97581  0.21613  1.0000
  Fe  Fe202     1.0  0.40214  0.71796  0.20635  1.0000
  S   S408      1.0  0.38389  0.73623  0.18740  1.0000
  H   H2418     1.0  0.58409  0.84828  0.01921  1.0000
  C   C1396     1.0  0.43626  0.97359  0.17058  1.0000
  C   C1397     1.0  0.32618  0.52524  0.21185  1.0000
  C   C1398     1.0  0.54323  0.84499  0.17991  1.0000
  H   H2419     1.0  0.64808  0.63866  0.22260  1.0000
  H   H2420     1.0  0.55181  0.78226  0.01263  1.0000
  H   H2421     1.0  0.56701  0.76159  0.03730  1.0000
  H   H2422     1.0  0.52164  0.84865  0.14152  1.0000
  H   H2423     1.0  0.40013  0.66571  0.14721  1.0000
  H   H2424     1.0  0.51672  0.83191  0.21941  1.0000
  H   H2425     1.0  0.38696  0.81152  0.21318  1.0000
  C   C1399     1.0  0.44460  0.95313  0.17025  1.0000
  H   H2426     1.0  0.48884  0.78442  0.02607  1.0000
  H   H2427     1.0  0.50785  0.68130  0.20630  1.0000
  H   H2428     1.0  0.64658  0.81170  0.22509  1.0000
  H   H2429     1.0  0.52620  0.90592  0.22618  1.0000
  S   S409      1.0  0.58944  0.83452  0.98630  1.0000
  C   C1400     1.0  0.51708  0.89813  0.22377  1.0000
  C   C1401     1.0  0.54567  0.83431  0.21326  1.0000
  C   C1402     1.0  0.46670  0.97896  0.13426  1.0000
  H   H2430     1.0  0.47705  0.96858  0.14106  1.0000
  S   S410      1.0  0.43609  0.87917  0.22501  1.0000
  S   S411      1.0  0.32893  0.53823  0.22648  1.0000
  H   H2431     1.0  0.37815  0.67812  0.14369  1.0000
  H   H2432     1.0  0.38275  0.76389  0.21422  1.0000
  H   H2433     1.0  0.47344  0.96460  0.16993  1.0000
  H   H2434     1.0  0.55246  0.86790  0.19629  1.0000
  H   H2435     1.0  0.45432  0.95079  0.15735  1.0000
  H   H2436     1.0  0.36169  0.71436  0.18073  1.0000
  C   C1403     1.0  0.64984  0.61818  0.20745  1.0000
  C   C1404     1.0  0.59217  0.80397  0.01450  1.0000
  C   C1405     1.0  0.56343  0.85631  0.19199  1.0000
  C   C1406     1.0  0.60681  0.63991  0.21769  1.0000
  Fe  Fe203     1.0  0.40469  0.67901  0.22963  1.0000
  C   C1407     1.0  0.38243  0.77652  0.20320  1.0000
  S   S412      1.0  0.47186  0.89888  0.21198  1.0000
  H   H2437     1.0  0.45794  0.97193  0.13008  1.0000
  S   S413      1.0  0.44635  0.90141  0.18217  1.0000
  C   C1408     1.0  0.44011  0.78115  0.17562  1.0000
  H   H2438     1.0  0.34502  0.70231  0.19603  1.0000
  H   H2439     1.0  0.37501  0.78817  0.20989  1.0000
  H   H2440     1.0  0.36177  0.61092  0.22285  1.0000
  H   H2441     1.0  0.40545  0.81134  0.13917  1.0000
  H   H2442     1.0  0.33110  0.54585  0.18725  1.0000
  H   H2443     1.0  0.40791  0.76514  0.18771  1.0000
  H   H2444     1.0  0.40966  0.82223  0.17520  1.0000
  H   H2445     1.0  0.51927  0.85967  0.19756  1.0000
  H   H2446     1.0  0.65192  0.68952  0.20596  1.0000
  C   C1409     1.0  0.64238  0.67107  0.19489  1.0000
  C   C1410     1.0  0.40532  0.81070  0.18619  1.0000
  H   H2447     1.0  0.65485  0.61555  0.19328  1.0000
  H   H2448     1.0  0.43334  0.94583  0.17195  1.0000
  N   N100      1.0  0.40515  0.79465  0.17835  1.0000
  C   C1411     1.0  0.50750  0.91504  0.16846  1.0000
  C   C1412     1.0  0.52638  0.91452  0.16444  1.0000
  C   C1413     1.0  0.53334  0.92598  0.17136  1.0000
  C   C1414     1.0  0.52137  0.93825  0.18189  1.0000
  C   C1415     1.0  0.50249  0.93909  0.18549  1.0000
  C   C1416     1.0  0.49558  0.92748  0.17880  1.0000
  H   H2449     1.0  0.53565  0.90494  0.15642  1.0000
  H   H2450     1.0  0.54796  0.92534  0.16853  1.0000
  H   H2451     1.0  0.39445  0.70184  0.17257  1.0000
  H   H2452     1.0  0.48102  0.92796  0.18181  1.0000
  C   C1417     1.0  0.39777  0.76972  0.12920  1.0000
  C   C1418     1.0  0.41216  0.76037  0.13836  1.0000
  C   C1419     1.0  0.40838  0.74947  0.15620  1.0000
  C   C1420     1.0  0.39021  0.74823  0.16479  1.0000
  C   C1421     1.0  0.37605  0.75737  0.15542  1.0000
  C   C1422     1.0  0.37982  0.76791  0.13769  1.0000
  H   H2453     1.0  0.42613  0.76153  0.13171  1.0000
  H   H2454     1.0  0.41941  0.74230  0.16335  1.0000
  H   H2455     1.0  0.36200  0.75643  0.16197  1.0000
  H   H2456     1.0  0.36868  0.77502  0.13067  1.0000
  C   C1423     1.0  0.44041  0.85218  0.12809  1.0000
  C   C1424     1.0  0.43602  0.86895  0.13390  1.0000
  C   C1425     1.0  0.43347  0.86926  0.15260  1.0000
  C   C1426     1.0  0.43532  0.85279  0.16557  1.0000
  C   C1427     1.0  0.44038  0.83602  0.15969  1.0000
  C   C1428     1.0  0.44288  0.83570  0.14099  1.0000
  H   H2457     1.0  0.43431  0.88174  0.12393  1.0000
  H   H2458     1.0  0.42966  0.88225  0.15703  1.0000
  H   H2459     1.0  0.44251  0.82329  0.16961  1.0000
  H   H2460     1.0  0.44705  0.82278  0.13648  1.0000
  C   C1429     1.0  0.44157  0.78748  0.99409  1.0000
  C   C1430     1.0  0.34639  0.63874  0.22055  1.0000
  C   C1431     1.0  0.44260  0.81722  0.99897  1.0000
  C   C1432     1.0  0.44767  0.80896  0.01594  1.0000
  C   C1433     1.0  0.45035  0.78984  0.02166  1.0000
  C   C1434     1.0  0.44732  0.77913  0.01076  1.0000
  H   H2461     1.0  0.40893  0.68953  0.15597  1.0000
  H   H2462     1.0  0.44058  0.83199  0.99442  1.0000
  H   H2463     1.0  0.45461  0.78332  0.03455  1.0000
  H   H2464     1.0  0.44907  0.76438  0.01540  1.0000
  C   C1435     1.0  0.60651  0.76379  0.16248  1.0000
  C   C1436     1.0  0.60468  0.75300  0.15113  1.0000
  C   C1437     1.0  0.60170  0.73508  0.15863  1.0000
  C   C1438     1.0  0.60003  0.72813  0.17757  1.0000
  C   C1439     1.0  0.60183  0.73891  0.18893  1.0000
  C   C1440     1.0  0.60537  0.75661  0.18134  1.0000
  H   H2465     1.0  0.60590  0.75837  0.13650  1.0000
  H   H2466     1.0  0.60047  0.72673  0.14977  1.0000
  H   H2467     1.0  0.60063  0.73360  0.20356  1.0000
  H   H2468     1.0  0.60682  0.76491  0.19014  1.0000
  C   C1441     1.0  0.58181  0.87348  0.13098  1.0000
  C   C1442     1.0  0.59542  0.86027  0.13880  1.0000
  C   C1443     1.0  0.60304  0.86414  0.15185  1.0000
  C   C1444     1.0  0.59673  0.88100  0.15759  1.0000
  C   C1445     1.0  0.58265  0.89396  0.15027  1.0000
  C   C1446     1.0  0.57539  0.89029  0.13682  1.0000
  H   H2469     1.0  0.60053  0.84730  0.13433  1.0000
  H   H2470     1.0  0.61391  0.85405  0.15746  1.0000
  H   H2471     1.0  0.57774  0.90701  0.15457  1.0000
  H   H2472     1.0  0.56487  0.90056  0.13081  1.0000
  C   C1447     1.0  0.51723  0.79603  0.12953  1.0000
  C   C1448     1.0  0.52893  0.78932  0.11443  1.0000
  C   C1449     1.0  0.52236  0.78071  0.10413  1.0000
  C   C1450     1.0  0.50392  0.77939  0.10853  1.0000
  C   C1451     1.0  0.49225  0.78599  0.12372  1.0000
  C   C1452     1.0  0.49894  0.79417  0.13432  1.0000
  H   H2473     1.0  0.54304  0.79083  0.11052  1.0000
  H   H2474     1.0  0.53143  0.77559  0.09243  1.0000
  H   H2475     1.0  0.47813  0.78459  0.12743  1.0000
  H   H2476     1.0  0.48987  0.79933  0.14601  1.0000
  C   C1453     1.0  0.58943  0.80548  0.04652  1.0000
  C   C1454     1.0  0.58626  0.82467  0.04153  1.0000
  C   C1455     1.0  0.58631  0.83345  0.02301  1.0000
  H   H2477     1.0  0.44214  0.79001  0.18395  1.0000
  H   H2478     1.0  0.52176  0.77987  0.01462  1.0000
  C   C1456     1.0  0.51641  0.78497  0.02775  1.0000
  C   C1457     1.0  0.52664  0.81413  0.01532  1.0000
  H   H2479     1.0  0.53004  0.82580  0.05071  1.0000
  H   H2480     1.0  0.59488  0.78035  0.03670  1.0000
  H   H2481     1.0  0.35721  0.67490  0.18492  1.0000
  H   H2482     1.0  0.53121  0.87437  0.17849  1.0000
  H   H2483     1.0  0.63162  0.68305  0.19055  1.0000
  C   C1458     1.0  0.53059  0.82306  0.21666  1.0000
  H   H2484     1.0  0.57935  0.79646  0.18410  1.0000
  C   C1459     1.0  0.51048  0.87248  0.12095  1.0000
  Fe  Fe204     1.0  0.43813  0.69761  0.21749  1.0000
  H   H2485     1.0  0.44826  0.83375  0.22032  1.0000
  H   H2486     1.0  0.54913  0.80637  0.04985  1.0000
  C   C1460     1.0  0.43918  0.82516  0.23058  1.0000
  C   C1461     1.0  0.59234  0.79520  0.03294  1.0000
  H   H2487     1.0  0.50267  0.88403  0.12791  1.0000
  C   C1462     1.0  0.58926  0.82312  0.00945  1.0000
  H   H2488     1.0  0.53840  0.83798  0.00033  1.0000
  H   H2489     1.0  0.58048  0.86715  0.20356  1.0000
  H   H2490     1.0  0.41596  0.80692  0.19467  1.0000
  C   C1463     1.0  0.57138  0.82448  0.18826  1.0000
  H   H2491     1.0  0.60621  0.66566  0.17943  1.0000
  H   H2492     1.0  0.38589  0.64051  0.16990  1.0000
  H   H2493     1.0  0.55809  0.79382  0.02633  1.0000
  N   N101      1.0  0.54048  0.74403  0.16846  1.0000
  C   C1464     1.0  0.53395  0.74416  0.15150  1.0000
  C   C1465     1.0  0.52402  0.74675  0.18387  1.0000
  C   C1466     1.0  0.55301  0.72601  0.17432  1.0000
  C   C1467     1.0  0.55106  0.75917  0.16413  1.0000
  C   C1468     1.0  0.54913  0.74021  0.13465  1.0000
  C   C1469     1.0  0.51020  0.76517  0.18069  1.0000
  C   C1470     1.0  0.54552  0.70850  0.17697  1.0000
  C   C1471     1.0  0.55517  0.76394  0.18084  1.0000
  H   H2494     1.0  0.52464  0.73434  0.15451  1.0000
  H   H2495     1.0  0.52550  0.75782  0.14674  1.0000
  H   H2496     1.0  0.52830  0.74527  0.19706  1.0000
  H   H2497     1.0  0.51598  0.73587  0.18652  1.0000
  H   H2498     1.0  0.56635  0.72454  0.16437  1.0000
  H   H2499     1.0  0.55660  0.72545  0.18761  1.0000
  H   H2500     1.0  0.56446  0.75576  0.15464  1.0000
  H   H2501     1.0  0.54349  0.77199  0.15666  1.0000
  H   H2502     1.0  0.55810  0.72645  0.13739  1.0000
  H   H2503     1.0  0.54259  0.74054  0.12320  1.0000
  H   H2504     1.0  0.55757  0.75092  0.12961  1.0000
  H   H2505     1.0  0.50286  0.76597  0.16973  1.0000
  C   C1472     1.0  0.38561  0.66920  0.15448  1.0000
  H   H2506     1.0  0.41624  0.64740  0.19295  1.0000
  H   H2507     1.0  0.54287  0.70678  0.16405  1.0000
  H   H2508     1.0  0.53302  0.70802  0.18794  1.0000
  H   H2509     1.0  0.55604  0.69636  0.18140  1.0000
  H   H2510     1.0  0.56786  0.76961  0.17623  1.0000
  H   H2511     1.0  0.55756  0.75206  0.19225  1.0000
  H   H2512     1.0  0.54435  0.77522  0.18581  1.0000
  H   H2513     1.0  0.37680  0.80287  0.17467  1.0000
  C   C1473     1.0  0.39306  0.81508  0.14970  1.0000
  H   H2514     1.0  0.38955  0.70405  0.13320  1.0000
  H   H2515     1.0  0.56950  0.86161  0.17738  1.0000
  C   C1474     1.0  0.39089  0.79929  0.16667  1.0000
  C   C1475     1.0  0.36152  0.62474  0.22397  1.0000
  H   H2516     1.0  0.54457  0.75744  0.04043  1.0000
  S   S414      1.0  0.46901  0.69148  0.20776  1.0000
  H   H2517     1.0  0.59188  0.64564  0.22118  1.0000
  H   H2518     1.0  0.51620  0.77252  0.03897  1.0000
  N   N102      1.0  0.63563  0.65327  0.19932  1.0000
  Fe  Fe205     1.0  0.46636  0.87067  0.22434  1.0000
  H   H2519     1.0  0.53768  0.83334  0.17913  1.0000
  H   H2520     1.0  0.42189  0.66621  0.17513  1.0000
  C   C1476     1.0  0.37791  0.65138  0.16073  1.0000
  N   N103      1.0  0.49794  0.86206  0.11753  1.0000
  C   C1477     1.0  0.48349  0.87559  0.10817  1.0000
  C   C1478     1.0  0.48835  0.85161  0.13526  1.0000
  C   C1479     1.0  0.50924  0.84855  0.10576  1.0000
  C   C1480     1.0  0.49042  0.88637  0.08878  1.0000
  C   C1481     1.0  0.48031  0.86226  0.15093  1.0000
  C   C1482     1.0  0.49832  0.83797  0.09927  1.0000
  H   H2521     1.0  0.47291  0.86865  0.10702  1.0000
  H   H2522     1.0  0.47583  0.88601  0.11659  1.0000
  H   H2523     1.0  0.49750  0.83874  0.14069  1.0000
  H   H2524     1.0  0.47685  0.84681  0.13294  1.0000
  H   H2525     1.0  0.51815  0.85535  0.09343  1.0000
  H   H2526     1.0  0.51901  0.83802  0.11337  1.0000
  H   H2527     1.0  0.47839  0.89527  0.08326  1.0000
  H   H2528     1.0  0.49929  0.89558  0.08904  1.0000
  H   H2529     1.0  0.49765  0.87722  0.07898  1.0000
  H   H2530     1.0  0.47082  0.87535  0.14684  1.0000
  H   H2531     1.0  0.47241  0.85363  0.16253  1.0000
  H   H2532     1.0  0.49125  0.86500  0.15622  1.0000
  H   H2533     1.0  0.50811  0.82772  0.09171  1.0000
  H   H2534     1.0  0.48961  0.84714  0.08974  1.0000
  H   H2535     1.0  0.48968  0.83021  0.11095  1.0000
  H   H2536     1.0  0.38724  0.83351  0.19773  1.0000
  H   H2537     1.0  0.33467  0.66753  0.21966  1.0000
  H   H2538     1.0  0.49329  0.94817  0.19408  1.0000
  H   H2539     1.0  0.51800  0.87947  0.10771  1.0000
  N   N104      1.0  0.39268  0.79347  0.04934  1.0000
  C   C1483     1.0  0.40399  0.80523  0.05267  1.0000
  C   C1484     1.0  0.39774  0.77424  0.06028  1.0000
  C   C1485     1.0  0.37248  0.80065  0.05547  1.0000
  C   C1486     1.0  0.39651  0.79384  0.02903  1.0000
  C   C1487     1.0  0.39983  0.82584  0.04365  1.0000
  C   C1488     1.0  0.41667  0.76300  0.05293  1.0000
  C   C1489     1.0  0.36628  0.80320  0.07559  1.0000
  C   C1490     1.0  0.38701  0.78156  0.02299  1.0000
  H   H2540     1.0  0.40273  0.80416  0.06764  1.0000
  H   H2541     1.0  0.41881  0.80019  0.04754  1.0000
  H   H2542     1.0  0.38733  0.76598  0.06175  1.0000
  H   H2543     1.0  0.39777  0.77458  0.07466  1.0000
  H   H2544     1.0  0.36777  0.81400  0.04645  1.0000
  H   H2545     1.0  0.36437  0.79121  0.05395  1.0000
  H   H2546     1.0  0.39206  0.80797  0.02126  1.0000
  H   H2547     1.0  0.41142  0.79068  0.02328  1.0000
  H   H2548     1.0  0.40355  0.82812  0.02843  1.0000
  H   H2549     1.0  0.38541  0.83258  0.04823  1.0000
  H   H2550     1.0  0.40852  0.83303  0.04771  1.0000
  H   H2551     1.0  0.42792  0.76974  0.05249  1.0000
  H   H2552     1.0  0.41897  0.74943  0.06241  1.0000
  H   H2553     1.0  0.41761  0.76029  0.03917  1.0000
  H   H2554     1.0  0.36957  0.79014  0.08551  1.0000
  H   H2555     1.0  0.35116  0.80798  0.07867  1.0000
  H   H2556     1.0  0.37232  0.81379  0.07806  1.0000
  H   H2557     1.0  0.37347  0.78926  0.01991  1.0000
  H   H2558     1.0  0.38506  0.76881  0.03320  1.0000
  H   H2559     1.0  0.39584  0.77698  0.01039  1.0000
  H   H2560     1.0  0.54717  0.97860  0.20748  1.0000
  H   H2561     1.0  0.46229  0.93240  0.22247  1.0000
  C   C1491     1.0  0.42594  0.96835  0.22291  1.0000
  H   H2562     1.0  0.47680  0.95552  0.22736  1.0000
  C   C1492     1.0  0.37669  0.64667  0.22970  1.0000
  C   C1493     1.0  0.47557  0.70926  0.23171  1.0000
  C   C1494     1.0  0.46580  0.97722  0.17499  1.0000
  C   C1495     1.0  0.40233  0.77792  0.19337  1.0000
  H   H2563     1.0  0.53878  0.84685  0.21901  1.0000
  H   H2564     1.0  0.32826  0.52710  0.16662  1.0000
  H   H2565     1.0  0.35648  0.69272  0.16520  1.0000
  C   C1496     1.0  0.43950  0.80654  0.98811  1.0000
  H   H2566     1.0  0.64784  0.64847  0.17188  1.0000
  H   H2567     1.0  0.45141  0.94647  0.18207  1.0000
  S   S415      1.0  0.32740  0.63498  0.21377  1.0000
  H   H2568     1.0  0.58152  0.82115  0.19725  1.0000
  H   H2569     1.0  0.48903  0.79846  0.04118  1.0000
  Fe  Fe206     1.0  0.58456  0.70326  0.21744  1.0000
  H   H2570     1.0  0.59463  0.79586  0.00417  1.0000
  C   C1497     1.0  0.36398  0.68642  0.17665  1.0000
  C   C1498     1.0  0.56662  0.80588  0.18937  1.0000
  C   C1499     1.0  0.39426  0.69483  0.16160  1.0000
  H   H2571     1.0  0.46112  0.97234  0.18997  1.0000
  C   C1500     1.0  0.51333  0.69417  0.22573  1.0000
  C   C1501     1.0  0.43602  0.95054  0.22155  1.0000
  C   C1502     1.0  0.62035  0.66412  0.17104  1.0000
  C   C1503     1.0  0.61737  0.65568  0.21251  1.0000
  C   C1504     1.0  0.55217  0.76778  0.04075  1.0000
  C   C1505     1.0  0.49611  0.79439  0.02791  1.0000
  H   H2572     1.0  0.41170  0.97197  0.22172  1.0000
  H   H2573     1.0  0.53142  0.81582  0.20569  1.0000
  S   S416      1.0  0.33117  0.58871  0.19312  1.0000
  H   H2574     1.0  0.52859  0.86943  0.13970  1.0000
  C   C1506     1.0  0.52554  0.86091  0.13157  1.0000
  C   C1507     1.0  0.42367  0.78989  0.16600  1.0000
  C   C1508     1.0  0.64845  0.67566  0.21061  1.0000
  H   H2575     1.0  0.52499  0.81129  0.00236  1.0000
  H   H2576     1.0  0.54943  0.77031  0.05489  1.0000
  C   C1509     1.0  0.41231  0.65659  0.18021  1.0000
  H   H2577     1.0  0.42735  0.80230  0.15595  1.0000
  C   C1510     1.0  0.35967  0.70066  0.18897  1.0000
  C   C1511     1.0  0.48304  0.69758  0.21921  1.0000
  C   C1512     1.0  0.39218  0.66666  0.18513  1.0000
  C   C1513     1.0  0.63417  0.64963  0.18141  1.0000
  C   C1514     1.0  0.52236  0.80073  0.04888  1.0000
  H   H2578     1.0  0.51149  0.90657  0.21162  1.0000
  H   H2579     1.0  0.53830  0.85633  0.12189  1.0000
  H   H2580     1.0  0.37489  0.81881  0.19430  1.0000
  H   H2581     1.0  0.55472  0.81687  0.00096  1.0000
  H   H2582     1.0  0.52778  0.68790  0.22374  1.0000
  H   H2583     1.0  0.62437  0.67770  0.16633  1.0000
  H   H2584     1.0  0.49441  0.80640  0.01641  1.0000
  H   H2585     1.0  0.53247  0.80703  0.07010  1.0000
  C   C1515     1.0  0.50201  0.69034  0.21598  1.0000
  H   H2586     1.0  0.39497  0.72082  0.14210  1.0000
  H   H2587     1.0  0.39089  0.78698  0.16156  1.0000
  H   H2588     1.0  0.42770  0.97355  0.18468  1.0000
  C   C1516     1.0  0.38753  0.81877  0.19860  1.0000
  H   H2589     1.0  0.36325  0.65381  0.16768  1.0000
  H   H2590     1.0  0.51691  0.86135  0.17464  1.0000
  H   H2591     1.0  0.61903  0.65767  0.22576  1.0000
  Fe  Fe207     1.0  0.44217  0.90718  0.21050  1.0000
  H   H2592     1.0  0.55119  0.84910  0.16571  1.0000
  H   H2593     1.0  0.60796  0.66866  0.20766  1.0000
  N   N105      1.0  0.38404  0.67932  0.16941  1.0000
  H   H2594     1.0  0.57905  0.82897  0.17401  1.0000
  N   N106      1.0  0.55559  0.83968  0.19363  1.0000
  N   N107      1.0  0.52861  0.79662  0.02980  1.0000
  H   H2595     1.0  0.37249  0.71598  0.14959  1.0000
  C   C1517     1.0  0.54803  0.78574  0.02655  1.0000
  H   H2596     1.0  0.51661  0.77729  0.17736  1.0000
  H   H2597     1.0  0.41009  0.77662  0.20421  1.0000
  C   C1518     1.0  0.54260  0.82450  0.00933  1.0000
  C   C1519     1.0  0.38716  0.70961  0.14577  1.0000
  H   H2598     1.0  0.36108  0.67434  0.22795  1.0000
  S   S417      1.0  0.56291  0.72478  0.22960  1.0000
  S   S418      1.0  0.56398  0.94010  0.22317  1.0000
  H   H2599     1.0  0.37448  0.77486  0.19374  1.0000
  H   H2600     1.0  0.60838  0.63278  0.20644  1.0000
  H   H2601     1.0  0.49963  0.76615  0.19349  1.0000
  S   S419      1.0  0.42118  0.72592  0.21938  1.0000
  H   H2602     1.0  0.62000  0.65962  0.15851  1.0000
  H   H2603     1.0  0.37885  0.64578  0.14846  1.0000
  H   H2604     1.0  0.55676  0.80688  0.18073  1.0000
  C   C1520     1.0  0.59953  0.97745  0.21905  1.0000
  H   H2605     1.0  0.56167  0.79921  0.20379  1.0000
  H   H2606     1.0  0.38397  0.65596  0.19224  1.0000
  C   C1521     1.0  0.45435  0.94598  0.22337  1.0000
  H   H2607     1.0  0.63644  0.61419  0.21343  1.0000
  C   C1522     1.0  0.57822  0.85353  0.20332  1.0000
  H   H2608     1.0  0.63746  0.67617  0.22305  1.0000
  H   H2609     1.0  0.61071  0.62978  0.22995  1.0000
  H   H2610     1.0  0.49184  0.98043  0.17861  1.0000
  H   H2611     1.0  0.38831  0.61783  0.23086  1.0000
  H   H2612     1.0  0.52530  0.88484  0.22041  1.0000
  H   H2613     1.0  0.65429  0.67116  0.18304  1.0000
  H   H2614     1.0  0.57420  0.84656  0.21781  1.0000
  Fe  Fe208     1.0  0.57276  0.90944  0.22927  1.0000
  C   C1523     1.0  0.32634  0.52167  0.18128  1.0000
  C   C1524     1.0  0.37655  0.62871  0.22853  1.0000
  C   C1525     1.0  0.34634  0.65661  0.22216  1.0000
  C   C1526     1.0  0.64965  0.63817  0.20796  1.0000
  H   H2615     1.0  0.59165  0.84605  0.19675  1.0000
  C   C1527     1.0  0.36134  0.66056  0.22675  1.0000
  H   H2616     1.0  0.43716  0.81531  0.22332  1.0000
  H   H2617     1.0  0.55566  0.82637  0.22210  1.0000
  H   H2618     1.0  0.53146  0.81236  0.22942  1.0000
  C   C1528     1.0  0.51372  0.97817  0.22907  1.0000
  H   H2619     1.0  0.64434  0.83306  0.23136  1.0000
  H   H2620     1.0  0.62413  0.82593  0.23117  1.0000
  H   H2621     1.0  0.32906  0.81313  0.40022  1.0000
  H   H2622     1.0  0.50767  0.91015  0.27641  1.0000
  Fe  Fe209     1.0  0.60944  0.81718  0.32311  1.0000
  S   S420      1.0  0.62661  0.79120  0.33620  1.0000
  S   S421      1.0  0.62233  0.83591  0.29813  1.0000
  Fe  Fe210     1.0  0.57381  0.80812  0.34738  1.0000
  S   S422      1.0  0.58814  0.78158  0.36254  1.0000
  S   S423      1.0  0.54306  0.81816  0.35146  1.0000
  Fe  Fe211     1.0  0.60891  0.79763  0.36294  1.0000
  S   S424      1.0  0.61873  0.79267  0.38987  1.0000
  Fe  Fe212     1.0  0.60450  0.77766  0.33463  1.0000
  S   S425      1.0  0.61080  0.75036  0.32575  1.0000
  S   S426      1.0  0.59306  0.82468  0.34985  1.0000
  S   S427      1.0  0.58881  0.80318  0.31955  1.0000
  Fe  Fe213     1.0  0.46606  0.76939  0.35243  1.0000
  S   S428      1.0  0.46341  0.78169  0.32332  1.0000
  S   S429      1.0  0.49446  0.76042  0.35900  1.0000
  Fe  Fe214     1.0  0.42536  0.76770  0.36494  1.0000
  S   S430      1.0  0.41965  0.77981  0.33647  1.0000
  S   S431      1.0  0.40406  0.75656  0.38900  1.0000
  Fe  Fe215     1.0  0.44604  0.76128  0.32646  1.0000
  S   S432      1.0  0.45382  0.74725  0.30210  1.0000
  Fe  Fe216     1.0  0.43750  0.79924  0.33550  1.0000
  S   S433      1.0  0.42917  0.82909  0.32255  1.0000
  S   S434      1.0  0.45060  0.74743  0.35485  1.0000
  S   S435      1.0  0.44131  0.78862  0.36474  1.0000
  H   H2623     1.0  0.64069  0.89006  0.25604  1.0000
  S   S436      1.0  0.34480  0.80490  0.44152  1.0000
  H   H2624     1.0  0.42104  0.78111  0.23993  1.0000
  H   H2625     1.0  0.48864  0.82716  0.27962  1.0000
  H   H2626     1.0  0.63803  0.50929  0.27522  1.0000
  H   H2627     1.0  0.62636  0.89812  0.23909  1.0000
  H   H2628     1.0  0.65249  0.85698  0.47016  1.0000
  S   S437      1.0  0.39608  0.72409  0.27117  1.0000
  H   H2629     1.0  0.46862  0.81861  0.31002  1.0000
  H   H2630     1.0  0.50069  0.97639  0.23899  1.0000
  C   C1529     1.0  0.50332  0.80738  0.39756  1.0000
  H   H2631     1.0  0.64417  0.77490  0.30261  1.0000
  C   C1530     1.0  0.43709  0.74213  0.29334  1.0000
  C   C1531     1.0  0.44221  0.73715  0.27611  1.0000
  C   C1532     1.0  0.42963  0.73200  0.26898  1.0000
  C   C1533     1.0  0.41175  0.73190  0.27904  1.0000
  C   C1534     1.0  0.40641  0.73752  0.29600  1.0000
  C   C1535     1.0  0.41906  0.74264  0.30315  1.0000
  H   H2632     1.0  0.45598  0.73727  0.26829  1.0000
  H   H2633     1.0  0.43379  0.72785  0.25585  1.0000
  H   H2634     1.0  0.39257  0.73751  0.30381  1.0000
  H   H2635     1.0  0.41495  0.74657  0.31640  1.0000
  C   C1536     1.0  0.38879  0.77023  0.40415  1.0000
  C   C1537     1.0  0.38594  0.78943  0.39985  1.0000
  C   C1538     1.0  0.37279  0.79987  0.41171  1.0000
  C   C1539     1.0  0.36237  0.79123  0.42793  1.0000
  C   C1540     1.0  0.36558  0.77202  0.43249  1.0000
  C   C1541     1.0  0.37866  0.76159  0.42059  1.0000
  H   H2636     1.0  0.39368  0.79624  0.38726  1.0000
  H   H2637     1.0  0.37047  0.81472  0.40812  1.0000
  H   H2638     1.0  0.35799  0.76523  0.44516  1.0000
  H   H2639     1.0  0.38095  0.74674  0.42411  1.0000
  C   C1542     1.0  0.53016  0.80237  0.35102  1.0000
  C   C1543     1.0  0.51132  0.80834  0.35114  1.0000
  C   C1544     1.0  0.50032  0.79567  0.35289  1.0000
  C   C1545     1.0  0.50809  0.77691  0.35481  1.0000
  C   C1546     1.0  0.52702  0.77099  0.35412  1.0000
  C   C1547     1.0  0.53808  0.78370  0.35201  1.0000
  H   H2640     1.0  0.50513  0.82277  0.35032  1.0000
  H   H2641     1.0  0.48574  0.80035  0.35334  1.0000
  H   H2642     1.0  0.53313  0.75650  0.35547  1.0000
  H   H2643     1.0  0.55261  0.77896  0.35180  1.0000
  S   S438      1.0  0.56980  0.68050  0.23264  1.0000
  C   C1548     1.0  0.50419  0.74477  0.28140  1.0000
  H   H2644     1.0  0.62993  0.80802  0.45970  1.0000
  H   H2645     1.0  0.48487  0.93013  0.25460  1.0000
  N   N108      1.0  0.61613  0.92395  0.26373  1.0000
  N   N109      1.0  0.62746  0.79576  0.26206  1.0000
  H   H2646     1.0  0.47868  0.65909  0.31332  1.0000
  H   H2647     1.0  0.60246  0.71786  0.28202  1.0000
  C   C1549     1.0  0.58665  0.74556  0.27892  1.0000
  C   C1550     1.0  0.59836  0.73043  0.28725  1.0000
  C   C1551     1.0  0.60534  0.73185  0.30198  1.0000
  C   C1552     1.0  0.60039  0.74825  0.30860  1.0000
  C   C1553     1.0  0.58794  0.76297  0.30079  1.0000
  C   C1554     1.0  0.58137  0.76174  0.28581  1.0000
  H   H2648     1.0  0.61488  0.72034  0.30804  1.0000
  H   H2649     1.0  0.58360  0.77543  0.30603  1.0000
  H   H2650     1.0  0.57220  0.77343  0.27950  1.0000
  H   H2651     1.0  0.56963  0.92949  0.26252  1.0000
  C   C1555     1.0  0.46709  0.84719  0.26818  1.0000
  C   C1556     1.0  0.44870  0.85612  0.27169  1.0000
  C   C1557     1.0  0.43735  0.85110  0.28881  1.0000
  C   C1558     1.0  0.44432  0.83707  0.30243  1.0000
  C   C1559     1.0  0.46299  0.82892  0.29931  1.0000
  C   C1560     1.0  0.47434  0.83391  0.28216  1.0000
  H   H2652     1.0  0.44311  0.86673  0.26120  1.0000
  H   H2653     1.0  0.42299  0.85768  0.29129  1.0000
  H   H2654     1.0  0.63165  0.82231  0.26316  1.0000
  H   H2655     1.0  0.59973  0.91037  0.25437  1.0000
  C   C1561     1.0  0.51001  0.91008  0.26149  1.0000
  C   C1562     1.0  0.59811  0.87362  0.25955  1.0000
  Fe  Fe217     1.0  0.40611  0.71138  0.24592  1.0000
  H   H2656     1.0  0.48928  0.90646  0.23815  1.0000
  C   C1563     1.0  0.46964  0.78679  0.27148  1.0000
  C   C1564     1.0  0.64709  0.61076  0.25932  1.0000
  H   H2657     1.0  0.53471  0.88132  0.25045  1.0000
  C   C1565     1.0  0.49009  0.88700  0.27385  1.0000
  H   H2658     1.0  0.62341  0.75977  0.27272  1.0000
  H   H2659     1.0  0.35206  0.75224  0.40696  1.0000
  H   H2660     1.0  0.52033  0.71947  0.29324  1.0000
  H   H2661     1.0  0.48702  0.68395  0.31590  1.0000
  H   H2662     1.0  0.33662  0.73902  0.40603  1.0000
  C   C1566     1.0  0.61396  0.94274  0.26781  1.0000
  C   C1567     1.0  0.57443  0.86796  0.28663  1.0000
  C   C1568     1.0  0.63750  0.81145  0.25485  1.0000
  H   H2663     1.0  0.33316  0.75459  0.44043  1.0000
  H   H2664     1.0  0.47852  0.79609  0.26213  1.0000
  H   H2665     1.0  0.41136  0.82162  0.26129  1.0000
  H   H2666     1.0  0.57024  0.77936  0.40627  1.0000
  C   C1569     1.0  0.62345  0.84736  0.44803  1.0000
  H   H2667     1.0  0.64674  0.86667  0.42109  1.0000
  N   N110      1.0  0.50574  0.89282  0.25890  1.0000
  C   C1570     1.0  0.48694  0.71331  0.24120  1.0000
  C   C1571     1.0  0.59682  0.81924  0.26646  1.0000
  C   C1572     1.0  0.50123  0.89513  0.24041  1.0000
  C   C1573     1.0  0.62372  0.86054  0.48253  1.0000
  H   H2668     1.0  0.63946  0.82045  0.36687  1.0000
  H   H2669     1.0  0.65132  0.59615  0.25967  1.0000
  H   H2670     1.0  0.54902  0.76249  0.42429  1.0000
  H   H2671     1.0  0.34965  0.78404  0.37379  1.0000
  C   C1574     1.0  0.62486  0.83852  0.43155  1.0000
  C   C1575     1.0  0.63797  0.82086  0.23445  1.0000
  H   H2672     1.0  0.57885  0.91919  0.28255  1.0000
  C   C1576     1.0  0.52257  0.87783  0.26106  1.0000
  H   H2673     1.0  0.41651  0.80677  0.30086  1.0000
  H   H2674     1.0  0.62709  0.84854  0.41831  1.0000
  H   H2675     1.0  0.60152  0.83173  0.25769  1.0000
  C   C1577     1.0  0.63736  0.90099  0.24409  1.0000
  S   S439      1.0  0.48100  0.85180  0.24623  1.0000
  H   H2676     1.0  0.62545  0.85848  0.26186  1.0000
  H   H2677     1.0  0.49515  0.78970  0.43672  1.0000
  C   C1578     1.0  0.47038  0.69440  0.29438  1.0000
  C   C1579     1.0  0.60589  0.85186  0.28691  1.0000
  H   H2678     1.0  0.56023  0.87067  0.29367  1.0000
  H   H2679     1.0  0.61916  0.86244  0.44304  1.0000
  H   H2680     1.0  0.57830  0.94340  0.27219  1.0000
  H   H2681     1.0  0.50698  0.75672  0.27021  1.0000
  H   H2682     1.0  0.54814  0.79200  0.38424  1.0000
  H   H2683     1.0  0.64558  0.79597  0.47437  1.0000
  H   H2684     1.0  0.60720  0.80387  0.24475  1.0000
  H   H2685     1.0  0.64012  0.93869  0.27698  1.0000
  N   N111      1.0  0.43834  0.80407  0.26301  1.0000
  H   H2686     1.0  0.35626  0.75927  0.37631  1.0000
  C   C1580     1.0  0.43493  0.78755  0.25814  1.0000
  C   C1581     1.0  0.63259  0.92037  0.24850  1.0000
  C   C1582     1.0  0.59943  0.92408  0.25676  1.0000
  C   C1583     1.0  0.56234  0.79372  0.40445  1.0000
  H   H2687     1.0  0.63234  0.91342  0.29936  1.0000
  H   H2688     1.0  0.49693  0.66224  0.28429  1.0000
  C   C1584     1.0  0.62878  0.76312  0.25775  1.0000
  C   C1585     1.0  0.32998  0.78382  0.40928  1.0000
  H   H2689     1.0  0.64973  0.90005  0.23284  1.0000
  H   H2690     1.0  0.58322  0.84791  0.30970  1.0000
  H   H2691     1.0  0.63533  0.82580  0.43063  1.0000
  C   C1586     1.0  0.48602  0.67049  0.27666  1.0000
  H   H2692     1.0  0.55998  0.76158  0.39022  1.0000
  C   C1587     1.0  0.48740  0.69311  0.30214  1.0000
  H   H2693     1.0  0.63935  0.78246  0.41868  1.0000
  C   C1588     1.0  0.34552  0.77154  0.37285  1.0000
  H   H2694     1.0  0.61754  0.76440  0.25056  1.0000
  H   H2695     1.0  0.46993  0.77523  0.26516  1.0000
  C   C1589     1.0  0.58744  0.85511  0.29574  1.0000
  H   H2696     1.0  0.57130  0.80214  0.39376  1.0000
  H   H2697     1.0  0.47372  0.91274  0.28194  1.0000
  H   H2698     1.0  0.50503  0.79125  0.45473  1.0000
  H   H2699     1.0  0.62355  0.80117  0.28934  1.0000
  S   S440      1.0  0.56324  0.89390  0.25785  1.0000
  C   C1590     1.0  0.64963  0.50056  0.26820  1.0000
  C   C1591     1.0  0.52420  0.79262  0.42838  1.0000
  H   H2700     1.0  0.54640  0.76496  0.31140  1.0000
  C   C1592     1.0  0.58067  0.92941  0.26945  1.0000
  H   H2701     1.0  0.49640  0.88298  0.23962  1.0000
  H   H2702     1.0  0.42409  0.82883  0.27312  1.0000
  H   H2703     1.0  0.48624  0.87496  0.27137  1.0000
  H   H2704     1.0  0.49317  0.74955  0.29258  1.0000
  H   H2705     1.0  0.45364  0.69369  0.26881  1.0000
  H   H2706     1.0  0.53672  0.78510  0.29688  1.0000
  H   H2707     1.0  0.47079  0.70566  0.28194  1.0000
  H   H2708     1.0  0.58217  0.82098  0.26600  1.0000
  C   C1593     1.0  0.57975  0.87734  0.26858  1.0000
  H   H2709     1.0  0.60016  0.79061  0.26665  1.0000
  C   C1594     1.0  0.63942  0.85864  0.46557  1.0000
  H   H2710     1.0  0.63770  0.87227  0.45603  1.0000
  H   H2711     1.0  0.63644  0.89010  0.29634  1.0000
  S   S441      1.0  0.57871  0.74526  0.25950  1.0000
  H   H2712     1.0  0.46143  0.89480  0.28644  1.0000
  C   C1595     1.0  0.63755  0.80068  0.39243  1.0000
  C   C1596     1.0  0.63410  0.90478  0.28919  1.0000
  C   C1597     1.0  0.63149  0.94884  0.26801  1.0000
  C   C1598     1.0  0.64308  0.80808  0.46309  1.0000
  C   C1599     1.0  0.49990  0.92874  0.25186  1.0000
  H   H2713     1.0  0.53480  0.84909  0.26084  1.0000
  H   H2714     1.0  0.40628  0.78603  0.26057  1.0000
  H   H2715     1.0  0.61154  0.83486  0.43252  1.0000
  C   C1600     1.0  0.61682  0.90918  0.28093  1.0000
  S   S442      1.0  0.59876  0.64776  0.26548  1.0000
  N   N112      1.0  0.46859  0.67702  0.28977  1.0000
  C   C1601     1.0  0.63696  0.78064  0.25162  1.0000
  H   H2716     1.0  0.49884  0.73586  0.27557  1.0000
  H   H2717     1.0  0.52042  0.80791  0.42530  1.0000
  C   C1602     1.0  0.64578  0.77801  0.28741  1.0000
  H   H2718     1.0  0.61463  0.89605  0.27898  1.0000
  C   C1603     1.0  0.42094  0.81628  0.27089  1.0000
  C   C1604     1.0  0.62745  0.78931  0.28236  1.0000
  Fe  Fe218     1.0  0.54958  0.70173  0.24680  1.0000
  H   H2719     1.0  0.61180  0.84314  0.45896  1.0000
  H   H2720     1.0  0.32806  0.78253  0.42436  1.0000
  H   H2721     1.0  0.59919  0.93363  0.24315  1.0000
  H   H2722     1.0  0.45528  0.66849  0.31832  1.0000
  C   C1605     1.0  0.64201  0.82560  0.46987  1.0000
  H   H2723     1.0  0.50852  0.71363  0.32246  1.0000
  C   C1606     1.0  0.60790  0.80171  0.25948  1.0000
  C   C1607     1.0  0.45219  0.68197  0.28077  1.0000
  H   H2724     1.0  0.60221  0.88034  0.24545  1.0000
  C   C1608     1.0  0.46618  0.66286  0.30735  1.0000
  N   N113      1.0  0.53051  0.78530  0.41087  1.0000
  C   C1609     1.0  0.43334  0.68692  0.29341  1.0000
  S   S443      1.0  0.42423  0.68343  0.24495  1.0000
  C   C1610     1.0  0.46258  0.64448  0.30590  1.0000
  H   H2725     1.0  0.52212  0.77459  0.31647  1.0000
  C   C1611     1.0  0.64494  0.81459  0.37923  1.0000
  H   H2726     1.0  0.45104  0.67072  0.27481  1.0000
  H   H2727     1.0  0.62997  0.82597  0.48148  1.0000
  Fe  Fe219     1.0  0.58661  0.67738  0.25376  1.0000
  C   C1612     1.0  0.53879  0.76508  0.41549  1.0000
  H   H2728     1.0  0.50260  0.93997  0.25683  1.0000
  H   H2729     1.0  0.49883  0.65419  0.25567  1.0000
  H   H2730     1.0  0.47709  0.66797  0.25250  1.0000
  H   H2731     1.0  0.65203  0.80676  0.25641  1.0000
  H   H2732     1.0  0.55992  0.79894  0.41722  1.0000
  H   H2733     1.0  0.42253  0.69048  0.28516  1.0000
  H   H2734     1.0  0.43013  0.67515  0.30462  1.0000
  H   H2735     1.0  0.43206  0.69904  0.29929  1.0000
  H   H2736     1.0  0.49710  0.81322  0.41004  1.0000
  C   C1613     1.0  0.62831  0.61901  0.26237  1.0000
  H   H2737     1.0  0.45832  0.69948  0.30466  1.0000
  H   H2738     1.0  0.47568  0.63481  0.30208  1.0000
  H   H2739     1.0  0.45370  0.64604  0.29612  1.0000
  H   H2740     1.0  0.45495  0.63817  0.31941  1.0000
  H   H2741     1.0  0.60452  0.94396  0.28129  1.0000
  H   H2742     1.0  0.49184  0.68232  0.26778  1.0000
  C   C1614     1.0  0.33755  0.75058  0.41184  1.0000
  C   C1615     1.0  0.52124  0.85840  0.26011  1.0000
  C   C1616     1.0  0.54815  0.75571  0.39895  1.0000
  C   C1617     1.0  0.50791  0.78539  0.44223  1.0000
  H   H2743     1.0  0.61025  0.86063  0.47978  1.0000
  S   S444      1.0  0.56477  0.69668  0.26961  1.0000
  H   H2744     1.0  0.63071  0.93062  0.23554  1.0000
  H   H2745     1.0  0.52812  0.75720  0.42377  1.0000
  H   H2746     1.0  0.64966  0.76453  0.28320  1.0000
  H   H2747     1.0  0.53554  0.78918  0.43598  1.0000
  H   H2748     1.0  0.64527  0.92224  0.25146  1.0000
  H   H2749     1.0  0.47861  0.64711  0.27010  1.0000
  H   H2750     1.0  0.34493  0.78344  0.40429  1.0000
  H   H2751     1.0  0.52640  0.87670  0.27445  1.0000
  C   C1618     1.0  0.64488  0.79330  0.40843  1.0000
  H   H2752     1.0  0.51961  0.78331  0.38828  1.0000
  H   H2753     1.0  0.44339  0.78799  0.28965  1.0000
  H   H2754     1.0  0.47581  0.78082  0.28381  1.0000
  H   H2755     1.0  0.65194  0.77674  0.25154  1.0000
  H   H2756     1.0  0.62748  0.96179  0.27331  1.0000
  N   N114      1.0  0.52709  0.74137  0.30208  1.0000
  C   C1619     1.0  0.53040  0.76048  0.29297  1.0000
  C   C1620     1.0  0.52190  0.73392  0.28813  1.0000
  C   C1621     1.0  0.54505  0.72976  0.30648  1.0000
  C   C1622     1.0  0.51245  0.74246  0.31933  1.0000
  C   C1623     1.0  0.53415  0.77160  0.30534  1.0000
  C   C1624     1.0  0.41790  0.79043  0.24975  1.0000
  C   C1625     1.0  0.54489  0.70978  0.31677  1.0000
  C   C1626     1.0  0.50151  0.72683  0.32658  1.0000
  H   H2757     1.0  0.54200  0.75999  0.28084  1.0000
  H   H2758     1.0  0.51829  0.76926  0.28752  1.0000
  C   C1627     1.0  0.44992  0.79733  0.27751  1.0000
  H   H2759     1.0  0.53318  0.73341  0.27569  1.0000
  H   H2760     1.0  0.55570  0.72920  0.29363  1.0000
  H   H2761     1.0  0.55042  0.73580  0.31518  1.0000
  H   H2762     1.0  0.51857  0.74333  0.33068  1.0000
  H   H2763     1.0  0.50197  0.75539  0.31714  1.0000
  N   N115      1.0  0.64048  0.84344  0.45588  1.0000
  H   H2764     1.0  0.44715  0.78141  0.24864  1.0000
  H   H2765     1.0  0.55364  0.74096  0.40418  1.0000
  H   H2766     1.0  0.63644  0.78551  0.23679  1.0000
  H   H2767     1.0  0.59745  0.81850  0.28085  1.0000
  C   C1628     1.0  0.32637  0.76968  0.38480  1.0000
  H   H2768     1.0  0.55914  0.70276  0.31817  1.0000
  H   H2769     1.0  0.54034  0.70179  0.30925  1.0000
  H   H2770     1.0  0.53657  0.70919  0.33094  1.0000
  H   H2771     1.0  0.49852  0.72403  0.34187  1.0000
  H   H2772     1.0  0.40842  0.79343  0.28938  1.0000
  H   H2773     1.0  0.50512  0.93128  0.23675  1.0000
  C   C1629     1.0  0.62255  0.63801  0.26175  1.0000
  H   H2774     1.0  0.50510  0.77847  0.40987  1.0000
  C   C1630     1.0  0.51468  0.78765  0.40170  1.0000
  H   H2775     1.0  0.51125  0.85254  0.27194  1.0000
  H   H2776     1.0  0.51780  0.85811  0.24706  1.0000
  H   H2777     1.0  0.49184  0.80706  0.39140  1.0000
  C   C1631     1.0  0.54439  0.79582  0.39792  1.0000
  H   H2778     1.0  0.52517  0.96746  0.23390  1.0000
  H   H2779     1.0  0.50046  0.68882  0.29267  1.0000
  H   H2780     1.0  0.53851  0.81083  0.39517  1.0000
  Fe  Fe220     1.0  0.57934  0.71875  0.25148  1.0000
  C   C1632     1.0  0.61122  0.86115  0.26881  1.0000
  H   H2781     1.0  0.57894  0.96351  0.23757  1.0000
  H   H2782     1.0  0.34697  0.73300  0.43620  1.0000
  C   C1633     1.0  0.65455  0.64038  0.25569  1.0000
  H   H2783     1.0  0.48740  0.70703  0.30388  1.0000
  H   H2784     1.0  0.51150  0.81677  0.38726  1.0000
  H   H2785     1.0  0.51095  0.77023  0.44672  1.0000
  C   C1634     1.0  0.48477  0.65924  0.26316  1.0000
  H   H2786     1.0  0.63148  0.66328  0.25814  1.0000
  H   H2787     1.0  0.61817  0.61063  0.26511  1.0000
  H   H2788     1.0  0.48784  0.73136  0.32274  1.0000
  H   H2789     1.0  0.46692  0.90692  0.26334  1.0000
  H   H2790     1.0  0.48113  0.72219  0.25096  1.0000
  C   C1635     1.0  0.63576  0.64869  0.25837  1.0000
  C   C1636     1.0  0.47216  0.90144  0.27626  1.0000
  H   H2791     1.0  0.46175  0.80664  0.24038  1.0000
  H   H2792     1.0  0.53838  0.75613  0.39039  1.0000
  H   H2793     1.0  0.39603  0.81608  0.29216  1.0000
  S   S445      1.0  0.51856  0.70825  0.25337  1.0000
  H   H2794     1.0  0.43300  0.77663  0.27074  1.0000
  C   C1637     1.0  0.33478  0.74360  0.43291  1.0000
  H   H2795     1.0  0.49426  0.88242  0.28746  1.0000
  C   C1638     1.0  0.40996  0.80739  0.28934  1.0000
  N   N116      1.0  0.32453  0.76802  0.40516  1.0000
  C   C1639     1.0  0.58492  0.97551  0.23405  1.0000
  H   H2796     1.0  0.60512  0.91289  0.29218  1.0000
  H   H2797     1.0  0.60748  0.95365  0.25738  1.0000
  H   H2798     1.0  0.61686  0.78100  0.28945  1.0000
  H   H2799     1.0  0.34513  0.77287  0.35820  1.0000
  H   H2800     1.0  0.64685  0.90619  0.27884  1.0000
  C   C1640     1.0  0.44892  0.81532  0.24661  1.0000
  H   H2801     1.0  0.52486  0.91043  0.25633  1.0000
  H   H2802     1.0  0.45324  0.82607  0.25098  1.0000
  H   H2803     1.0  0.63969  0.75105  0.25470  1.0000
  C   C1641     1.0  0.50573  0.70546  0.23859  1.0000
  H   H2804     1.0  0.65427  0.82334  0.47604  1.0000
  S   S446      1.0  0.60257  0.69915  0.23752  1.0000
  H   H2805     1.0  0.45102  0.80900  0.28291  1.0000
  H   H2806     1.0  0.65454  0.80585  0.45131  1.0000
  H   H2807     1.0  0.63969  0.95211  0.25386  1.0000
  S   S447      1.0  0.38545  0.70571  0.23313  1.0000
  H   H2808     1.0  0.41336  0.80446  0.24214  1.0000
  H   H2809     1.0  0.46103  0.71505  0.23412  1.0000
  H   H2810     1.0  0.32824  0.61136  0.25887  1.0000
  H   H2811     1.0  0.42615  0.83473  0.23467  1.0000
  S   S448      1.0  0.39663  0.65121  0.23399  1.0000
  H   H2812     1.0  0.34151  0.77824  0.52358  1.0000
  H   H2813     1.0  0.32978  0.84260  0.52763  1.0000
  S   S449      1.0  0.35294  0.78677  0.58075  1.0000
  H   H2814     1.0  0.58401  0.85396  0.64681  1.0000
  H   H2815     1.0  0.41525  0.73561  0.71994  1.0000
  C   C1642     1.0  0.34428  0.88300  0.65246  1.0000
  H   H2816     1.0  0.40818  0.76086  0.68909  1.0000
  C   C1643     1.0  0.34154  0.86899  0.62741  1.0000
  H   H2817     1.0  0.34723  0.84694  0.66042  1.0000
  S   S450      1.0  0.63107  0.81595  0.70450  1.0000
  H   H2818     1.0  0.34826  0.83022  0.55119  1.0000
  S   S451      1.0  0.59653  0.86005  0.71982  1.0000
  H   H2819     1.0  0.58552  0.79389  0.69330  1.0000
  H   H2820     1.0  0.56500  0.82036  0.68860  1.0000
  H   H2821     1.0  0.36212  0.84326  0.63256  1.0000
  H   H2822     1.0  0.35779  0.87405  0.65443  1.0000
  S   S452      1.0  0.44025  0.84432  0.71690  1.0000
  H   H2823     1.0  0.62669  0.84959  0.49461  1.0000
  C   C1644     1.0  0.49777  0.84410  0.72261  1.0000
  Fe  Fe221     1.0  0.42369  0.82481  0.71429  1.0000
  S   S453      1.0  0.41679  0.82452  0.68694  1.0000
  H   H2824     1.0  0.36617  0.85672  0.60996  1.0000
  H   H2825     1.0  0.36007  0.78476  0.54250  1.0000
  H   H2826     1.0  0.33292  0.86152  0.62349  1.0000
  C   C1645     1.0  0.39677  0.82093  0.68192  1.0000
  C   C1646     1.0  0.38048  0.82015  0.69506  1.0000
  C   C1647     1.0  0.36541  0.81596  0.69082  1.0000
  H   H2827     1.0  0.37956  0.82260  0.70856  1.0000
  H   H2828     1.0  0.35301  0.81510  0.70122  1.0000
  H   H2829     1.0  0.64855  0.87103  0.66068  1.0000
  H   H2830     1.0  0.42521  0.78132  0.70802  1.0000
  H   H2831     1.0  0.43538  0.76024  0.69970  1.0000
  H   H2832     1.0  0.34176  0.88185  0.61681  1.0000
  H   H2833     1.0  0.38879  0.74032  0.70823  1.0000
  C   C1648     1.0  0.38178  0.75254  0.71449  1.0000
  C   C1649     1.0  0.42509  0.77331  0.69804  1.0000
  H   H2834     1.0  0.61535  0.81586  0.67261  1.0000
  H   H2835     1.0  0.37664  0.78717  0.72049  1.0000
  H   H2836     1.0  0.37103  0.86406  0.62815  1.0000
  C   C1650     1.0  0.33304  0.85458  0.65962  1.0000
  C   C1651     1.0  0.64422  0.82792  0.68473  1.0000
  C   C1652     1.0  0.36134  0.85762  0.62469  1.0000
  H   H2837     1.0  0.60266  0.80576  0.66295  1.0000
  N   N117      1.0  0.39571  0.76149  0.71775  1.0000
  H   H2838     1.0  0.58041  0.83847  0.69769  1.0000
  C   C1653     1.0  0.64096  0.84713  0.68020  1.0000
  H   H2839     1.0  0.39764  0.78314  0.69331  1.0000
  H   H2840     1.0  0.55057  0.85266  0.68199  1.0000
  C   C1654     1.0  0.36625  0.81281  0.67331  1.0000
  H   H2841     1.0  0.63052  0.85505  0.68912  1.0000
  H   H2842     1.0  0.33154  0.84978  0.55708  1.0000
  C   C1655     1.0  0.61305  0.84466  0.64489  1.0000
  C   C1656     1.0  0.33580  0.77887  0.53787  1.0000
  H   H2843     1.0  0.38321  0.81183  0.64643  1.0000
  H   H2844     1.0  0.35925  0.75668  0.70053  1.0000
  C   C1657     1.0  0.38229  0.81424  0.65995  1.0000
  C   C1658     1.0  0.58864  0.84308  0.68382  1.0000
  C   C1659     1.0  0.60133  0.81362  0.67375  1.0000
  H   H2845     1.0  0.55495  0.85278  0.65744  1.0000
  H   H2846     1.0  0.57324  0.86911  0.66830  1.0000
  H   H2847     1.0  0.37585  0.77005  0.68787  1.0000
  C   C1660     1.0  0.36858  0.76489  0.70199  1.0000
  H   H2848     1.0  0.59236  0.83208  0.64159  1.0000
  C   C1661     1.0  0.55309  0.84421  0.67149  1.0000
  C   C1662     1.0  0.33330  0.83546  0.55547  1.0000
  C   C1663     1.0  0.58233  0.86422  0.67831  1.0000
  H   H2849     1.0  0.42028  0.75175  0.72956  1.0000
  H   H2850     1.0  0.42976  0.78148  0.68416  1.0000
  N   N118      1.0  0.58792  0.83177  0.67065  1.0000
  H   H2851     1.0  0.54030  0.83903  0.67375  1.0000
  H   H2852     1.0  0.60292  0.84076  0.68582  1.0000
  C   C1664     1.0  0.59342  0.84079  0.65073  1.0000
  H   H2853     1.0  0.57447  0.86963  0.69076  1.0000
  C   C1665     1.0  0.65125  0.85616  0.66407  1.0000
  H   H2854     1.0  0.61469  0.85379  0.63104  1.0000
  C   C1666     1.0  0.59700  0.80054  0.69246  1.0000
  H   H2855     1.0  0.40993  0.81889  0.65394  1.0000
  H   H2856     1.0  0.56895  0.81823  0.66525  1.0000
  S   S454      1.0  0.34709  0.80654  0.66927  1.0000
  S   S455      1.0  0.34580  0.82087  0.61379  1.0000
  H   H2857     1.0  0.59436  0.87096  0.67331  1.0000
  C   C1667     1.0  0.56905  0.82764  0.67413  1.0000
  H   H2858     1.0  0.50657  0.86999  0.71585  1.0000
  H   H2859     1.0  0.33739  0.88642  0.66612  1.0000
  C   C1668     1.0  0.39745  0.81822  0.66426  1.0000
  H   H2860     1.0  0.35969  0.77665  0.70793  1.0000
  H   H2861     1.0  0.59402  0.80764  0.70402  1.0000
  H   H2862     1.0  0.62356  0.83186  0.64377  1.0000
  S   S456      1.0  0.33173  0.78263  0.63603  1.0000
  C   C1669     1.0  0.40594  0.76983  0.69915  1.0000
  C   C1670     1.0  0.33930  0.78274  0.56737  1.0000
  H   H2863     1.0  0.33540  0.91180  0.63922  1.0000
  C   C1671     1.0  0.51055  0.85524  0.72014  1.0000
  H   H2864     1.0  0.61609  0.85163  0.65441  1.0000
  C   C1672     1.0  0.34634  0.78243  0.54865  1.0000
  Fe  Fe222     1.0  0.33667  0.80746  0.64344  1.0000
  Fe  Fe223     1.0  0.33806  0.79760  0.60651  1.0000
  H   H2865     1.0  0.60922  0.78935  0.69423  1.0000
  Fe  Fe224     1.0  0.60940  0.83004  0.72569  1.0000
  H   H2866     1.0  0.33032  0.86152  0.68656  1.0000
  C   C1673     1.0  0.34812  0.90117  0.63968  1.0000
  C   C1674     1.0  0.52830  0.84743  0.72350  1.0000
  S   S457      1.0  0.44190  0.79965  0.72769  1.0000
  H   H2867     1.0  0.35718  0.90654  0.64531  1.0000
  H   H2868     1.0  0.54682  0.82210  0.73159  1.0000
  H   H2869     1.0  0.35545  0.89940  0.62563  1.0000
  C   C1675     1.0  0.50275  0.82501  0.72824  1.0000
  S   S458      1.0  0.54365  0.86189  0.72145  1.0000
  H   H2870     1.0  0.48409  0.85025  0.72013  1.0000
  H   H2871     1.0  0.37283  0.74734  0.72767  1.0000
  H   H2872     1.0  0.32767  0.81972  0.53880  1.0000
  N   N119      1.0  0.33316  0.87288  0.64642  1.0000
  C   C1676     1.0  0.38541  0.77605  0.72868  1.0000
  C   C1677     1.0  0.53327  0.82835  0.72897  1.0000
  H   H2873     1.0  0.32670  0.84570  0.65470  1.0000
  H   H2874     1.0  0.32891  0.82671  0.56900  1.0000
  H   H2875     1.0  0.40077  0.79770  0.72449  1.0000
  C   C1678     1.0  0.40867  0.74662  0.72798  1.0000
  H   H2876     1.0  0.62264  0.87379  0.48647  1.0000
  S   S459      1.0  0.48736  0.81025  0.73169  1.0000
  C   C1679     1.0  0.52058  0.81723  0.73127  1.0000
  Fe  Fe225     1.0  0.45673  0.81933  0.73241  1.0000
  C   C1680     1.0  0.32350  0.83423  0.54071  1.0000
  Fe  Fe226     1.0  0.44215  0.94388  0.83402  1.0000
  S   S460      1.0  0.43810  0.92267  0.86008  1.0000
  Fe  Fe227     1.0  0.44853  0.91518  0.81018  1.0000
  S   S461      1.0  0.44580  0.89191  0.83454  1.0000
  S   S462      1.0  0.45854  0.90836  0.78202  1.0000
  Fe  Fe228     1.0  0.42190  0.91227  0.84613  1.0000
  S   S463      1.0  0.39471  0.90555  0.86127  1.0000
  Fe  Fe229     1.0  0.46245  0.90482  0.84586  1.0000
  S   S464      1.0  0.48737  0.89201  0.85821  1.0000
  S   S465      1.0  0.42351  0.93510  0.82100  1.0000
  S   S466      1.0  0.46731  0.92623  0.82051  1.0000
  Fe  Fe230     1.0  0.54330  0.95626  0.85563  1.0000
  S   S467      1.0  0.54702  0.97443  0.82792  1.0000
  S   S468      1.0  0.51461  0.95745  0.87188  1.0000
  Fe  Fe231     1.0  0.58334  0.93952  0.85117  1.0000
  S   S469      1.0  0.59069  0.95655  0.82262  1.0000
  S   S470      1.0  0.60270  0.91695  0.86616  1.0000
  Fe  Fe232     1.0  0.57134  0.97990  0.83495  1.0000
  H   H2877     1.0  0.46865  0.75982  0.85372  1.0000
  Fe  Fe233     1.0  0.56556  0.94998  0.81793  1.0000
  S   S471      1.0  0.55786  0.94320  0.79437  1.0000
  S   S472      1.0  0.56611  0.96336  0.86380  1.0000
  S   S473      1.0  0.55988  0.93130  0.84519  1.0000
  S   S474      1.0  0.40864  0.63047  0.85634  1.0000
  H   H2878     1.0  0.43488  0.81316  0.97544  1.0000
  S   S475      1.0  0.55805  0.83016  0.95819  1.0000
  C   C1681     1.0  0.58389  0.87848  0.93488  1.0000
  Fe  Fe234     1.0  0.59774  0.79293  0.94011  1.0000
  S   S476      1.0  0.57127  0.80105  0.93053  1.0000
  S   S477      1.0  0.61855  0.77247  0.92498  1.0000
  Fe  Fe235     1.0  0.57323  0.82984  0.92928  1.0000
  S   S478      1.0  0.56202  0.85161  0.90693  1.0000
  Fe  Fe236     1.0  0.55813  0.80072  0.96012  1.0000
  S   S479      1.0  0.40746  0.86917  0.75873  1.0000
  S   S480      1.0  0.60092  0.82209  0.93663  1.0000
  H   H2879     1.0  0.49433  0.95103  0.81350  1.0000
  Fe  Fe237     1.0  0.42105  0.80814  0.91873  1.0000
  S   S481      1.0  0.39517  0.82591  0.91059  1.0000
  Fe  Fe238     1.0  0.46096  0.80405  0.91851  1.0000
  S   S482      1.0  0.48593  0.81642  0.90990  1.0000
  Fe  Fe239     1.0  0.44718  0.77211  0.91440  1.0000
  S   S483      1.0  0.45979  0.74898  0.89911  1.0000
  S   S484      1.0  0.44658  0.80082  0.89799  1.0000
  Fe  Fe240     1.0  0.58643  0.70366  0.88896  1.0000
  S   S485      1.0  0.57444  0.68032  0.88815  1.0000
  S   S486      1.0  0.58080  0.71198  0.91620  1.0000
  Fe  Fe241     1.0  0.60071  0.71125  0.84764  1.0000
  S   S487      1.0  0.59021  0.68812  0.84343  1.0000
  S   S488      1.0  0.61656  0.72986  0.82495  1.0000
  Fe  Fe242     1.0  0.56463  0.69833  0.86315  1.0000
  S   S489      1.0  0.53512  0.70729  0.85945  1.0000
  Fe  Fe243     1.0  0.60111  0.67197  0.86882  1.0000
  S   S490      1.0  0.61459  0.64178  0.87640  1.0000
  S   S491      1.0  0.57464  0.72243  0.86565  1.0000
  S   S492      1.0  0.61364  0.69438  0.87142  1.0000
  H   H2880     1.0  0.50735  0.85477  0.93150  1.0000
  C   C1682     1.0  0.62142  0.80232  0.82264  1.0000
  H   H2881     1.0  0.49971  0.88204  0.81638  1.0000
  H   H2882     1.0  0.60379  0.65276  0.93396  1.0000
  C   C1683     1.0  0.44278  0.68620  0.93687  1.0000
  S   S493      1.0  0.41051  0.78380  0.77774  1.0000
  H   H2883     1.0  0.40035  0.96038  0.90264  1.0000
  H   H2884     1.0  0.64248  0.68636  0.94125  1.0000
  Fe  Fe244     1.0  0.42196  0.65556  0.84739  1.0000
  S   S494      1.0  0.44872  0.65526  0.82678  1.0000
  C   C1684     1.0  0.61512  0.64356  0.92647  1.0000
  Fe  Fe245     1.0  0.42246  0.69288  0.85439  1.0000
  S   S495      1.0  0.44878  0.69544  0.83415  1.0000
  S   S496      1.0  0.40818  0.71514  0.87046  1.0000
  Fe  Fe246     1.0  0.43673  0.68486  0.81632  1.0000
  S   S497      1.0  0.44028  0.69797  0.78616  1.0000
  Fe  Fe247     1.0  0.45835  0.66593  0.84660  1.0000
  S   S498      1.0  0.48624  0.65425  0.85421  1.0000
  S   S499      1.0  0.40932  0.68458  0.83552  1.0000
  S   S500      1.0  0.43261  0.66390  0.86814  1.0000
  C   C1685     1.0  0.41883  0.76006  0.77921  1.0000
  C   C1686     1.0  0.43276  0.75297  0.76560  1.0000
  C   C1687     1.0  0.43918  0.73384  0.76757  1.0000
  C   C1688     1.0  0.43199  0.72185  0.78334  1.0000
  C   C1689     1.0  0.41822  0.72901  0.79695  1.0000
  C   C1690     1.0  0.41148  0.74801  0.79475  1.0000
  H   H2885     1.0  0.41262  0.71992  0.80917  1.0000
  H   H2886     1.0  0.40073  0.75341  0.80534  1.0000
  H   H2887     1.0  0.47933  0.69534  0.88827  1.0000
  S   S501      1.0  0.32675  0.58331  0.80561  1.0000
  C   C1691     1.0  0.47151  0.66329  0.91116  1.0000
  H   H2888     1.0  0.59480  0.79560  0.83055  1.0000
  H   H2889     1.0  0.52153  0.86006  0.90936  1.0000
  C   C1692     1.0  0.38171  0.64187  0.83556  1.0000
  C   C1693     1.0  0.36874  0.63872  0.82728  1.0000
  H   H2890     1.0  0.38377  0.65565  0.83392  1.0000
  H   H2891     1.0  0.36096  0.65015  0.81906  1.0000
  C   C1694     1.0  0.52239  0.69223  0.85703  1.0000
  C   C1695     1.0  0.50507  0.69966  0.85257  1.0000
  C   C1696     1.0  0.49400  0.68820  0.85138  1.0000
  C   C1697     1.0  0.50015  0.66912  0.85476  1.0000
  C   C1698     1.0  0.51750  0.66165  0.85923  1.0000
  C   C1699     1.0  0.52864  0.67316  0.86031  1.0000
  H   H2892     1.0  0.50014  0.71436  0.85021  1.0000
  H   H2893     1.0  0.48066  0.69412  0.84808  1.0000
  H   H2894     1.0  0.52234  0.64690  0.86186  1.0000
  H   H2895     1.0  0.54195  0.66729  0.86382  1.0000
  C   C1700     1.0  0.60378  0.75036  0.81406  1.0000
  C   C1701     1.0  0.58517  0.75617  0.82122  1.0000
  H   H2896     1.0  0.41955  0.90894  0.79303  1.0000
  C   C1702     1.0  0.60314  0.77919  0.79142  1.0000
  C   C1703     1.0  0.61268  0.76178  0.79891  1.0000
  H   H2897     1.0  0.57806  0.74738  0.83254  1.0000
  S   S502      1.0  0.58447  0.78974  0.97030  1.0000
  H   H2898     1.0  0.62707  0.75734  0.79324  1.0000
  C   C1704     1.0  0.63801  0.63275  0.86833  1.0000
  C   C1705     1.0  0.48926  0.98079  0.78084  1.0000
  C   C1706     1.0  0.32610  0.50138  0.81234  1.0000
  H   H2899     1.0  0.58658  0.80727  0.85836  1.0000
  H   H2900     1.0  0.49158  0.74752  0.84847  1.0000
  H   H2901     1.0  0.63405  0.86081  0.93204  1.0000
  H   H2902     1.0  0.63848  0.60860  0.89008  1.0000
  C   C1707     1.0  0.48619  0.67313  0.93132  1.0000
  H   H2903     1.0  0.52758  0.89595  0.81466  1.0000
  H   H2904     1.0  0.64205  0.65502  0.84516  1.0000
  C   C1708     1.0  0.44511  0.74078  0.89042  1.0000
  C   C1709     1.0  0.42604  0.74604  0.89525  1.0000
  C   C1710     1.0  0.41477  0.73827  0.88888  1.0000
  C   C1711     1.0  0.42253  0.72510  0.87786  1.0000
  C   C1712     1.0  0.44161  0.72005  0.87290  1.0000
  C   C1713     1.0  0.45283  0.72813  0.87891  1.0000
  H   H2905     1.0  0.44775  0.70982  0.86460  1.0000
  H   H2906     1.0  0.46757  0.72440  0.87483  1.0000
  C   C1714     1.0  0.60823  0.75558  0.92241  1.0000
  C   C1715     1.0  0.59151  0.75256  0.93382  1.0000
  C   C1716     1.0  0.58327  0.73912  0.93175  1.0000
  C   C1717     1.0  0.59136  0.72904  0.91788  1.0000
  C   C1718     1.0  0.60796  0.73220  0.90621  1.0000
  C   C1719     1.0  0.61657  0.74522  0.90873  1.0000
  H   H2907     1.0  0.58512  0.76027  0.94458  1.0000
  H   H2908     1.0  0.57054  0.73657  0.94095  1.0000
  H   H2909     1.0  0.61437  0.72429  0.89561  1.0000
  H   H2910     1.0  0.62968  0.74727  0.90014  1.0000
  C   C1720     1.0  0.51733  0.80055  0.95637  1.0000
  C   C1721     1.0  0.52330  0.81223  0.93985  1.0000
  C   C1722     1.0  0.51359  0.81708  0.92564  1.0000
  C   C1723     1.0  0.49727  0.81114  0.92827  1.0000
  C   C1724     1.0  0.49032  0.80093  0.94540  1.0000
  C   C1725     1.0  0.50052  0.79533  0.95935  1.0000
  H   H2911     1.0  0.53550  0.81744  0.93788  1.0000
  H   H2912     1.0  0.51886  0.82532  0.91258  1.0000
  H   H2913     1.0  0.47723  0.79710  0.94794  1.0000
  S   S503      1.0  0.34164  0.52934  0.81367  1.0000
  H   H2914     1.0  0.46847  0.84322  0.77550  1.0000
  H   H2915     1.0  0.52792  0.82667  0.79984  1.0000
  C   C1726     1.0  0.39188  0.62718  0.84612  1.0000
  H   H2916     1.0  0.36320  0.98330  0.87813  1.0000
  H   H2917     1.0  0.57204  0.89490  0.75889  1.0000
  C   C1727     1.0  0.56582  0.91631  0.77447  1.0000
  C   C1728     1.0  0.36564  0.62092  0.82971  1.0000
  H   H2918     1.0  0.41332  0.95888  0.87169  1.0000
  C   C1729     1.0  0.59165  0.89881  0.87858  1.0000
  C   C1730     1.0  0.60189  0.88097  0.88310  1.0000
  C   C1731     1.0  0.59294  0.86632  0.89223  1.0000
  C   C1732     1.0  0.57376  0.86953  0.89648  1.0000
  C   C1733     1.0  0.56359  0.88734  0.89205  1.0000
  C   C1734     1.0  0.57252  0.90200  0.88353  1.0000
  H   H2919     1.0  0.61670  0.87845  0.87927  1.0000
  H   H2920     1.0  0.60083  0.85253  0.89557  1.0000
  H   H2921     1.0  0.54876  0.88988  0.89551  1.0000
  H   H2922     1.0  0.56456  0.91581  0.88093  1.0000
  H   H2923     1.0  0.37344  0.59248  0.84238  1.0000
  H   H2924     1.0  0.58924  0.86417  0.93272  1.0000
  C   C1735     1.0  0.52126  0.88578  0.75950  1.0000
  H   H2925     1.0  0.48512  0.71462  0.90873  1.0000
  H   H2926     1.0  0.44540  0.67552  0.90163  1.0000
  H   H2927     1.0  0.41003  0.81960  0.81884  1.0000
  C   C1736     1.0  0.42447  0.84490  0.82851  1.0000
  H   H2928     1.0  0.46594  0.66017  0.95380  1.0000
  N   N120      1.0  0.47532  0.67950  0.91621  1.0000
  H   H2929     1.0  0.61296  0.77677  0.82694  1.0000
  C   C1737     1.0  0.44415  0.89801  0.77516  1.0000
  C   C1738     1.0  0.45158  0.88718  0.76179  1.0000
  C   C1739     1.0  0.44052  0.87800  0.75684  1.0000
  C   C1740     1.0  0.42177  0.88037  0.76461  1.0000
  C   C1741     1.0  0.41422  0.89179  0.77743  1.0000
  C   C1742     1.0  0.42544  0.90031  0.78297  1.0000
  H   H2930     1.0  0.46590  0.88585  0.75525  1.0000
  H   H2931     1.0  0.38881  0.81907  0.84534  1.0000
  C   C1743     1.0  0.39558  0.88361  0.87556  1.0000
  C   C1744     1.0  0.37913  0.87771  0.88387  1.0000
  C   C1745     1.0  0.37928  0.86004  0.89472  1.0000
  C   C1746     1.0  0.39586  0.84819  0.89757  1.0000
  C   C1747     1.0  0.41243  0.85408  0.88942  1.0000
  C   C1748     1.0  0.41228  0.87180  0.87830  1.0000
  H   H2932     1.0  0.42528  0.84490  0.89150  1.0000
  H   H2933     1.0  0.42501  0.87633  0.87184  1.0000
  C   C1749     1.0  0.49494  0.91001  0.86249  1.0000
  C   C1750     1.0  0.48441  0.92788  0.86003  1.0000
  C   C1751     1.0  0.49019  0.94227  0.86353  1.0000
  C   C1752     1.0  0.50687  0.93900  0.86901  1.0000
  C   C1753     1.0  0.51752  0.92115  0.87150  1.0000
  C   C1754     1.0  0.51145  0.90662  0.86845  1.0000
  H   H2934     1.0  0.47179  0.93083  0.85534  1.0000
  H   H2935     1.0  0.48193  0.95604  0.86149  1.0000
  H   H2936     1.0  0.53032  0.91851  0.87600  1.0000
  H   H2937     1.0  0.51951  0.89283  0.87073  1.0000
  C   C1755     1.0  0.49544  0.70409  0.90213  1.0000
  H   H2938     1.0  0.50954  0.87824  0.92102  1.0000
  N   N121      1.0  0.59811  0.88549  0.93999  1.0000
  Fe  Fe248     1.0  0.58504  0.82370  0.76444  1.0000
  C   C1756     1.0  0.61422  0.88626  0.92395  1.0000
  C   C1757     1.0  0.59064  0.90449  0.94401  1.0000
  H   H2939     1.0  0.41099  0.72676  0.75352  1.0000
  H   H2940     1.0  0.49176  0.83181  0.76958  1.0000
  C   C1758     1.0  0.62644  0.86755  0.92081  1.0000
  C   C1759     1.0  0.58233  0.91900  0.92870  1.0000
  C   C1760     1.0  0.48063  0.65746  0.94729  1.0000
  H   H2941     1.0  0.58061  0.88666  0.92153  1.0000
  S   S504      1.0  0.53141  0.79170  0.97264  1.0000
  H   H2942     1.0  0.62327  0.89497  0.92506  1.0000
  H   H2943     1.0  0.60949  0.89317  0.91089  1.0000
  C   C1761     1.0  0.52292  0.82569  0.78787  1.0000
  H   H2944     1.0  0.61710  0.81573  0.82697  1.0000
  S   S505      1.0  0.58245  0.82065  0.73702  1.0000
  H   H2945     1.0  0.64176  0.64786  0.94344  1.0000
  S   S506      1.0  0.61327  0.82977  0.75391  1.0000
  H   H2946     1.0  0.38232  0.65255  0.75726  1.0000
  H   H2947     1.0  0.62226  0.70307  0.93765  1.0000
  H   H2948     1.0  0.38544  0.94541  0.87856  1.0000
  H   H2949     1.0  0.51525  0.94865  0.77423  1.0000
  C   C1762     1.0  0.65050  0.67451  0.89974  1.0000
  H   H2950     1.0  0.62294  0.63325  0.93615  1.0000
  C   C1763     1.0  0.59564  0.89629  0.76825  1.0000
  H   H2951     1.0  0.57807  0.93255  0.93284  1.0000
  H   H2952     1.0  0.65130  0.75396  0.85328  1.0000
  C   C1764     1.0  0.50587  0.95547  0.80250  1.0000
  H   H2953     1.0  0.37687  0.96251  0.85987  1.0000
  C   C1765     1.0  0.39688  0.78586  0.73525  1.0000
  C   C1766     1.0  0.62529  0.67924  0.92597  1.0000
  C   C1767     1.0  0.42181  0.98578  0.88486  1.0000
  Fe  Fe249     1.0  0.56978  0.85061  0.73277  1.0000
  H   H2954     1.0  0.57225  0.78292  0.84932  1.0000
  H   H2955     1.0  0.60162  0.90996  0.94660  1.0000
  C   C1768     1.0  0.55383  0.87700  0.81616  1.0000
  H   H2956     1.0  0.51774  0.95207  0.80941  1.0000
  C   C1769     1.0  0.64068  0.58141  0.82407  1.0000
  C   C1770     1.0  0.47998  0.75625  0.84214  1.0000
  H   H2957     1.0  0.60875  0.80991  0.85728  1.0000
  Fe  Fe250     1.0  0.59864  0.85930  0.74870  1.0000
  H   H2958     1.0  0.44558  0.87142  0.95331  1.0000
  H   H2959     1.0  0.39966  0.89394  0.78320  1.0000
  H   H2960     1.0  0.59339  0.89398  0.84244  1.0000
  C   C1771     1.0  0.47020  0.97567  0.78771  1.0000
  H   H2961     1.0  0.56905  0.76322  0.86708  1.0000
  C   C1772     1.0  0.32747  0.51309  0.82306  1.0000
  H   H2962     1.0  0.44184  0.67197  0.93738  1.0000
  H   H2963     1.0  0.62596  0.77042  0.87308  1.0000
  H   H2964     1.0  0.41452  0.83279  0.79558  1.0000
  H   H2965     1.0  0.47161  0.76838  0.77509  1.0000
  N   N122      1.0  0.39142  0.98116  0.87987  1.0000
  C   C1773     1.0  0.60365  0.87273  0.95700  1.0000
  H   H2966     1.0  0.38864  0.79103  0.74774  1.0000
  H   H2967     1.0  0.33337  0.50280  0.79816  1.0000
  H   H2968     1.0  0.58902  0.87156  0.85306  1.0000
  H   H2969     1.0  0.53583  0.86417  0.85668  1.0000
  S   S507      1.0  0.61043  0.87811  0.75861  1.0000
  N   N123      1.0  0.41537  0.65296  0.78121  1.0000
  C   C1774     1.0  0.40406  0.66680  0.79266  1.0000
  C   C1775     1.0  0.41600  0.63395  0.79314  1.0000
  C   C1776     1.0  0.40709  0.65399  0.76512  1.0000
  C   C1777     1.0  0.43428  0.65722  0.77405  1.0000
  C   C1778     1.0  0.39853  0.68670  0.78212  1.0000
  C   C1779     1.0  0.42783  0.62897  0.80779  1.0000
  C   C1780     1.0  0.38733  0.65055  0.77012  1.0000
  C   C1781     1.0  0.44827  0.64405  0.76248  1.0000
  H   H2970     1.0  0.39112  0.66254  0.80072  1.0000
  H   H2971     1.0  0.41146  0.66754  0.80307  1.0000
  H   H2972     1.0  0.42074  0.62310  0.78479  1.0000
  H   H2973     1.0  0.40199  0.63206  0.80070  1.0000
  H   H2974     1.0  0.40728  0.66749  0.75542  1.0000
  H   H2975     1.0  0.41551  0.64363  0.75686  1.0000
  H   H2976     1.0  0.43365  0.67111  0.76504  1.0000
  H   H2977     1.0  0.44041  0.65833  0.78531  1.0000
  H   H2978     1.0  0.38828  0.68787  0.77382  1.0000
  H   H2979     1.0  0.39204  0.69571  0.79226  1.0000
  H   H2980     1.0  0.41039  0.69234  0.77321  1.0000
  H   H2981     1.0  0.51953  0.89702  0.74729  1.0000
  H   H2982     1.0  0.32374  0.63766  0.89891  1.0000
  H   H2983     1.0  0.36232  0.62383  0.88134  1.0000
  H   H2984     1.0  0.47806  0.97910  0.81782  1.0000
  H   H2985     1.0  0.48438  0.64414  0.94273  1.0000
  H   H2986     1.0  0.61252  0.88665  0.97393  1.0000
  H   H2987     1.0  0.44783  0.64896  0.74765  1.0000
  H   H2988     1.0  0.44623  0.62972  0.76671  1.0000
  H   H2989     1.0  0.46229  0.64339  0.76435  1.0000
  H   H2990     1.0  0.48843  0.65576  0.95816  1.0000
  C   C1782     1.0  0.59976  0.79966  0.86252  1.0000
  H   H2991     1.0  0.64057  0.76234  0.83389  1.0000
  H   H2992     1.0  0.60941  0.79712  0.88790  1.0000
  C   C1783     1.0  0.64639  0.61578  0.87788  1.0000
  H   H2993     1.0  0.38675  0.63621  0.77757  1.0000
  C   C1784     1.0  0.59651  0.76845  0.86143  1.0000
  S   S508      1.0  0.42044  0.77895  0.93397  1.0000
  H   H2994     1.0  0.60083  0.75781  0.85280  1.0000
  H   H2995     1.0  0.53554  0.96510  0.76921  1.0000
  H   H2996     1.0  0.56967  0.78396  0.87317  1.0000
  H   H2997     1.0  0.49604  0.97433  0.76883  1.0000
  Fe  Fe251     1.0  0.58544  0.81960  0.96615  1.0000
  H   H2998     1.0  0.62070  0.80521  0.80785  1.0000
  H   H2999     1.0  0.53355  0.81538  0.78101  1.0000
  H   H3000     1.0  0.55171  0.92068  0.77288  1.0000
  C   C1785     1.0  0.61870  0.87736  0.96401  1.0000
  C   C1786     1.0  0.57728  0.90172  0.76656  1.0000
  H   H3001     1.0  0.51922  0.84147  0.76101  1.0000
  H   H3002     1.0  0.56381  0.89420  0.83834  1.0000
  C   C1787     1.0  0.53921  0.89371  0.82160  1.0000
  N   N124      1.0  0.60793  0.78306  0.85389  1.0000
  N   N125      1.0  0.52360  0.75785  0.90599  1.0000
  C   C1788     1.0  0.51335  0.75823  0.89144  1.0000
  C   C1789     1.0  0.53887  0.74106  0.90606  1.0000
  C   C1790     1.0  0.53157  0.77496  0.90036  1.0000
  C   C1791     1.0  0.51029  0.75758  0.92426  1.0000
  C   C1792     1.0  0.49896  0.77586  0.88681  1.0000
  C   C1793     1.0  0.53282  0.72271  0.90887  1.0000
  C   C1794     1.0  0.54463  0.77649  0.91185  1.0000
  C   C1795     1.0  0.51831  0.74949  0.94188  1.0000
  H   H3003     1.0  0.52309  0.75611  0.87828  1.0000
  H   H3004     1.0  0.50581  0.74673  0.89559  1.0000
  H   H3005     1.0  0.54684  0.73934  0.91671  1.0000
  H   H3006     1.0  0.54911  0.74255  0.89289  1.0000
  H   H3007     1.0  0.53907  0.77645  0.88579  1.0000
  H   H3008     1.0  0.52050  0.78749  0.90090  1.0000
  H   H3009     1.0  0.50242  0.77172  0.92527  1.0000
  H   H3010     1.0  0.49997  0.74932  0.92526  1.0000
  H   H3011     1.0  0.50552  0.78751  0.87864  1.0000
  H   H3012     1.0  0.49044  0.77339  0.87833  1.0000
  H   H3013     1.0  0.48958  0.77986  0.89931  1.0000
  H   H3014     1.0  0.52958  0.72128  0.89608  1.0000
  H   H3015     1.0  0.54428  0.71108  0.91205  1.0000
  H   H3016     1.0  0.52091  0.72120  0.92041  1.0000
  H   H3017     1.0  0.54996  0.78931  0.90561  1.0000
  H   H3018     1.0  0.55674  0.76504  0.91204  1.0000
  H   H3019     1.0  0.53732  0.77793  0.92599  1.0000
  H   H3020     1.0  0.50992  0.75696  0.95284  1.0000
  H   H3021     1.0  0.53261  0.75056  0.94065  1.0000
  H   H3022     1.0  0.42354  0.63907  0.81683  1.0000
  C   C1796     1.0  0.56483  0.85617  0.84355  1.0000
  C   C1797     1.0  0.54971  0.86317  0.85909  1.0000
  H   H3023     1.0  0.55996  0.84509  0.84041  1.0000
  H   H3024     1.0  0.57713  0.84866  0.84942  1.0000
  H   H3025     1.0  0.63083  0.74680  0.85388  1.0000
  H   H3026     1.0  0.48463  0.65422  0.90592  1.0000
  H   H3027     1.0  0.55088  0.87638  0.86147  1.0000
  H   H3028     1.0  0.55121  0.85339  0.87229  1.0000
  N   N126      1.0  0.50105  0.97593  0.79504  1.0000
  H   H3029     1.0  0.46064  0.98522  0.79623  1.0000
  C   C1798     1.0  0.40013  0.73741  0.74756  1.0000
  H   H3030     1.0  0.62751  0.57700  0.83103  1.0000
  H   H3031     1.0  0.37769  0.96147  0.90074  1.0000
  H   H3032     1.0  0.51689  0.73496  0.94725  1.0000
  C   C1799     1.0  0.62762  0.65438  0.91076  1.0000
  S   S509      1.0  0.40345  0.82814  0.74064  1.0000
  H   H3033     1.0  0.59171  0.87266  0.96875  1.0000
  H   H3034     1.0  0.35762  0.59257  0.89112  1.0000
  C   C1800     1.0  0.34879  0.63220  0.87882  1.0000
  C   C1801     1.0  0.38770  0.97021  0.89925  1.0000
  H   H3035     1.0  0.49549  0.78678  0.97231  1.0000
  H   H3036     1.0  0.64191  0.59129  0.83174  1.0000
  C   C1802     1.0  0.33303  0.62540  0.89402  1.0000
  H   H3037     1.0  0.60462  0.87571  0.83086  1.0000
  H   H3038     1.0  0.50176  0.71142  0.88847  1.0000
  C   C1803     1.0  0.37978  0.98152  0.91452  1.0000
  N   N127      1.0  0.63873  0.66477  0.91645  1.0000
  H   H3039     1.0  0.50725  0.96956  0.83119  1.0000
  H   H3040     1.0  0.52776  0.97899  0.79682  1.0000
  C   C1804     1.0  0.38927  0.95499  0.86541  1.0000
  H   H3041     1.0  0.63683  0.86982  0.90788  1.0000
  N   N128      1.0  0.47344  0.87298  0.91945  1.0000
  C   C1805     1.0  0.46007  0.87740  0.90685  1.0000
  C   C1806     1.0  0.47177  0.88976  0.92697  1.0000
  C   C1807     1.0  0.46942  0.85736  0.93535  1.0000
  C   C1808     1.0  0.49253  0.86735  0.90863  1.0000
  C   C1809     1.0  0.45866  0.86124  0.89916  1.0000
  C   C1810     1.0  0.47732  0.90668  0.91273  1.0000
  C   C1811     1.0  0.44956  0.85945  0.94657  1.0000
  C   C1812     1.0  0.50840  0.86507  0.91843  1.0000
  H   H3042     1.0  0.44604  0.88345  0.91369  1.0000
  H   H3043     1.0  0.46382  0.88813  0.89460  1.0000
  H   H3044     1.0  0.47995  0.88651  0.93786  1.0000
  H   H3045     1.0  0.45737  0.89448  0.93388  1.0000
  H   H3046     1.0  0.47273  0.84419  0.93063  1.0000
  H   H3047     1.0  0.47836  0.85513  0.94537  1.0000
  H   H3048     1.0  0.49414  0.85398  0.90468  1.0000
  H   H3049     1.0  0.49509  0.87728  0.89538  1.0000
  H   H3050     1.0  0.45409  0.84983  0.91010  1.0000
  H   H3051     1.0  0.44830  0.86622  0.89034  1.0000
  H   H3052     1.0  0.47174  0.85595  0.89026  1.0000
  H   H3053     1.0  0.47585  0.91794  0.91997  1.0000
  H   H3054     1.0  0.49182  0.90387  0.90547  1.0000
  H   H3055     1.0  0.46837  0.91207  0.90249  1.0000
  H   H3056     1.0  0.44856  0.84702  0.95771  1.0000
  H   H3057     1.0  0.38929  0.73025  0.74770  1.0000
  H   H3058     1.0  0.64860  0.66415  0.87632  1.0000
  Fe  Fe252     1.0  0.33095  0.55561  0.82461  1.0000
  H   H3059     1.0  0.64845  0.56703  0.86029  1.0000
  S   S510      1.0  0.34960  0.61768  0.81854  1.0000
  C   C1813     1.0  0.57570  0.77530  0.86273  1.0000
  C   C1814     1.0  0.57573  0.77360  0.81393  1.0000
  H   H3060     1.0  0.61852  0.85808  0.91921  1.0000
  H   H3061     1.0  0.57058  0.84858  0.80031  1.0000
  H   H3062     1.0  0.43866  0.76219  0.75367  1.0000
  H   H3063     1.0  0.61871  0.66397  0.90156  1.0000
  C   C1815     1.0  0.58472  0.78522  0.79917  1.0000
  C   C1816     1.0  0.43691  0.85287  0.81058  1.0000
  H   H3064     1.0  0.63527  0.78588  0.85393  1.0000
  H   H3065     1.0  0.39867  0.84854  0.85969  1.0000
  H   H3066     1.0  0.61532  0.68745  0.91720  1.0000
  H   H3067     1.0  0.44999  0.72836  0.75709  1.0000
  H   H3068     1.0  0.56141  0.77811  0.81980  1.0000
  H   H3069     1.0  0.39298  0.82680  0.80527  1.0000
  H   H3070     1.0  0.42598  0.61542  0.81672  1.0000
  H   H3071     1.0  0.65221  0.55285  0.83518  1.0000
  C   C1817     1.0  0.51810  0.98389  0.78717  1.0000
  H   H3072     1.0  0.48367  0.85468  0.75732  1.0000
  H   H3073     1.0  0.36621  0.88675  0.88177  1.0000
  N   N129      1.0  0.56961  0.87007  0.82621  1.0000
  S   S511      1.0  0.57286  0.80763  0.79179  1.0000
  S   S512      1.0  0.43876  0.82181  0.76002  1.0000
  H   H3074     1.0  0.44643  0.74949  0.80114  1.0000
  S   S513      1.0  0.44705  0.96970  0.83933  1.0000
  H   H3075     1.0  0.52099  0.93060  0.79273  1.0000
  C   C1818     1.0  0.49021  0.98516  0.81079  1.0000
  H   H3076     1.0  0.34786  0.63268  0.86463  1.0000
  H   H3077     1.0  0.55615  0.87362  0.94289  1.0000
  C   C1819     1.0  0.58254  0.84460  0.80701  1.0000
  H   H3078     1.0  0.44744  0.73390  0.82205  1.0000
  H   H3079     1.0  0.43854  0.86678  0.81074  1.0000
  H   H3080     1.0  0.44639  0.86943  0.74672  1.0000
  H   H3081     1.0  0.38153  0.89887  0.82815  1.0000
  C   C1820     1.0  0.57257  0.92522  0.78439  1.0000
  H   H3082     1.0  0.62661  0.86443  0.97105  1.0000
  C   C1821     1.0  0.58580  0.86060  0.81374  1.0000
  H   H3083     1.0  0.54644  0.86583  0.81762  1.0000
  H   H3084     1.0  0.59768  0.85465  0.82061  1.0000
  C   C1822     1.0  0.64835  0.64197  0.85264  1.0000
  H   H3085     1.0  0.41997  0.75588  0.90410  1.0000
  H   H3086     1.0  0.56726  0.86813  0.96185  1.0000
  Fe  Fe253     1.0  0.42264  0.80433  0.75410  1.0000
  H   H3087     1.0  0.44440  0.68742  0.95045  1.0000
  H   H3088     1.0  0.44868  0.77734  0.78669  1.0000
  H   H3089     1.0  0.40928  0.77679  0.73963  1.0000
  C   C1823     1.0  0.38143  0.88394  0.83138  1.0000
  H   H3090     1.0  0.37392  0.88087  0.84583  1.0000
  H   H3091     1.0  0.61016  0.78808  0.77998  1.0000
  S   S514      1.0  0.34140  0.56565  0.84442  1.0000
  H   H3092     1.0  0.40001  0.74226  0.89274  1.0000
  H   H3093     1.0  0.40779  0.87581  0.83921  1.0000
  H   H3094     1.0  0.37760  0.66017  0.77840  1.0000
  H   H3095     1.0  0.43184  0.85352  0.79813  1.0000
  C   C1824     1.0  0.52076  0.84418  0.77398  1.0000
  H   H3096     1.0  0.48589  0.84366  0.79861  1.0000
  H   H3097     1.0  0.50863  0.85178  0.80858  1.0000
  H   H3098     1.0  0.59066  0.87068  0.80129  1.0000
  C   C1825     1.0  0.59152  0.88116  0.83963  1.0000
  C   C1826     1.0  0.39572  0.82372  0.85383  1.0000
  Fe  Fe254     1.0  0.43690  0.78487  0.95146  1.0000
  H   H3099     1.0  0.41006  0.81605  0.85328  1.0000
  C   C1827     1.0  0.50496  0.87593  0.76457  1.0000
  H   H3100     1.0  0.36647  0.85552  0.90095  1.0000
  C   C1828     1.0  0.40145  0.87309  0.82890  1.0000
  H   H3101     1.0  0.37386  0.88166  0.82194  1.0000
  H   H3102     1.0  0.40850  0.87984  0.81536  1.0000
  H   H3103     1.0  0.53059  0.97901  0.88918  1.0000
  H   H3104     1.0  0.39931  0.86047  0.80232  1.0000
  H   H3105     1.0  0.61695  0.67290  0.93902  1.0000
  H   H3106     1.0  0.46578  0.79086  0.77921  1.0000
  C   C1829     1.0  0.47446  0.74533  0.83078  1.0000
  H   H3107     1.0  0.61661  0.90112  0.77937  1.0000
  C   C1830     1.0  0.48279  0.84539  0.77100  1.0000
  C   C1831     1.0  0.39407  0.84471  0.84881  1.0000
  C   C1832     1.0  0.48724  0.85371  0.78528  1.0000
  H   H3108     1.0  0.43206  0.78886  0.81083  1.0000
  H   H3109     1.0  0.43951  0.86023  0.93818  1.0000
  H   H3110     1.0  0.53421  0.84825  0.77058  1.0000
  H   H3111     1.0  0.49560  0.89325  0.79397  1.0000
  C   C1833     1.0  0.50919  0.86375  0.79684  1.0000
  C   C1834     1.0  0.46342  0.77671  0.78542  1.0000
  H   H3112     1.0  0.45081  0.84397  0.80940  1.0000
  H   H3113     1.0  0.47587  0.86572  0.78755  1.0000
  H   H3114     1.0  0.48149  0.87762  0.80888  1.0000
  C   C1835     1.0  0.49565  0.88014  0.80420  1.0000
  H   H3115     1.0  0.41686  0.78177  0.83172  1.0000
  C   C1836     1.0  0.50042  0.98385  0.82605  1.0000
  N   N130      1.0  0.50554  0.85939  0.78021  1.0000
  H   H3116     1.0  0.63597  0.79634  0.82341  1.0000
  H   H3117     1.0  0.43900  0.75543  0.84236  1.0000
  H   H3118     1.0  0.48160  0.73727  0.79052  1.0000
  H   H3119     1.0  0.52334  0.86628  0.79414  1.0000
  H   H3120     1.0  0.59873  0.76064  0.87529  1.0000
  H   H3121     1.0  0.39638  0.59799  0.85700  1.0000
  S   S515      1.0  0.43541  0.81458  0.93765  1.0000
  C   C1837     1.0  0.42846  0.77660  0.82109  1.0000
  H   H3122     1.0  0.47096  0.96140  0.79566  1.0000
  H   H3123     1.0  0.49888  0.67875  0.89348  1.0000
  C   C1838     1.0  0.60866  0.78891  0.83347  1.0000
  C   C1839     1.0  0.39662  0.84971  0.81495  1.0000
  C   C1840     1.0  0.47054  0.76997  0.80362  1.0000
  H   H3124     1.0  0.44266  0.62774  0.80159  1.0000
  H   H3125     1.0  0.48461  0.76883  0.83353  1.0000
  H   H3126     1.0  0.37909  0.85051  0.85056  1.0000
  C   C1841     1.0  0.48713  0.68892  0.89936  1.0000
  C   C1842     1.0  0.38860  0.60941  0.84877  1.0000
  H   H3127     1.0  0.42922  0.84710  0.84021  1.0000
  N   N131      1.0  0.40419  0.85267  0.83006  1.0000
  C   C1843     1.0  0.63779  0.75868  0.84913  1.0000
  C   C1844     1.0  0.47164  0.72972  0.80073  1.0000
  H   H3128     1.0  0.42318  0.76802  0.81489  1.0000
  H   H3129     1.0  0.38141  0.85146  0.81894  1.0000
  H   H3130     1.0  0.47889  0.71888  0.81057  1.0000
  C   C1845     1.0  0.45569  0.74264  0.81083  1.0000
  H   H3131     1.0  0.44815  0.77574  0.83633  1.0000
  H   H3132     1.0  0.41949  0.98035  0.89990  1.0000
  H   H3133     1.0  0.38845  0.81998  0.86834  1.0000
  H   H3134     1.0  0.58099  0.83243  0.81829  1.0000
  H   H3135     1.0  0.64126  0.70130  0.91886  1.0000
  C   C1846     1.0  0.40425  0.83111  0.80867  1.0000
  H   H3136     1.0  0.60772  0.85814  0.95540  1.0000
  S   S516      1.0  0.57072  0.85326  0.76092  1.0000
  H   H3137     1.0  0.54478  0.90650  0.81688  1.0000
  H   H3138     1.0  0.53454  0.87656  0.75558  1.0000
  C   C1847     1.0  0.59087  0.91966  0.78622  1.0000
  H   H3139     1.0  0.48538  0.76389  0.79949  1.0000
  H   H3140     1.0  0.46999  0.78231  0.80896  1.0000
  H   H3141     1.0  0.49230  0.88646  0.76747  1.0000
  H   H3142     1.0  0.50431  0.87210  0.75176  1.0000
  H   H3143     1.0  0.53351  0.89181  0.83652  1.0000
  H   H3144     1.0  0.50095  0.66799  0.92557  1.0000
  H   H3145     1.0  0.45814  0.65501  0.89386  1.0000
  H   H3146     1.0  0.46557  0.67600  0.88337  1.0000
  C   C1848     1.0  0.45946  0.66805  0.89669  1.0000
  C   C1849     1.0  0.44455  0.76567  0.83039  1.0000
  H   H3147     1.0  0.52191  0.89220  0.77063  1.0000
  H   H3148     1.0  0.46607  0.72248  0.79324  1.0000
  N   N132      1.0  0.46121  0.75620  0.81846  1.0000
  H   H3149     1.0  0.57875  0.89582  0.81676  1.0000
  H   H3150     1.0  0.48588  0.68487  0.93752  1.0000
  H   H3151     1.0  0.55902  0.88130  0.80108  1.0000
  H   H3152     1.0  0.37825  0.97189  0.92808  1.0000
  S   S517      1.0  0.46346  0.77484  0.93347  1.0000
  H   H3153     1.0  0.59237  0.92069  0.91546  1.0000
  H   H3154     1.0  0.51017  0.82018  0.79259  1.0000
  H   H3155     1.0  0.56988  0.91581  0.92651  1.0000
  H   H3156     1.0  0.45177  0.70046  0.90922  1.0000
  H   H3157     1.0  0.42778  0.82982  0.82975  1.0000
  C   C1850     1.0  0.62681  0.77517  0.85799  1.0000
  H   H3158     1.0  0.59618  0.92655  0.79378  1.0000
  H   H3159     1.0  0.42926  0.69467  0.93437  1.0000
  C   C1851     1.0  0.57522  0.88601  0.82989  1.0000
  H   H3160     1.0  0.50650  0.69817  0.91006  1.0000
  C   C1852     1.0  0.37557  0.60627  0.84057  1.0000
  H   H3161     1.0  0.58520  0.80647  0.88905  1.0000
  H   H3162     1.0  0.35821  0.57891  0.87521  1.0000
  H   H3163     1.0  0.62887  0.88374  0.95292  1.0000
  H   H3164     1.0  0.59471  0.84016  0.79650  1.0000
  H   H3165     1.0  0.46111  0.70468  0.92577  1.0000
  H   H3166     1.0  0.46458  0.65432  0.92320  1.0000
  H   H3167     1.0  0.60856  0.63588  0.92038  1.0000
  H   H3168     1.0  0.63635  0.64433  0.90243  1.0000
  H   H3169     1.0  0.48756  0.73881  0.82263  1.0000
  C   C1853     1.0  0.59697  0.79611  0.88370  1.0000
  H   H3170     1.0  0.59354  0.78259  0.89077  1.0000
  C   C1854     1.0  0.60240  0.90529  0.77807  1.0000
  H   H3171     1.0  0.46880  0.73372  0.84061  1.0000
  C   C1855     1.0  0.45802  0.69329  0.92136  1.0000
  H   H3172     1.0  0.33955  0.61728  0.90579  1.0000
  H   H3173     1.0  0.64237  0.68785  0.89355  1.0000
  C   C1856     1.0  0.65031  0.65252  0.92977  1.0000
  H   H3174     1.0  0.39765  0.94629  0.85549  1.0000
  H   H3175     1.0  0.34069  0.60767  0.86384  1.0000
  H   H3176     1.0  0.37533  0.77069  0.74084  1.0000
  H   H3177     1.0  0.43047  0.97480  0.87765  1.0000
  H   H3178     1.0  0.49806  0.93681  0.78970  1.0000
  H   H3179     1.0  0.39479  0.74738  0.75684  1.0000
  H   H3180     1.0  0.63975  0.58886  0.80979  1.0000
  C   C1857     1.0  0.51017  0.94260  0.78871  1.0000
  C   C1858     1.0  0.34903  0.58629  0.88592  1.0000
  H   H3181     1.0  0.32519  0.59303  0.87394  1.0000
  Fe  Fe255     1.0  0.33452  0.59387  0.82689  1.0000
  C   C1859     1.0  0.40083  0.96794  0.86718  1.0000
  H   H3182     1.0  0.58007  0.90419  0.95699  1.0000
  C   C1860     1.0  0.56554  0.87818  0.94886  1.0000
  H   H3183     1.0  0.34314  0.57573  0.89706  1.0000
  C   C1861     1.0  0.33391  0.60073  0.87737  1.0000
  Fe  Fe256     1.0  0.42125  0.84538  0.74451  1.0000
  H   H3184     1.0  0.55858  0.89192  0.95183  1.0000
  H   H3185     1.0  0.34905  0.64642  0.87946  1.0000
  C   C1862     1.0  0.52943  0.97986  0.76845  1.0000
  H   H3186     1.0  0.52457  0.80247  0.73556  1.0000
  H   H3187     1.0  0.40592  0.97538  0.85311  1.0000
  C   C1863     1.0  0.63362  0.69310  0.93109  1.0000
  H   H3188     1.0  0.46406  0.97684  0.77574  1.0000
  H   H3189     1.0  0.52160  0.98527  0.75728  1.0000
  S   S518      1.0  0.43518  0.77412  0.98208  1.0000
  C   C1864     1.0  0.65654  0.56435  0.82406  1.0000
  Fe  Fe257     1.0  0.83998  0.40362  0.08064  1.0000
  S   S519      1.0  0.81211  0.42088  0.08839  1.0000
  S   S520      1.0  0.84886  0.39410  0.05347  1.0000
  Fe  Fe258     1.0  0.85254  0.40756  0.11450  1.0000
  S   S521      1.0  0.82564  0.42550  0.12424  1.0000
  S   S522      1.0  0.87545  0.39815  0.13048  1.0000
  Fe  Fe259     1.0  0.81337  0.40526  0.11728  1.0000
  S   S523      1.0  0.79233  0.39063  0.13755  1.0000
  Fe  Fe260     1.0  0.82752  0.43908  0.09440  1.0000
  S   S524      1.0  0.82340  0.46935  0.08229  1.0000
  S   S525      1.0  0.84018  0.38644  0.10906  1.0000
  S   S526      1.0  0.85540  0.42272  0.08515  1.0000
  C   C1865     1.0  0.94970  0.48278  0.19757  1.0000
  H   H3190     1.0  0.81776  0.37410  0.99163  1.0000
  S   S527      1.0  0.78696  0.40143  0.00938  1.0000
  N   N133      1.0  0.84572  0.45065  0.02089  1.0000
  H   H3191     1.0  0.85670  0.40076  0.20514  1.0000
  H   H3192     1.0  0.79062  0.36254  0.99952  1.0000
  H   H3193     1.0  0.88237  0.44723  0.02886  1.0000
  H   H3194     1.0  0.73687  0.37385  0.15504  1.0000
  Fe  Fe261     1.0  0.89580  0.43324  0.20951  1.0000
  H   H3195     1.0  0.77742  0.39651  0.21666  1.0000
  S   S528      1.0  0.87527  0.44113  0.19097  1.0000
  C   C1866     1.0  0.70277  0.48079  0.20165  1.0000
  H   H3196     1.0  0.69015  0.43308  0.16948  1.0000
  C   C1867     1.0  0.83597  0.37824  0.16074  1.0000
  H   H3197     1.0  0.78238  0.40873  0.19343  1.0000
  H   H3198     1.0  0.79486  0.33932  0.03783  1.0000
  H   H3199     1.0  0.84706  0.33514  0.02146  1.0000
  H   H3200     1.0  0.81047  0.37997  0.21412  1.0000
  H   H3201     1.0  0.83945  0.31469  0.03428  1.0000
  H   H3202     1.0  0.68094  0.39877  0.18989  1.0000
  H   H3203     1.0  0.95249  0.47119  0.19046  1.0000
  Fe  Fe262     1.0  0.68840  0.39290  0.23030  1.0000
  H   H3204     1.0  0.82875  0.41620  0.16357  1.0000
  H   H3205     1.0  0.87206  0.43875  0.00563  1.0000
  H   H3206     1.0  0.98390  0.46247  0.18285  1.0000
  C   C1868     1.0  0.86327  0.43634  0.01959  1.0000
  H   H3207     1.0  0.78501  0.38393  0.19865  1.0000
  Fe  Fe263     1.0  0.71459  0.42000  0.21513  1.0000
  S   S529      1.0  0.73210  0.43560  0.19114  1.0000
  C   C1869     1.0  0.82078  0.38056  0.17802  1.0000
  C   C1870     1.0  0.83382  0.44655  0.03978  1.0000
  H   H3208     1.0  0.90171  0.46336  0.17417  1.0000
  H   H3209     1.0  0.86880  0.43300  0.04721  1.0000
  S   S530      1.0  0.91983  0.40955  0.21148  1.0000
  H   H3210     1.0  0.79940  0.36250  0.03025  1.0000
  C   C1871     1.0  0.82607  0.36112  0.99823  1.0000
  C   C1872     1.0  0.81432  0.45854  0.04235  1.0000
  H   H3211     1.0  0.72375  0.38119  0.12942  1.0000
  C   C1873     1.0  0.70856  0.37471  0.17195  1.0000
  S   S531      1.0  0.91168  0.45414  0.20958  1.0000
  Fe  Fe264     1.0  0.93480  0.43005  0.21422  1.0000
  H   H3212     1.0  0.82201  0.36697  0.18773  1.0000
  C   C1874     1.0  0.82685  0.32732  0.01047  1.0000
  C   C1875     1.0  0.66828  0.38583  0.17603  1.0000
  H   H3213     1.0  0.83855  0.31998  0.00133  1.0000
  H   H3214     1.0  0.85688  0.43798  0.98518  1.0000
  C   C1876     1.0  0.83547  0.44879  0.00730  1.0000
  N   N134      1.0  0.70031  0.39451  0.16459  1.0000
  C   C1877     1.0  0.83958  0.39250  0.19154  1.0000
  H   H3215     1.0  0.83310  0.36852  0.15382  1.0000
  S   S532      1.0  0.71892  0.38986  0.22766  1.0000
  H   H3216     1.0  0.81017  0.42961  0.19729  1.0000
  C   C1878     1.0  0.85199  0.46687  0.09856  1.0000
  H   H3217     1.0  0.70355  0.37097  0.18709  1.0000
  H   H3218     1.0  0.66550  0.38680  0.16231  1.0000
  H   H3219     1.0  0.97251  0.37962  0.19350  1.0000
  C   C1879     1.0  0.65871  0.36421  0.22475  1.0000
  H   H3220     1.0  0.69420  0.48569  0.19103  1.0000
  C   C1880     1.0  0.87489  0.47874  0.14839  1.0000
  H   H3221     1.0  0.69040  0.41061  0.13993  1.0000
  N   N135      1.0  0.82075  0.39567  0.18741  1.0000
  H   H3222     1.0  0.70408  0.36518  0.16603  1.0000
  S   S533      1.0  0.68481  0.42259  0.21546  1.0000
  H   H3223     1.0  0.73445  0.37463  0.17889  1.0000
  H   H3224     1.0  0.69261  0.38697  0.14277  1.0000
  H   H3225     1.0  0.89356  0.45335  0.15005  1.0000
  H   H3226     1.0  0.93944  0.46372  0.14207  1.0000
  H   H3227     1.0  0.72823  0.47454  0.22837  1.0000
  H   H3228     1.0  0.85461  0.34609  0.99006  1.0000
  C   C1881     1.0  0.96980  0.37470  0.20867  1.0000
  C   C1882     1.0  0.79737  0.34979  0.00804  1.0000
  H   H3229     1.0  0.77745  0.35847  0.03139  1.0000
  H   H3230     1.0  0.71332  0.43573  0.16246  1.0000
  C   C1883     1.0  0.71070  0.40726  0.16774  1.0000
  C   C1884     1.0  0.98716  0.47537  0.17349  1.0000
  H   H3231     1.0  0.67373  0.41288  0.16979  1.0000
  S   S534      1.0  0.96406  0.43017  0.19883  1.0000
  H   H3232     1.0  0.80800  0.45663  0.05723  1.0000
  H   H3233     1.0  0.70289  0.43143  0.14625  1.0000
  C   C1885     1.0  0.72963  0.36926  0.16926  1.0000
  H   H3234     1.0  0.85017  0.45310  0.10527  1.0000
  C   C1886     1.0  0.77616  0.40330  0.15262  1.0000
  C   C1887     1.0  0.76531  0.39403  0.16790  1.0000
  C   C1888     1.0  0.75201  0.40382  0.18007  1.0000
  C   C1889     1.0  0.74936  0.42294  0.17679  1.0000
  C   C1890     1.0  0.76038  0.43222  0.16164  1.0000
  C   C1891     1.0  0.77385  0.42240  0.14958  1.0000
  H   H3235     1.0  0.76729  0.37921  0.17037  1.0000
  H   H3236     1.0  0.74376  0.39659  0.19189  1.0000
  H   H3237     1.0  0.75839  0.44703  0.15910  1.0000
  H   H3238     1.0  0.78220  0.42960  0.13777  1.0000
  C   C1892     1.0  0.87556  0.41028  0.14708  1.0000
  C   C1893     1.0  0.88851  0.40339  0.15845  1.0000
  C   C1894     1.0  0.88858  0.41260  0.17210  1.0000
  C   C1895     1.0  0.87556  0.42866  0.17453  1.0000
  C   C1896     1.0  0.86259  0.43546  0.16323  1.0000
  C   C1897     1.0  0.86275  0.42647  0.14940  1.0000
  H   H3239     1.0  0.89849  0.39088  0.15668  1.0000
  H   H3240     1.0  0.89865  0.40726  0.18072  1.0000
  H   H3241     1.0  0.85247  0.44787  0.16506  1.0000
  H   H3242     1.0  0.85299  0.43213  0.14049  1.0000
  C   C1898     1.0  0.80422  0.40065  0.02113  1.0000
  C   C1899     1.0  0.82255  0.40003  0.01209  1.0000
  C   C1900     1.0  0.83620  0.39749  0.02219  1.0000
  C   C1901     1.0  0.83152  0.39652  0.04127  1.0000
  C   C1902     1.0  0.81314  0.39770  0.05022  1.0000
  C   C1903     1.0  0.79960  0.39951  0.04022  1.0000
  H   H3243     1.0  0.82631  0.40100  0.99741  1.0000
  H   H3244     1.0  0.85040  0.39649  0.01517  1.0000
  H   H3245     1.0  0.80939  0.39671  0.06494  1.0000
  H   H3246     1.0  0.78547  0.39992  0.04734  1.0000
  H   H3247     1.0  0.72814  0.40169  0.13355  1.0000
  H   H3248     1.0  0.71543  0.40383  0.11692  1.0000
  C   C1904     1.0  0.81645  0.41389  0.17446  1.0000
  C   C1905     1.0  0.98449  0.37904  0.21632  1.0000
  H   H3249     1.0  0.81724  0.31765  0.01627  1.0000
  C   C1906     1.0  0.84224  0.40473  0.20334  1.0000
  H   H3250     1.0  0.72539  0.40440  0.16111  1.0000
  C   C1907     1.0  0.85297  0.47715  0.03158  1.0000
  H   H3251     1.0  0.94187  0.43177  0.14870  1.0000
  H   H3252     1.0  0.83776  0.47988  0.01099  1.0000
  H   H3253     1.0  0.73377  0.35404  0.17276  1.0000
  C   C1908     1.0  0.70360  0.42798  0.16100  1.0000
  C   C1909     1.0  0.69945  0.39730  0.14464  1.0000
  C   C1910     1.0  0.98025  0.43152  0.21085  1.0000
  C   C1911     1.0  0.84093  0.47771  0.08627  1.0000
  H   H3254     1.0  0.86018  0.42244  0.02188  1.0000
  H   H3255     1.0  0.85229  0.36985  0.99057  1.0000
  C   C1912     1.0  0.92720  0.45977  0.14019  1.0000
  H   H3256     1.0  0.80535  0.45424  0.03567  1.0000
  H   H3257     1.0  0.84375  0.37796  0.19866  1.0000
  H   H3258     1.0  0.87309  0.46580  0.11273  1.0000
  H   H3259     1.0  0.92340  0.43908  0.16638  1.0000
  S   S535      1.0  0.68045  0.36988  0.22183  1.0000
  C   C1913     1.0  0.92762  0.43985  0.15133  1.0000
  C   C1914     1.0  0.86502  0.47410  0.10280  1.0000
  H   H3260     1.0  0.80630  0.40359  0.21356  1.0000
  H   H3261     1.0  0.85005  0.39456  0.17860  1.0000
  C   C1915     1.0  0.71783  0.39572  0.13062  1.0000
  C   C1916     1.0  0.79833  0.47438  0.98356  1.0000
  H   H3262     1.0  0.84023  0.41940  0.19644  1.0000
  H   H3263     1.0  0.82483  0.33643  0.03642  1.0000
  N   N136      1.0  0.91003  0.47382  0.14519  1.0000
  H   H3264     1.0  0.79023  0.33885  0.00826  1.0000
  C   C1917     1.0  0.90773  0.47499  0.16499  1.0000
  H   H3265     1.0  0.91908  0.43281  0.14687  1.0000
  H   H3266     1.0  0.71069  0.40498  0.18268  1.0000
  H   H3267     1.0  0.70185  0.46626  0.20808  1.0000
  C   C1918     1.0  0.84958  0.46981  0.01596  1.0000
  H   H3268     1.0  0.83218  0.43203  0.04327  1.0000
  H   H3269     1.0  0.80759  0.38282  0.17351  1.0000
  H   H3270     1.0  0.84011  0.44770  0.05077  1.0000
  H   H3271     1.0  0.82600  0.36328  0.01197  1.0000
  H   H3272     1.0  0.81437  0.47335  0.03701  1.0000
  C   C1919     1.0  0.83483  0.32875  0.02650  1.0000
  H   H3273     1.0  0.81731  0.44201  0.17475  1.0000
  H   H3274     1.0  0.83077  0.43549  0.01158  1.0000
  H   H3275     1.0  0.89594  0.46701  0.12758  1.0000
  C   C1920     1.0  0.80930  0.43136  0.18282  1.0000
  H   H3276     1.0  0.98556  0.39356  0.20993  1.0000
  H   H3277     1.0  0.88721  0.42289  0.03139  1.0000
  H   H3278     1.0  0.92138  0.47327  0.16839  1.0000
  H   H3279     1.0  0.80596  0.41365  0.16689  1.0000
  C   C1921     1.0  0.78684  0.39588  0.20309  1.0000
  C   C1922     1.0  0.68091  0.39882  0.17538  1.0000
  H   H3280     1.0  0.87096  0.47709  0.16356  1.0000
  H   H3281     1.0  0.95573  0.38186  0.21386  1.0000
  H   H3282     1.0  0.92977  0.45918  0.12535  1.0000
  H   H3283     1.0  0.82276  0.45956  0.00704  1.0000
  C   C1923     1.0  0.87588  0.43509  0.03265  1.0000
  H   H3284     1.0  0.84968  0.37230  0.16422  1.0000
  C   C1924     1.0  0.79237  0.35261  0.02801  1.0000
  H   H3285     1.0  0.83645  0.39130  0.15057  1.0000
  H   H3286     1.0  0.72512  0.47967  0.17872  1.0000
  C   C1925     1.0  0.89415  0.46751  0.14232  1.0000
  N   N137      1.0  0.81755  0.34505  0.99968  1.0000
  H   H3287     1.0  0.86473  0.47363  0.14406  1.0000
  C   C1926     1.0  0.80671  0.39369  0.20517  1.0000
  H   H3288     1.0  0.79483  0.43735  0.18150  1.0000
  H   H3289     1.0  0.83363  0.40286  0.21737  1.0000
  H   H3290     1.0  0.97066  0.35968  0.21112  1.0000
  C   C1927     1.0  0.72297  0.48183  0.19295  1.0000
  H   H3291     1.0  0.67025  0.34153  0.21079  1.0000
  H   H3292     1.0  0.86155  0.47092  0.00429  1.0000
  H   H3293     1.0  0.75266  0.48268  0.16226  1.0000
  C   C1928     1.0  0.84589  0.45027  0.98711  1.0000
  H   H3294     1.0  0.75686  0.48326  0.19344  1.0000
  H   H3295     1.0  0.73177  0.46935  0.19966  1.0000
  H   H3296     1.0  0.78922  0.47048  0.99652  1.0000
  H   H3297     1.0  0.67372  0.37133  0.18204  1.0000
  H   H3298     1.0  0.98083  0.47206  0.21052  1.0000
  C   C1929     1.0  0.97482  0.43595  0.22828  1.0000
  H   H3299     1.0  0.81303  0.31476  0.98787  1.0000
  H   H3300     1.0  0.85876  0.46666  0.04253  1.0000
  H   H3301     1.0  0.74893  0.48383  0.22299  1.0000
  H   H3302     1.0  0.95140  0.47747  0.21200  1.0000
  C   C1930     1.0  0.84596  0.36000  0.98714  1.0000
  C   C1931     1.0  0.98690  0.48411  0.20268  1.0000
  H   H3303     1.0  0.97854  0.47846  0.16299  1.0000
  C   C1932     1.0  0.65778  0.34933  0.21767  1.0000
  H   H3304     1.0  0.84016  0.48561  0.03798  1.0000
  C   C1933     1.0  0.76328  0.22582  0.46626  1.0000
  C   C1934     1.0  0.86251  0.42634  0.30590  1.0000
  H   H3305     1.0  0.98488  0.17811  0.39927  1.0000
  C   C1935     1.0  0.96049  0.38892  0.26466  1.0000
  Fe  Fe265     1.0  0.82823  0.05433  0.44949  1.0000
  S   S536      1.0  0.79784  0.06132  0.46014  1.0000
  S   S537      1.0  0.84372  0.02592  0.44567  1.0000
  Fe  Fe266     1.0  0.83422  0.09194  0.45019  1.0000
  S   S538      1.0  0.80455  0.10172  0.46127  1.0000
  S   S539      1.0  0.85194  0.11310  0.44269  1.0000
  H   H3306     1.0  0.87666  0.03239  0.46516  1.0000
  H   H3307     1.0  0.87802  0.09447  0.38540  1.0000
  Fe  Fe267     1.0  0.79950  0.08855  0.44070  1.0000
  S   S540      1.0  0.77898  0.10625  0.42395  1.0000
  H   H3308     1.0  0.88684  0.39315  0.30819  1.0000
  S   S541      1.0  0.82929  0.08049  0.42815  1.0000
  H   H3309     1.0  0.92477  0.42506  0.28596  1.0000
  H   H3310     1.0  0.81968  0.14370  0.40937  1.0000
  H   H3311     1.0  0.91733  0.42012  0.31051  1.0000
  H   H3312     1.0  0.75956  0.18644  0.44772  1.0000
  C   C1936     1.0  0.83645  0.99268  0.44564  1.0000
  H   H3313     1.0  0.74847  0.99682  0.46714  1.0000
  Fe  Fe268     1.0  0.93398  0.16012  0.45822  1.0000
  S   S542      1.0  0.92041  0.18655  0.44201  1.0000
  C   C1937     1.0  0.81481  0.32983  0.46337  1.0000
  S   S543      1.0  0.65809  0.45220  0.25283  1.0000
  H   H3314     1.0  0.68915  0.11182  0.42089  1.0000
  H   H3315     1.0  0.96262  0.40209  0.23606  1.0000
  Fe  Fe269     1.0  0.79730  0.24394  0.47243  1.0000
  Fe  Fe270     1.0  0.69804  0.17177  0.47063  1.0000
  N   N138      1.0  0.80124  0.34080  0.47650  1.0000
  Fe  Fe271     1.0  0.81425  0.27774  0.45580  1.0000
  S   S544      1.0  0.82392  0.29810  0.43017  1.0000
  S   S545      1.0  0.82824  0.44350  0.34401  1.0000
  S   S546      1.0  0.82533  0.24748  0.45630  1.0000
  H   H3316     1.0  0.89705  0.08426  0.43098  1.0000
  Fe  Fe272     1.0  0.79285  0.39037  0.36807  1.0000
  S   S547      1.0  0.79209  0.38150  0.34257  1.0000
  S   S548      1.0  0.77953  0.37558  0.39599  1.0000
  Fe  Fe273     1.0  0.81320  0.42106  0.34619  1.0000
  S   S549      1.0  0.81463  0.41404  0.31917  1.0000
  C   C1938     1.0  0.88602  0.03465  0.45151  1.0000
  Fe  Fe274     1.0  0.78524  0.41164  0.33035  1.0000
  S   S550      1.0  0.76552  0.42693  0.31152  1.0000
  Fe  Fe275     1.0  0.82142  0.38475  0.33362  1.0000
  S   S551      1.0  0.84319  0.36168  0.32361  1.0000
  S   S552      1.0  0.78334  0.42053  0.35664  1.0000
  S   S553      1.0  0.82265  0.39171  0.35987  1.0000
  C   C1939     1.0  0.66209  0.47284  0.25575  1.0000
  N   N139      1.0  0.89169  0.06128  0.42304  1.0000
  C   C1940     1.0  0.87929  0.07531  0.41146  1.0000
  H   H3317     1.0  0.86268  0.41814  0.29582  1.0000
  Fe  Fe276     1.0  0.71163  0.39897  0.25466  1.0000
  S   S554      1.0  0.72580  0.38421  0.27836  1.0000
  H   H3318     1.0  0.96456  0.18281  0.42968  1.0000
  H   H3319     1.0  0.75436  0.16122  0.47135  1.0000
  H   H3320     1.0  0.86570  0.05405  0.43859  1.0000
  C   C1941     1.0  0.85561  0.17637  0.46617  1.0000
  S   S555      1.0  0.70046  0.19244  0.44404  1.0000
  H   H3321     1.0  0.92463  0.04736  0.43767  1.0000
  H   H3322     1.0  0.89719  0.02183  0.40696  1.0000
  C   C1942     1.0  0.78557  0.46822  0.31798  1.0000
  H   H3323     1.0  0.89408  0.44019  0.28900  1.0000
  Fe  Fe277     1.0  0.67002  0.19420  0.44742  1.0000
  H   H3324     1.0  0.85200  0.45534  0.30781  1.0000
  Fe  Fe278     1.0  0.69198  0.21342  0.46189  1.0000
  S   S556      1.0  0.70485  0.23801  0.45688  1.0000
  H   H3325     1.0  0.81346  0.33586  0.44889  1.0000
  H   H3326     1.0  0.80032  0.46865  0.31255  1.0000
  C   C1943     1.0  0.67949  0.47742  0.25068  1.0000
  C   C1944     1.0  0.79935  0.46831  0.35954  1.0000
  H   H3327     1.0  0.79583  0.17068  0.41021  1.0000
  H   H3328     1.0  0.86562  0.45197  0.28526  1.0000
  C   C1945     1.0  0.82778  0.31002  0.33103  1.0000
  H   H3329     1.0  0.87100  0.08619  0.41918  1.0000
  H   H3330     1.0  0.87943  0.18052  0.44424  1.0000
  H   H3331     1.0  0.85774  0.39317  0.33014  1.0000
  H   H3332     1.0  0.67364  0.15302  0.37496  1.0000
  C   C1946     1.0  0.90468  0.07118  0.42654  1.0000
  H   H3333     1.0  0.78676  0.18237  0.45794  1.0000
  H   H3334     1.0  0.66857  0.42533  0.28536  1.0000
  H   H3335     1.0  0.98209  0.15727  0.41544  1.0000
  H   H3336     1.0  0.70631  0.42944  0.28176  1.0000
  C   C1947     1.0  0.73588  0.21512  0.46711  1.0000
  H   H3337     1.0  0.88524  0.02407  0.44438  1.0000
  C   C1948     1.0  0.89073  0.03662  0.40620  1.0000
  C   C1949     1.0  0.89548  0.42528  0.29473  1.0000
  H   H3338     1.0  0.66657  0.44099  0.32999  1.0000
  C   C1950     1.0  0.66123  0.46097  0.30544  1.0000
  H   H3339     1.0  0.95252  0.22173  0.43954  1.0000
  C   C1951     1.0  0.71604  0.11076  0.42565  1.0000
  H   H3340     1.0  0.93840  0.48103  0.28450  1.0000
  H   H3341     1.0  0.65872  0.45560  0.29449  1.0000
  H   H3342     1.0  0.67945  0.11858  0.44968  1.0000
  H   H3343     1.0  0.90075  0.44906  0.31490  1.0000
  C   C1952     1.0  0.90359  0.10054  0.46618  1.0000
  H   H3344     1.0  0.69106  0.46831  0.24420  1.0000
  H   H3345     1.0  0.70603  0.11612  0.40085  1.0000
  C   C1953     1.0  0.78225  0.34268  0.47329  1.0000
  H   H3346     1.0  0.74984  0.19954  0.41936  1.0000
  H   H3347     1.0  0.71648  0.41807  0.31043  1.0000
  C   C1954     1.0  0.75685  0.41390  0.30116  1.0000
  C   C1955     1.0  0.75109  0.42202  0.28449  1.0000
  C   C1956     1.0  0.74240  0.41265  0.27683  1.0000
  C   C1957     1.0  0.73898  0.39527  0.28608  1.0000
  C   C1958     1.0  0.74528  0.38690  0.30246  1.0000
  C   C1959     1.0  0.75428  0.39614  0.30995  1.0000
  H   H3348     1.0  0.75324  0.43567  0.27753  1.0000
  H   H3349     1.0  0.73801  0.41903  0.26400  1.0000
  H   H3350     1.0  0.74278  0.37341  0.30962  1.0000
  H   H3351     1.0  0.75860  0.38981  0.32286  1.0000
  C   C1960     1.0  0.72742  0.23307  0.46023  1.0000
  C   C1961     1.0  0.73691  0.24740  0.45643  1.0000
  C   C1962     1.0  0.75480  0.24379  0.45952  1.0000
  H   H3352     1.0  0.68105  0.12862  0.38307  1.0000
  Fe  Fe279     1.0  0.90215  0.44759  0.24005  1.0000
  S   S557      1.0  0.70983  0.42886  0.24190  1.0000
  H   H3353     1.0  0.73037  0.26131  0.45108  1.0000
  H   H3354     1.0  0.76210  0.25487  0.45642  1.0000
  C   C1963     1.0  0.98363  0.23072  0.40849  1.0000
  H   H3355     1.0  0.71892  0.09558  0.42718  1.0000
  C   C1964     1.0  0.81126  0.32002  0.42210  1.0000
  C   C1965     1.0  0.82064  0.33273  0.40907  1.0000
  C   C1966     1.0  0.81109  0.34999  0.40140  1.0000
  C   C1967     1.0  0.79203  0.35475  0.40677  1.0000
  C   C1968     1.0  0.78268  0.34234  0.42038  1.0000
  C   C1969     1.0  0.79225  0.32495  0.42796  1.0000
  H   H3356     1.0  0.83538  0.32909  0.40469  1.0000
  H   H3357     1.0  0.81845  0.35950  0.39112  1.0000
  H   H3358     1.0  0.76793  0.34596  0.42459  1.0000
  H   H3359     1.0  0.78488  0.31523  0.43795  1.0000
  C   C1970     1.0  0.90287  0.19890  0.45650  1.0000
  H   H3360     1.0  0.76570  0.18296  0.40749  1.0000
  H   H3361     1.0  0.96044  0.43902  0.23455  1.0000
  C   C1971     1.0  0.77452  0.32492  0.47896  1.0000
  C   C1972     1.0  0.87603  0.22349  0.46074  1.0000
  C   C1973     1.0  0.89065  0.21423  0.44907  1.0000
  C   C1974     1.0  0.80056  0.19396  0.43156  1.0000
  H   H3362     1.0  0.98693  0.20667  0.39812  1.0000
  H   H3363     1.0  0.86668  0.23538  0.45498  1.0000
  H   H3364     1.0  0.89236  0.21883  0.43431  1.0000
  C   C1975     1.0  0.73332  0.13470  0.46415  1.0000
  C   C1976     1.0  0.73532  0.14214  0.44529  1.0000
  C   C1977     1.0  0.74905  0.13311  0.43274  1.0000
  C   C1978     1.0  0.76056  0.11660  0.43912  1.0000
  C   C1979     1.0  0.75817  0.10902  0.45792  1.0000
  H   H3365     1.0  0.78598  0.15105  0.41899  1.0000
  H   H3366     1.0  0.72667  0.15506  0.44046  1.0000
  H   H3367     1.0  0.75113  0.13909  0.41819  1.0000
  H   H3368     1.0  0.76688  0.09621  0.46293  1.0000
  H   H3369     1.0  0.89736  0.09414  0.39422  1.0000
  C   C1980     1.0  0.87119  0.10850  0.45265  1.0000
  C   C1981     1.0  0.88377  0.12018  0.44588  1.0000
  C   C1982     1.0  0.89984  0.11634  0.45277  1.0000
  H   H3370     1.0  0.96506  0.37548  0.27345  1.0000
  C   C1983     1.0  0.88577  0.45036  0.32011  1.0000
  H   H3371     1.0  0.88223  0.45703  0.33216  1.0000
  H   H3372     1.0  0.88128  0.13203  0.43497  1.0000
  C   C1984     1.0  0.87451  0.09316  0.46669  1.0000
  C   C1985     1.0  0.76388  0.19084  0.41833  1.0000
  H   H3373     1.0  0.86654  0.43319  0.33546  1.0000
  S   S558      1.0  0.92448  0.09454  0.47359  1.0000
  C   C1986     1.0  0.80195  0.00806  0.43703  1.0000
  C   C1987     1.0  0.81291  0.01945  0.43855  1.0000
  C   C1988     1.0  0.83013  0.01180  0.44302  1.0000
  H   H3374     1.0  0.88962  0.42296  0.33589  1.0000
  H   H3375     1.0  0.75019  0.45081  0.35994  1.0000
  H   H3376     1.0  0.78861  0.01411  0.43364  1.0000
  H   H3377     1.0  0.80807  0.03418  0.43608  1.0000
  Fe  Fe280     1.0  0.97109  0.13586  0.46225  1.0000
  H   H3378     1.0  0.82280  0.15492  0.42569  1.0000
  H   H3379     1.0  0.76091  0.32803  0.47514  1.0000
  C   C1989     1.0  0.74896  0.47902  0.34501  1.0000
  H   H3380     1.0  0.69287  0.40574  0.30397  1.0000
  H   H3381     1.0  0.68895  0.42508  0.34632  1.0000
  C   C1990     1.0  0.98010  0.21123  0.41129  1.0000
  S   S559      1.0  0.66851  0.17156  0.47273  1.0000
  H   H3382     1.0  0.71001  0.46190  0.26899  1.0000
  H   H3383     1.0  0.87854  0.45985  0.30956  1.0000
  H   H3384     1.0  0.77356  0.20028  0.41397  1.0000
  C   C1991     1.0  0.89229  0.37479  0.27810  1.0000
  C   C1992     1.0  0.89370  0.35835  0.29119  1.0000
  C   C1993     1.0  0.87848  0.35446  0.30492  1.0000
  C   C1994     1.0  0.86175  0.36708  0.30587  1.0000
  C   C1995     1.0  0.86018  0.38350  0.29273  1.0000
  C   C1996     1.0  0.87543  0.38730  0.27877  1.0000
  H   H3385     1.0  0.90663  0.34858  0.29073  1.0000
  H   H3386     1.0  0.87973  0.34169  0.31497  1.0000
  H   H3387     1.0  0.84718  0.39313  0.29317  1.0000
  H   H3388     1.0  0.87410  0.39989  0.26861  1.0000
  H   H3389     1.0  0.88549  0.16797  0.46558  1.0000
  H   H3390     1.0  0.66797  0.13864  0.45856  1.0000
  H   H3391     1.0  0.92596  0.06902  0.44128  1.0000
  H   H3392     1.0  0.85264  0.14338  0.47005  1.0000
  H   H3393     1.0  0.83894  0.31375  0.47466  1.0000
  H   H3394     1.0  0.91960  0.40299  0.29725  1.0000
  S   S560      1.0  0.66006  0.19816  0.42079  1.0000
  C   C1997     1.0  0.76839  0.15380  0.47307  1.0000
  H   H3395     1.0  0.68167  0.45674  0.32119  1.0000
  C   C1998     1.0  0.88466  0.40094  0.31921  1.0000
  C   C1999     1.0  0.88877  0.08524  0.39268  1.0000
  H   H3396     1.0  0.72148  0.48323  0.30544  1.0000
  H   H3397     1.0  0.71245  0.11367  0.43969  1.0000
  H   H3398     1.0  0.71992  0.45224  0.28861  1.0000
  N   N140      1.0  0.88081  0.42140  0.31160  1.0000
  H   H3399     1.0  0.67157  0.16046  0.40269  1.0000
  N   N141      1.0  0.78403  0.16645  0.43963  1.0000
  Fe  Fe281     1.0  0.90969  0.40675  0.24204  1.0000
  C   C2000     1.0  0.91628  0.06059  0.44098  1.0000
  H   H3400     1.0  0.89762  0.39660  0.32449  1.0000
  H   H3401     1.0  0.80459  0.19212  0.41717  1.0000
  C   C2001     1.0  0.81350  0.14748  0.42298  1.0000
  H   H3402     1.0  0.66047  0.13421  0.44034  1.0000
  H   H3403     1.0  0.89697  0.07556  0.38370  1.0000
  S   S561      1.0  0.83592  0.06515  0.47043  1.0000
  C   C2002     1.0  0.82595  0.48019  0.34102  1.0000
  H   H3404     1.0  0.84295  0.44781  0.29266  1.0000
  C   C2003     1.0  0.98810  0.16968  0.41252  1.0000
  H   H3405     1.0  0.96762  0.39918  0.26615  1.0000
  C   C2004     1.0  0.85576  0.44661  0.29742  1.0000
  C   C2005     1.0  0.87567  0.16994  0.45664  1.0000
  S   S562      1.0  0.78548  0.27428  0.46988  1.0000
  N   N142      1.0  0.69357  0.13980  0.41337  1.0000
  C   C2006     1.0  0.68634  0.14463  0.43213  1.0000
  C   C2007     1.0  0.70918  0.14950  0.40358  1.0000
  C   C2008     1.0  0.70054  0.11941  0.41479  1.0000
  C   C2009     1.0  0.67813  0.14578  0.40303  1.0000
  H   H3406     1.0  0.78490  0.45873  0.33156  1.0000
  C   C2010     1.0  0.70384  0.17057  0.39770  1.0000
  N   N143      1.0  0.98172  0.37602  0.23698  1.0000
  C   C2011     1.0  0.70664  0.45673  0.28407  1.0000
  H   H3407     1.0  0.69771  0.14354  0.43910  1.0000
  H   H3408     1.0  0.67908  0.15927  0.43087  1.0000
  H   H3409     1.0  0.71720  0.14397  0.39122  1.0000
  H   H3410     1.0  0.71928  0.14684  0.41249  1.0000
  H   H3411     1.0  0.84980  0.98666  0.44901  1.0000
  H   H3412     1.0  0.81300  0.19647  0.43454  1.0000
  H   H3413     1.0  0.84390  0.32512  0.45076  1.0000
  H   H3414     1.0  0.91370  0.46541  0.28502  1.0000
  H   H3415     1.0  0.66673  0.13852  0.41033  1.0000
  H   H3416     1.0  0.85422  0.19097  0.46697  1.0000
  S   S563      1.0  0.91205  0.37935  0.26160  1.0000
  H   H3417     1.0  0.71648  0.17617  0.39137  1.0000
  H   H3418     1.0  0.69516  0.17481  0.38722  1.0000
  H   H3419     1.0  0.69683  0.17711  0.40962  1.0000
  H   H3420     1.0  0.97291  0.24084  0.40182  1.0000
  H   H3421     1.0  0.73321  0.45823  0.34653  1.0000
  C   C2012     1.0  0.80498  0.35984  0.47331  1.0000
  C   C2013     1.0  0.74464  0.11809  0.47041  1.0000
  H   H3422     1.0  0.69694  0.14396  0.37587  1.0000
  H   H3423     1.0  0.72862  0.20402  0.47011  1.0000
  N   N144      1.0  0.81027  0.31656  0.36295  1.0000
  C   C2014     1.0  0.80169  0.29995  0.36751  1.0000
  C   C2015     1.0  0.81394  0.32340  0.34241  1.0000
  C   C2016     1.0  0.79765  0.33180  0.37184  1.0000
  C   C2017     1.0  0.82776  0.31114  0.37023  1.0000
  C   C2018     1.0  0.79495  0.29251  0.38821  1.0000
  C   C2019     1.0  0.77817  0.33793  0.36765  1.0000
  C   C2020     1.0  0.84038  0.32526  0.36380  1.0000
  H   H3424     1.0  0.78997  0.30269  0.36052  1.0000
  H   H3425     1.0  0.81165  0.28829  0.36214  1.0000
  H   H3426     1.0  0.81870  0.33664  0.33868  1.0000
  H   H3427     1.0  0.80110  0.32663  0.33708  1.0000
  H   H3428     1.0  0.79608  0.32791  0.38701  1.0000
  H   H3429     1.0  0.80357  0.34437  0.36767  1.0000
  H   H3430     1.0  0.82467  0.30847  0.38552  1.0000
  H   H3431     1.0  0.83614  0.29790  0.36674  1.0000
  H   H3432     1.0  0.78370  0.30251  0.39476  1.0000
  H   H3433     1.0  0.78938  0.28008  0.38981  1.0000
  H   H3434     1.0  0.80623  0.28828  0.39593  1.0000
  H   H3435     1.0  0.83035  0.31721  0.31637  1.0000
  H   H3436     1.0  0.77835  0.34407  0.35291  1.0000
  H   H3437     1.0  0.77033  0.34887  0.37539  1.0000
  H   H3438     1.0  0.77045  0.32668  0.37220  1.0000
  H   H3439     1.0  0.84688  0.32644  0.34903  1.0000
  H   H3440     1.0  0.85168  0.32054  0.37152  1.0000
  H   H3441     1.0  0.83318  0.33906  0.36642  1.0000
  H   H3442     1.0  0.89401  0.41936  0.28345  1.0000
  C   C2021     1.0  0.81686  0.46543  0.34841  1.0000
  C   C2022     1.0  0.98806  0.43674  0.23757  1.0000
  H   H3443     1.0  0.78183  0.34806  0.45847  1.0000
  C   C2023     1.0  0.91540  0.41789  0.29748  1.0000
  H   H3444     1.0  0.80722  0.16801  0.45021  1.0000
  H   H3445     1.0  0.75720  0.45207  0.33586  1.0000
  H   H3446     1.0  0.87542  0.37921  0.34150  1.0000
  H   H3447     1.0  0.98240  0.19189  0.45691  1.0000
  S   S564      1.0  0.68152  0.39983  0.25833  1.0000
  H   H3448     1.0  0.66260  0.40551  0.30125  1.0000
  C   C2024     1.0  0.67482  0.44772  0.31706  1.0000
  H   H3449     1.0  0.71310  0.41624  0.34417  1.0000
  N   N145      1.0  0.68911  0.43346  0.30800  1.0000
  H   H3450     1.0  0.86897  0.06906  0.40871  1.0000
  H   H3451     1.0  0.86548  0.40179  0.34612  1.0000
  C   C2025     1.0  0.90240  0.04618  0.41300  1.0000
  H   H3452     1.0  0.77557  0.14026  0.45021  1.0000
  H   H3453     1.0  0.91251  0.05143  0.40084  1.0000
  H   H3454     1.0  0.91134  0.03544  0.42136  1.0000
  H   H3455     1.0  0.78326  0.31398  0.47176  1.0000
  H   H3456     1.0  0.80918  0.38453  0.45259  1.0000
  H   H3457     1.0  0.95182  0.38318  0.24260  1.0000
  H   H3458     1.0  0.88942  0.04313  0.39179  1.0000
  H   H3459     1.0  0.95740  0.35182  0.24011  1.0000
  H   H3460     1.0  0.87674  0.03693  0.41484  1.0000
  H   H3461     1.0  0.75872  0.47861  0.35368  1.0000
  C   C2026     1.0  0.69660  0.44069  0.28800  1.0000
  H   H3462     1.0  0.72899  0.11531  0.41814  1.0000
  C   C2027     1.0  0.86986  0.39362  0.33519  1.0000
  H   H3463     1.0  0.75137  0.47115  0.31054  1.0000
  H   H3464     1.0  0.82224  0.29785  0.33164  1.0000
  H   H3465     1.0  0.84124  0.30550  0.33518  1.0000
  C   C2028     1.0  0.76534  0.17787  0.43712  1.0000
  C   C2029     1.0  0.66554  0.41921  0.30021  1.0000
  C   C2030     1.0  0.97968  0.17990  0.42858  1.0000
  C   C2031     1.0  0.88038  0.43133  0.32642  1.0000
  H   H3466     1.0  0.90767  0.05846  0.45502  1.0000
  H   H3467     1.0  0.79710  0.37094  0.44615  1.0000
  H   H3468     1.0  0.75545  0.16883  0.43919  1.0000
  S   S565      1.0  0.95096  0.13658  0.44513  1.0000
  H   H3469     1.0  0.90966  0.12525  0.44725  1.0000
  C   C2032     1.0  0.83517  0.32652  0.46450  1.0000
  H   H3470     1.0  0.87617  0.06389  0.45040  1.0000
  H   H3471     1.0  0.79239  0.45694  0.36551  1.0000
  C   C2033     1.0  0.78120  0.14989  0.45482  1.0000
  H   H3472     1.0  0.85140  0.42290  0.31780  1.0000
  H   H3473     1.0  0.78121  0.46258  0.30824  1.0000
  H   H3474     1.0  0.90005  0.03214  0.45393  1.0000
  C   C2034     1.0  0.68171  0.41659  0.30960  1.0000
  C   C2035     1.0  0.96498  0.34854  0.25134  1.0000
  C   C2036     1.0  0.98300  0.35585  0.24571  1.0000
  C   C2037     1.0  0.87936  0.05425  0.44088  1.0000
  H   H3475     1.0  0.91464  0.07521  0.41368  1.0000
  H   H3476     1.0  0.98377  0.44025  0.25103  1.0000
  H   H3477     1.0  0.69952  0.40321  0.33932  1.0000
  S   S566      1.0  0.88443  0.42873  0.23995  1.0000
  C   C2038     1.0  0.79479  0.17706  0.44548  1.0000
  C   C2039     1.0  0.80836  0.37018  0.45306  1.0000
  S   S567      1.0  0.92649  0.42535  0.24485  1.0000
  C   C2040     1.0  0.80796  0.98891  0.44024  1.0000
  C   C2041     1.0  0.67283  0.13320  0.44570  1.0000
  H   H3478     1.0  0.81317  0.13436  0.43311  1.0000
  C   C2042     1.0  0.68289  0.14247  0.38319  1.0000
  H   H3479     1.0  0.95563  0.35379  0.26332  1.0000
  C   C2043     1.0  0.79414  0.15939  0.42239  1.0000
  C   C2044     1.0  0.70110  0.41747  0.33805  1.0000
  H   H3480     1.0  0.67666  0.41048  0.32422  1.0000
  H   H3481     1.0  0.96826  0.33333  0.25562  1.0000
  H   H3482     1.0  0.79445  0.14193  0.45851  1.0000
  H   H3483     1.0  0.98412  0.21470  0.44639  1.0000
  H   H3484     1.0  0.94560  0.39356  0.26992  1.0000
  H   H3485     1.0  0.66051  0.32361  0.26497  1.0000
  H   H3486     1.0  0.82161  0.36388  0.44506  1.0000
  H   H3487     1.0  0.78953  0.20642  0.43274  1.0000
  H   H3488     1.0  0.83956  0.47801  0.33254  1.0000
  C   C2045     1.0  0.70508  0.42742  0.31773  1.0000
  H   H3489     1.0  0.76888  0.00423  0.46536  1.0000
  Fe  Fe282     1.0  0.68046  0.42929  0.24329  1.0000
  S   S568      1.0  0.78579  0.22064  0.46982  1.0000
  C   C2046     1.0  0.74743  0.45903  0.34641  1.0000
  C   C2047     1.0  0.96374  0.38779  0.24425  1.0000
  H   H3490     1.0  0.83868  0.33804  0.46815  1.0000
  H   H3491     1.0  0.98861  0.35234  0.25848  1.0000
  H   H3492     1.0  0.95333  0.21386  0.46335  1.0000
  H   H3493     1.0  0.68584  0.44534  0.27970  1.0000
  S   S569      1.0  0.89286  0.46828  0.25794  1.0000
  H   H3494     1.0  0.71082  0.43935  0.31767  1.0000
  H   H3495     1.0  0.87754  0.15705  0.45182  1.0000
  H   H3496     1.0  0.98258  0.23507  0.42143  1.0000
  C   C2048     1.0  0.91162  0.47762  0.25692  1.0000
  H   H3497     1.0  0.96525  0.21240  0.41177  1.0000
  H   H3498     1.0  0.66561  0.47433  0.29943  1.0000
  C   C2049     1.0  0.91896  0.47443  0.27259  1.0000
  C   C2050     1.0  0.75378  0.21153  0.47012  1.0000
  H   H3499     1.0  0.69808  0.46838  0.29038  1.0000
  H   H3500     1.0  0.79308  0.99660  0.47673  1.0000
  C   C2051     1.0  0.75755  0.99864  0.47544  1.0000
  C   C2052     1.0  0.97846  0.20320  0.44537  1.0000
  H   H3501     1.0  0.86465  0.08435  0.47230  1.0000
  C   C2053     1.0  0.89081  0.08907  0.47329  1.0000
  C   C2054     1.0  0.95741  0.20964  0.44984  1.0000
  H   H3502     1.0  0.95009  0.19857  0.45114  1.0000
  S   S570      1.0  0.66179  0.21683  0.46361  1.0000
  N   N146      1.0  0.98642  0.19713  0.42724  1.0000
  H   H3503     1.0  0.84693  0.17676  0.45642  1.0000
  H   H3504     1.0  0.98242  0.16976  0.44127  1.0000
  H   H3505     1.0  0.66126  0.30127  0.26170  1.0000
  H   H3506     1.0  0.81185  0.31594  0.46564  1.0000
  Fe  Fe283     1.0  0.93723  0.11884  0.47034  1.0000
  C   C2055     1.0  0.90055  0.19296  0.47557  1.0000
  S   S571      1.0  0.95493  0.16078  0.47337  1.0000
  H   H3507     1.0  0.76025  0.19768  0.47553  1.0000
  C   C2056     1.0  0.93292  0.48323  0.27228  1.0000
  H   H3508     1.0  0.71881  0.48549  0.32872  1.0000
  H   H3509     1.0  0.82431  0.20082  0.47879  1.0000
  H   H3510     1.0  0.81688  0.35963  0.47914  1.0000
  H   H3511     1.0  0.82234  0.16864  0.47899  1.0000
  C   C2057     1.0  0.87375  0.21745  0.47982  1.0000
  H   H3512     1.0  0.77211  0.35299  0.48060  1.0000
  H   H3513     1.0  0.79328  0.36881  0.48081  1.0000
  H   H3514     1.0  0.65827  0.30538  0.28461  1.0000
  Fe  Fe284     1.0  0.80560  0.07389  0.47956  1.0000
  H   H3515     1.0  0.90988  0.18118  0.48142  1.0000
  H   H3516     1.0  0.73523  0.48567  0.35198  1.0000
  C   C2058     1.0  0.79114  0.48582  0.36351  1.0000
  S   S572      1.0  0.71767  0.14620  0.48045  1.0000
  H   H3517     1.0  0.77426  0.16132  0.47994  1.0000
  S   S573      1.0  0.82317  0.27688  0.48176  1.0000
  S   S574      1.0  0.91867  0.14247  0.48200  1.0000
  C   C2059     1.0  0.74669  0.48580  0.31161  1.0000
  H   H3518     1.0  0.76677  0.14046  0.48253  1.0000
  Fe  Fe285     1.0  0.81809  0.12938  0.55607  1.0000
  S   S575      1.0  0.84785  0.11622  0.55219  1.0000
  S   S576      1.0  0.80299  0.13876  0.53285  1.0000
  Fe  Fe286     1.0  0.81422  0.12763  0.59630  1.0000
  S   S577      1.0  0.84383  0.11418  0.59643  1.0000
  S   S578      1.0  0.79164  0.13520  0.61987  1.0000
  Fe  Fe287     1.0  0.84958  0.13457  0.56998  1.0000
  S   S579      1.0  0.87221  0.15055  0.55988  1.0000
  Fe  Fe288     1.0  0.83990  0.09681  0.57864  1.0000
  S   S580      1.0  0.82048  0.14955  0.57133  1.0000
  S   S581      1.0  0.80978  0.10840  0.58108  1.0000
  S   S582      1.0  0.93528  0.14031  0.52598  1.0000
  Fe  Fe289     1.0  0.96023  0.19546  0.57561  1.0000
  S   S583      1.0  0.95810  0.17390  0.60166  1.0000
  S   S584      1.0  0.85593  0.22864  0.49501  1.0000
  Fe  Fe290     1.0  0.93579  0.22585  0.59367  1.0000
  S   S585      1.0  0.93113  0.20721  0.62123  1.0000
  S   S586      1.0  0.92233  0.25549  0.58655  1.0000
  Fe  Fe291     1.0  0.96145  0.19589  0.61433  1.0000
  H   H3519     1.0  0.81674  0.33004  0.49822  1.0000
  Fe  Fe292     1.0  0.92811  0.18702  0.60623  1.0000
  S   S587      1.0  0.90451  0.17217  0.61774  1.0000
  S   S588      1.0  0.96632  0.21625  0.58780  1.0000
  S   S589      1.0  0.93006  0.20681  0.57923  1.0000
  S   S590      1.0  0.77753  0.28319  0.52028  1.0000
  Fe  Fe293     1.0  0.70613  0.20727  0.59643  1.0000
  S   S591      1.0  0.67763  0.20261  0.60079  1.0000
  S   S592      1.0  0.73000  0.19000  0.58076  1.0000
  Fe  Fe294     1.0  0.69312  0.24411  0.60801  1.0000
  C   C2060     1.0  0.85468  0.14498  0.48339  1.0000
  S   S593      1.0  0.70057  0.26996  0.60979  1.0000
  Fe  Fe295     1.0  0.67235  0.21365  0.62656  1.0000
  C   C2061     1.0  0.66463  0.25899  0.68831  1.0000
  Fe  Fe296     1.0  0.67104  0.23217  0.58693  1.0000
  Fe  Fe297     1.0  0.79532  0.27122  0.49601  1.0000
  S   S594      1.0  0.70179  0.21545  0.62353  1.0000
  S   S595      1.0  0.69986  0.23613  0.58070  1.0000
  Fe  Fe298     1.0  0.82521  0.28982  0.63224  1.0000
  S   S596      1.0  0.79801  0.29494  0.65142  1.0000
  S   S597      1.0  0.84934  0.27304  0.64456  1.0000
  Fe  Fe299     1.0  0.80904  0.30808  0.59799  1.0000
  S   S598      1.0  0.78052  0.31498  0.61456  1.0000
  S   S599      1.0  0.81775  0.31161  0.56699  1.0000
  Fe  Fe300     1.0  0.79426  0.32315  0.63336  1.0000
  S   S600      1.0  0.78265  0.34930  0.64502  1.0000
  Fe  Fe301     1.0  0.78705  0.28630  0.63117  1.0000
  S   S601      1.0  0.77219  0.26262  0.63928  1.0000
  S   S602      1.0  0.82237  0.31848  0.61526  1.0000
  S   S603      1.0  0.81468  0.27908  0.61342  1.0000
  H   H3520     1.0  0.67739  0.21974  0.69508  1.0000
  C   C2062     1.0  0.73501  0.14232  0.55576  1.0000
  S   S604      1.0  0.81879  0.37185  0.70013  1.0000
  H   H3521     1.0  0.67111  0.27132  0.64148  1.0000
  S   S605      1.0  0.84051  0.45378  0.69579  1.0000
  C   C2063     1.0  0.76966  0.01182  0.50603  1.0000
  C   C2064     1.0  0.94029  0.22831  0.65826  1.0000
  C   C2065     1.0  0.83336  0.47531  0.70245  1.0000
  H   H3522     1.0  0.92730  0.28865  0.63791  1.0000
  H   H3523     1.0  0.94260  0.21906  0.64857  1.0000
  H   H3524     1.0  0.89830  0.45922  0.72417  1.0000
  H   H3525     1.0  0.93626  0.24308  0.53575  1.0000
  H   H3526     1.0  0.93232  0.18148  0.50231  1.0000
  H   H3527     1.0  0.71770  0.18965  0.54628  1.0000
  C   C2066     1.0  0.74843  0.24810  0.50588  1.0000
  H   H3528     1.0  0.69001  0.24074  0.65134  1.0000
  H   H3529     1.0  0.76588  0.09200  0.63453  1.0000
  C   C2067     1.0  0.79226  0.35495  0.66112  1.0000
  C   C2068     1.0  0.80809  0.34394  0.66688  1.0000
  C   C2069     1.0  0.81560  0.34905  0.67930  1.0000
  C   C2070     1.0  0.80743  0.36522  0.68615  1.0000
  C   C2071     1.0  0.79148  0.37616  0.68055  1.0000
  C   C2072     1.0  0.78398  0.37106  0.66806  1.0000
  H   H3530     1.0  0.81460  0.33150  0.66168  1.0000
  H   H3531     1.0  0.82798  0.34051  0.68347  1.0000
  H   H3532     1.0  0.78503  0.38864  0.68567  1.0000
  H   H3533     1.0  0.77171  0.37964  0.66373  1.0000
  H   H3534     1.0  0.76032  0.12294  0.54536  1.0000
  C   C2073     1.0  0.93118  0.08888  0.54459  1.0000
  C   C2074     1.0  0.77519  0.09031  0.62117  1.0000
  C   C2075     1.0  0.72033  0.26786  0.61823  1.0000
  C   C2076     1.0  0.72918  0.25078  0.62679  1.0000
  C   C2077     1.0  0.74494  0.24943  0.63346  1.0000
  C   C2078     1.0  0.75213  0.26507  0.63125  1.0000
  C   C2079     1.0  0.74338  0.28214  0.62253  1.0000
  C   C2080     1.0  0.72740  0.28354  0.61618  1.0000
  H   H3535     1.0  0.72390  0.23863  0.62835  1.0000
  H   H3536     1.0  0.75170  0.23621  0.64019  1.0000
  H   H3537     1.0  0.74884  0.29426  0.62081  1.0000
  H   H3538     1.0  0.72061  0.29680  0.60953  1.0000
  C   C2081     1.0  0.89196  0.11119  0.51814  1.0000
  H   H3539     1.0  0.82765  0.05016  0.52236  1.0000
  H   H3540     1.0  0.85756  0.48534  0.68653  1.0000
  C   C2082     1.0  0.71494  0.16550  0.53713  1.0000
  H   H3541     1.0  0.74688  0.17309  0.54329  1.0000
  C   C2083     1.0  0.73242  0.23773  0.51242  1.0000
  H   H3542     1.0  0.93713  0.21982  0.67229  1.0000
  H   H3543     1.0  0.82195  0.98825  0.48531  1.0000
  C   C2084     1.0  0.82861  0.17079  0.48964  1.0000
  H   H3544     1.0  0.88623  0.12442  0.52275  1.0000
  C   C2085     1.0  0.78887  0.29016  0.53387  1.0000
  C   C2086     1.0  0.80795  0.28805  0.52984  1.0000
  C   C2087     1.0  0.81665  0.29451  0.54022  1.0000
  C   C2088     1.0  0.80644  0.30246  0.55520  1.0000
  C   C2089     1.0  0.78738  0.30407  0.55962  1.0000
  C   C2090     1.0  0.77861  0.29821  0.54879  1.0000
  H   H3545     1.0  0.81607  0.28164  0.51860  1.0000
  H   H3546     1.0  0.83138  0.29327  0.53671  1.0000
  H   H3547     1.0  0.77937  0.31041  0.57101  1.0000
  H   H3548     1.0  0.76381  0.30004  0.55194  1.0000
  C   C2091     1.0  0.90236  0.26120  0.60276  1.0000
  C   C2092     1.0  0.88703  0.27341  0.59697  1.0000
  C   C2093     1.0  0.87068  0.27732  0.60978  1.0000
  C   C2094     1.0  0.86985  0.26940  0.62844  1.0000
  C   C2095     1.0  0.88536  0.25764  0.63428  1.0000
  C   C2096     1.0  0.90151  0.25332  0.62142  1.0000
  H   H3549     1.0  0.88767  0.27957  0.58254  1.0000
  H   H3550     1.0  0.85872  0.28645  0.60523  1.0000
  H   H3551     1.0  0.88474  0.25156  0.64872  1.0000
  H   H3552     1.0  0.91329  0.24402  0.62599  1.0000
  C   C2097     1.0  0.90049  0.10331  0.57484  1.0000
  N   N147      1.0  0.71338  0.24920  0.51721  1.0000
  C   C2098     1.0  0.90136  0.10871  0.55395  1.0000
  H   H3553     1.0  0.71274  0.25415  0.48838  1.0000
  C   C2099     1.0  0.94858  0.15205  0.53236  1.0000
  C   C2100     1.0  0.94434  0.15478  0.55038  1.0000
  C   C2101     1.0  0.95291  0.16637  0.55517  1.0000
  C   C2102     1.0  0.96599  0.17497  0.54203  1.0000
  H   H3554     1.0  0.93407  0.14829  0.56052  1.0000
  H   H3555     1.0  0.94919  0.16877  0.56901  1.0000
  C   C2103     1.0  0.77336  0.14955  0.61000  1.0000
  C   C2104     1.0  0.77412  0.15120  0.59130  1.0000
  C   C2105     1.0  0.76073  0.16369  0.58266  1.0000
  C   C2106     1.0  0.74600  0.17426  0.59271  1.0000
  C   C2107     1.0  0.74463  0.17221  0.61165  1.0000
  C   C2108     1.0  0.75841  0.15988  0.62030  1.0000
  H   H3556     1.0  0.78513  0.14297  0.58330  1.0000
  H   H3557     1.0  0.76201  0.16528  0.56804  1.0000
  H   H3558     1.0  0.73321  0.18031  0.61954  1.0000
  H   H3559     1.0  0.75767  0.15860  0.63482  1.0000
  C   C2109     1.0  0.89573  0.16581  0.60173  1.0000
  C   C2110     1.0  0.90352  0.16942  0.58299  1.0000
  C   C2111     1.0  0.89624  0.16451  0.57036  1.0000
  C   C2112     1.0  0.88101  0.15614  0.57632  1.0000
  C   C2113     1.0  0.87317  0.15246  0.59509  1.0000
  C   C2114     1.0  0.88058  0.15723  0.60777  1.0000
  H   H3560     1.0  0.91537  0.17567  0.57827  1.0000
  H   H3561     1.0  0.90260  0.16692  0.55592  1.0000
  H   H3562     1.0  0.86144  0.14595  0.59982  1.0000
  H   H3563     1.0  0.87457  0.15427  0.62229  1.0000
  H   H3564     1.0  0.81664  0.06991  0.57681  1.0000
  C   C2115     1.0  0.79497  0.08849  0.51720  1.0000
  C   C2116     1.0  0.80299  0.08637  0.53221  1.0000
  C   C2117     1.0  0.80582  0.10179  0.53677  1.0000
  C   C2118     1.0  0.79995  0.11941  0.52686  1.0000
  C   C2119     1.0  0.79152  0.12159  0.51213  1.0000
  C   C2120     1.0  0.78905  0.10612  0.50728  1.0000
  H   H3565     1.0  0.80751  0.07281  0.53999  1.0000
  H   H3566     1.0  0.81284  0.09991  0.54776  1.0000
  H   H3567     1.0  0.82053  0.00405  0.52362  1.0000
  H   H3568     1.0  0.85344  0.17065  0.52701  1.0000
  N   N148      1.0  0.77534  0.23926  0.58085  1.0000
  C   C2121     1.0  0.78924  0.24074  0.59092  1.0000
  C   C2122     1.0  0.76652  0.22333  0.59189  1.0000
  C   C2123     1.0  0.76101  0.25681  0.58049  1.0000
  C   C2124     1.0  0.78489  0.23687  0.56154  1.0000
  C   C2125     1.0  0.79828  0.25766  0.58321  1.0000
  C   C2126     1.0  0.77999  0.20489  0.59637  1.0000
  C   C2127     1.0  0.74471  0.25826  0.57171  1.0000
  C   C2128     1.0  0.77643  0.22637  0.55219  1.0000
  H   H3569     1.0  0.78292  0.24093  0.60570  1.0000
  H   H3570     1.0  0.80074  0.22855  0.59090  1.0000
  H   H3571     1.0  0.75665  0.22078  0.58498  1.0000
  H   H3572     1.0  0.75810  0.22651  0.60526  1.0000
  H   H3573     1.0  0.75536  0.25931  0.59463  1.0000
  H   H3574     1.0  0.76714  0.26886  0.57284  1.0000
  H   H3575     1.0  0.78584  0.25049  0.55221  1.0000
  H   H3576     1.0  0.79941  0.22944  0.56108  1.0000
  H   H3577     1.0  0.81062  0.25542  0.58908  1.0000
  H   H3578     1.0  0.80276  0.26020  0.56803  1.0000
  H   H3579     1.0  0.78890  0.27015  0.58745  1.0000
  H   H3580     1.0  0.77246  0.19347  0.60058  1.0000
  H   H3581     1.0  0.79115  0.20210  0.58445  1.0000
  H   H3582     1.0  0.78608  0.20454  0.60813  1.0000
  H   H3583     1.0  0.73442  0.27086  0.57442  1.0000
  H   H3584     1.0  0.77839  0.21149  0.55849  1.0000
  H   H3585     1.0  0.78355  0.22748  0.53756  1.0000
  H   H3586     1.0  0.76169  0.23189  0.55233  1.0000
  H   H3587     1.0  0.65884  0.24128  0.65402  1.0000
  H   H3588     1.0  0.71641  0.27295  0.49516  1.0000
  C   C2129     1.0  0.73814  0.14245  0.52256  1.0000
  C   C2130     1.0  0.84432  0.13137  0.49815  1.0000
  H   H3589     1.0  0.80160  0.40305  0.64329  1.0000
  H   H3590     1.0  0.87348  0.01184  0.53633  1.0000
  C   C2131     1.0  0.80432  0.01867  0.54432  1.0000
  H   H3591     1.0  0.87937  0.46312  0.71258  1.0000
  H   H3592     1.0  0.84388  0.03396  0.49867  1.0000
  C   C2132     1.0  0.69571  0.27181  0.53908  1.0000
  H   H3593     1.0  0.68503  0.26377  0.54646  1.0000
  H   H3594     1.0  0.98716  0.26091  0.62495  1.0000
  C   C2133     1.0  0.85846  0.16869  0.49831  1.0000
  H   H3595     1.0  0.82082  0.21859  0.64486  1.0000
  H   H3596     1.0  0.82252  0.16218  0.50252  1.0000
  N   N149      1.0  0.83766  0.02075  0.52730  1.0000
  C   C2134     1.0  0.95778  0.23555  0.65623  1.0000
  H   H3597     1.0  0.71966  0.25059  0.54265  1.0000
  S   S606      1.0  0.79404  0.06908  0.50981  1.0000
  H   H3598     1.0  0.82445  0.23788  0.65199  1.0000
  C   C2135     1.0  0.88800  0.46979  0.71736  1.0000
  H   H3599     1.0  0.89561  0.47767  0.70481  1.0000
  C   C2136     1.0  0.84876  0.03159  0.58750  1.0000
  H   H3600     1.0  0.94282  0.19896  0.50387  1.0000
  H   H3601     1.0  0.79172  0.33147  0.52475  1.0000
  S   S607      1.0  0.97633  0.18972  0.63763  1.0000
  H   H3602     1.0  0.79263  0.01329  0.54323  1.0000
  N   N150      1.0  0.80120  0.06513  0.63378  1.0000
  C   C2137     1.0  0.81075  0.04547  0.63283  1.0000
  C   C2138     1.0  0.81548  0.07682  0.62544  1.0000
  C   C2139     1.0  0.78676  0.07065  0.62220  1.0000
  C   C2140     1.0  0.79265  0.06608  0.65363  1.0000
  C   C2141     1.0  0.79836  0.03122  0.63802  1.0000
  C   C2142     1.0  0.83233  0.07143  0.63450  1.0000
  C   C2143     1.0  0.78907  0.08502  0.65899  1.0000
  H   H3603     1.0  0.81899  0.04455  0.61881  1.0000
  H   H3604     1.0  0.82081  0.04026  0.64204  1.0000
  H   H3605     1.0  0.80978  0.09160  0.62537  1.0000
  H   H3606     1.0  0.82077  0.07623  0.61063  1.0000
  H   H3607     1.0  0.79315  0.06896  0.60784  1.0000
  H   H3608     1.0  0.77655  0.06163  0.62737  1.0000
  H   H3609     1.0  0.77943  0.06127  0.65778  1.0000
  H   H3610     1.0  0.80166  0.05648  0.66278  1.0000
  H   H3611     1.0  0.78857  0.03200  0.65130  1.0000
  H   H3612     1.0  0.79090  0.03256  0.62698  1.0000
  H   H3613     1.0  0.80711  0.01718  0.63937  1.0000
  H   H3614     1.0  0.82851  0.06909  0.64970  1.0000
  H   H3615     1.0  0.84185  0.05903  0.63023  1.0000
  C   C2144     1.0  0.68868  0.24488  0.66460  1.0000
  H   H3616     1.0  0.77635  0.08645  0.66976  1.0000
  N   N151      1.0  0.90988  0.21605  0.52741  1.0000
  C   C2145     1.0  0.89657  0.21406  0.54573  1.0000
  C   C2146     1.0  0.92644  0.22124  0.53027  1.0000
  C   C2147     1.0  0.90026  0.23026  0.51350  1.0000
  C   C2148     1.0  0.87849  0.20847  0.54617  1.0000
  C   C2149     1.0  0.93168  0.27359  0.64273  1.0000
  H   H3617     1.0  0.90327  0.20388  0.55647  1.0000
  H   H3618     1.0  0.89219  0.22723  0.55062  1.0000
  H   H3619     1.0  0.84115  0.99249  0.54255  1.0000
  C   C2150     1.0  0.76969  0.99099  0.51288  1.0000
  H   H3620     1.0  0.92172  0.18701  0.53326  1.0000
  H   H3621     1.0  0.89130  0.24177  0.51998  1.0000
  H   H3622     1.0  0.86969  0.20844  0.56010  1.0000
  H   H3623     1.0  0.87053  0.21830  0.53629  1.0000
  H   H3624     1.0  0.88065  0.19436  0.54384  1.0000
  H   H3625     1.0  0.92375  0.20440  0.49201  1.0000
  H   H3626     1.0  0.92809  0.23927  0.65636  1.0000
  C   C2151     1.0  0.81919  0.01783  0.52658  1.0000
  C   C2152     1.0  0.91102  0.10269  0.52287  1.0000
  C   C2153     1.0  0.71391  0.26002  0.53089  1.0000
  H   H3627     1.0  0.86006  0.14749  0.52346  1.0000
  C   C2154     1.0  0.90189  0.07800  0.54849  1.0000
  C   C2155     1.0  0.94375  0.07561  0.53236  1.0000
  C   C2156     1.0  0.90720  0.06282  0.56497  1.0000
  H   H3628     1.0  0.93284  0.08260  0.55887  1.0000
  H   H3629     1.0  0.86958  0.13969  0.48334  1.0000
  H   H3630     1.0  0.90480  0.07089  0.53678  1.0000
  H   H3631     1.0  0.93771  0.06375  0.53307  1.0000
  H   H3632     1.0  0.94700  0.08288  0.51780  1.0000
  H   H3633     1.0  0.91421  0.09871  0.57841  1.0000
  H   H3634     1.0  0.89179  0.09298  0.58153  1.0000
  H   H3635     1.0  0.89493  0.05705  0.57270  1.0000
  H   H3636     1.0  0.91209  0.06735  0.57507  1.0000
  H   H3637     1.0  0.91742  0.05108  0.56010  1.0000
  C   C2157     1.0  0.84573  0.00542  0.54151  1.0000
  C   C2158     1.0  0.83458  0.03917  0.53240  1.0000
  N   N152      1.0  0.83675  0.40549  0.64884  1.0000
  C   C2159     1.0  0.81739  0.41382  0.65726  1.0000
  C   C2160     1.0  0.84832  0.40223  0.66302  1.0000
  C   C2161     1.0  0.83641  0.38752  0.64433  1.0000
  C   C2162     1.0  0.84310  0.41878  0.63161  1.0000
  C   C2163     1.0  0.85025  0.41955  0.66842  1.0000
  C   C2164     1.0  0.85399  0.37243  0.64424  1.0000
  C   C2165     1.0  0.86312  0.41360  0.62148  1.0000
  H   H3638     1.0  0.81654  0.42772  0.65966  1.0000
  H   H3639     1.0  0.86248  0.39475  0.65865  1.0000
  H   H3640     1.0  0.84271  0.39308  0.67587  1.0000
  H   H3641     1.0  0.82565  0.38089  0.65438  1.0000
  H   H3642     1.0  0.83250  0.38990  0.63078  1.0000
  H   H3643     1.0  0.83466  0.42045  0.62128  1.0000
  H   H3644     1.0  0.84063  0.43296  0.63409  1.0000
  H   H3645     1.0  0.78900  0.42158  0.65419  1.0000
  H   H3646     1.0  0.85669  0.42907  0.65654  1.0000
  H   H3647     1.0  0.83699  0.42694  0.67527  1.0000
  H   H3648     1.0  0.85930  0.41535  0.67861  1.0000
  H   H3649     1.0  0.86627  0.37728  0.63534  1.0000
  H   H3650     1.0  0.85215  0.36094  0.63900  1.0000
  H   H3651     1.0  0.85634  0.36654  0.65846  1.0000
  H   H3652     1.0  0.86435  0.40417  0.61221  1.0000
  H   H3653     1.0  0.87287  0.40745  0.63081  1.0000
  H   H3654     1.0  0.86777  0.42631  0.61315  1.0000
  H   H3655     1.0  0.66025  0.20403  0.57061  1.0000
  C   C2166     1.0  0.74814  0.16590  0.53201  1.0000
  Fe  Fe302     1.0  0.94148  0.14065  0.49592  1.0000
  H   H3656     1.0  0.80016  0.08576  0.66545  1.0000
  C   C2167     1.0  0.84940  0.02143  0.50823  1.0000
  H   H3657     1.0  0.73156  0.11944  0.51576  1.0000
  H   H3658     1.0  0.90743  0.12123  0.54869  1.0000
  H   H3659     1.0  0.75092  0.11678  0.56897  1.0000
  C   C2168     1.0  0.82269  0.05555  0.58080  1.0000
  H   H3660     1.0  0.69156  0.23349  0.50179  1.0000
  H   H3661     1.0  0.75558  0.01989  0.50994  1.0000
  H   H3662     1.0  0.71088  0.21583  0.50757  1.0000
  H   H3663     1.0  0.73571  0.22666  0.52441  1.0000
  H   H3664     1.0  0.92745  0.26744  0.63337  1.0000
  H   H3665     1.0  0.89337  0.11434  0.50296  1.0000
  H   H3666     1.0  0.86290  0.02744  0.58905  1.0000
  H   H3667     1.0  0.88225  0.10174  0.52393  1.0000
  H   H3668     1.0  0.73431  0.15094  0.50949  1.0000
  C   C2169     1.0  0.70448  0.23179  0.67326  1.0000
  H   H3669     1.0  0.82657  0.19407  0.50266  1.0000
  H   H3670     1.0  0.84741  0.05969  0.53595  1.0000
  H   H3671     1.0  0.76315  0.13546  0.56086  1.0000
  H   H3672     1.0  0.82529  0.03948  0.54607  1.0000
  H   H3673     1.0  0.84394  0.13240  0.51231  1.0000
  H   H3674     1.0  0.66635  0.26115  0.71549  1.0000
  H   H3675     1.0  0.91538  0.25123  0.52736  1.0000
  H   H3676     1.0  0.87436  0.20828  0.59240  1.0000
  H   H3677     1.0  0.69047  0.28344  0.52858  1.0000
  H   H3678     1.0  0.84049  0.00870  0.55547  1.0000
  C   C2170     1.0  0.85178  0.16124  0.51897  1.0000
  C   C2171     1.0  0.85161  0.04531  0.53379  1.0000
  H   H3679     1.0  0.68306  0.26706  0.48965  1.0000
  H   H3680     1.0  0.71778  0.23471  0.66464  1.0000
  H   H3681     1.0  0.76630  0.09291  0.61105  1.0000
  H   H3682     1.0  0.79089  0.35383  0.51066  1.0000
  H   H3683     1.0  0.81350  0.02809  0.51519  1.0000
  C   C2172     1.0  0.74767  0.18059  0.51415  1.0000
  H   H3684     1.0  0.70459  0.21724  0.67353  1.0000
  H   H3685     1.0  0.83013  0.13317  0.49618  1.0000
  H   H3686     1.0  0.86241  0.04531  0.52113  1.0000
  C   C2173     1.0  0.92947  0.19592  0.50402  1.0000
  H   H3687     1.0  0.73274  0.15113  0.56595  1.0000
  H   H3688     1.0  0.71323  0.17311  0.52303  1.0000
  H   H3689     1.0  0.95702  0.07018  0.53695  1.0000
  H   H3690     1.0  0.78711  0.13520  0.50443  1.0000
  H   H3691     1.0  0.88670  0.08279  0.55167  1.0000
  H   H3692     1.0  0.73755  0.24664  0.57767  1.0000
  C   C2174     1.0  0.97107  0.17138  0.52426  1.0000
  H   H3693     1.0  0.98135  0.17783  0.51411  1.0000
  C   C2175     1.0  0.96243  0.15979  0.51947  1.0000
  H   H3694     1.0  0.95639  0.24063  0.66897  1.0000
  H   H3695     1.0  0.79870  0.03304  0.54622  1.0000
  H   H3696     1.0  0.77412  0.01639  0.49106  1.0000
  H   H3697     1.0  0.74898  0.26009  0.55654  1.0000
  H   H3698     1.0  0.78358  0.10099  0.61634  1.0000
  H   H3699     1.0  0.78709  0.09716  0.64778  1.0000
  H   H3700     1.0  0.72320  0.26992  0.52452  1.0000
  C   C2176     1.0  0.91566  0.19745  0.52224  1.0000
  S   S608      1.0  0.80526  0.00737  0.59664  1.0000
  S   S609      1.0  0.80449  0.24072  0.49969  1.0000
  N   N153      1.0  0.91133  0.09417  0.54288  1.0000
  H   H3701     1.0  0.93720  0.10140  0.54113  1.0000
  H   H3702     1.0  0.89376  0.11565  0.58088  1.0000
  H   H3703     1.0  0.66740  0.27259  0.68021  1.0000
  C   C2177     1.0  0.72827  0.12615  0.52774  1.0000
  C   C2178     1.0  0.78911  0.33981  0.51122  1.0000
  H   H3704     1.0  0.81284  0.40535  0.67105  1.0000
  H   H3705     1.0  0.96898  0.22306  0.65677  1.0000
  C   C2179     1.0  0.66701  0.22632  0.68647  1.0000
  H   H3706     1.0  0.74860  0.17459  0.50221  1.0000
  H   H3707     1.0  0.77846  0.01608  0.51297  1.0000
  H   H3708     1.0  0.87787  0.20382  0.66756  1.0000
  H   H3709     1.0  0.70549  0.22607  0.53812  1.0000
  H   H3710     1.0  0.90375  0.19255  0.52109  1.0000
  H   H3711     1.0  0.96631  0.15710  0.50577  1.0000
  C   C2180     1.0  0.67500  0.25432  0.70417  1.0000
  H   H3712     1.0  0.80612  0.19322  0.49641  1.0000
  H   H3713     1.0  0.75307  0.13688  0.51865  1.0000
  H   H3714     1.0  0.89070  0.22429  0.50917  1.0000
  C   C2181     1.0  0.80283  0.33095  0.49586  1.0000
  H   H3715     1.0  0.69477  0.18757  0.54810  1.0000
  H   H3716     1.0  0.74625  0.25984  0.49426  1.0000
  S   S610      1.0  0.85392  0.06686  0.58096  1.0000
  H   H3717     1.0  0.84415  0.00378  0.59508  1.0000
  H   H3718     1.0  0.67768  0.23954  0.71055  1.0000
  C   C2182     1.0  0.80259  0.41622  0.64603  1.0000
  Fe  Fe303     1.0  0.78555  0.42672  0.73207  1.0000
  H   H3719     1.0  0.68679  0.24277  0.53199  1.0000
  S   S611      1.0  0.83624  0.40271  0.72097  1.0000
  C   C2183     1.0  0.82128  0.19090  0.49191  1.0000
  H   H3720     1.0  0.90710  0.23898  0.48364  1.0000
  H   H3721     1.0  0.93751  0.22179  0.51786  1.0000
  H   H3722     1.0  0.86295  0.00446  0.48774  1.0000
  C   C2184     1.0  0.75344  0.12877  0.55771  1.0000
  H   H3723     1.0  0.70463  0.15658  0.54161  1.0000
  H   H3724     1.0  0.79774  0.04631  0.58346  1.0000
  H   H3725     1.0  0.75961  0.18728  0.51114  1.0000
  H   H3726     1.0  0.88683  0.11328  0.55253  1.0000
  H   H3727     1.0  0.80742  0.47000  0.71896  1.0000
  C   C2185     1.0  0.91235  0.23928  0.49577  1.0000
  C   C2186     1.0  0.70847  0.26177  0.49980  1.0000
  H   H3728     1.0  0.98849  0.23867  0.66439  1.0000
  C   C2187     1.0  0.84093  0.05034  0.58289  1.0000
  S   S612      1.0  0.97536  0.19073  0.54766  1.0000
  Fe  Fe304     1.0  0.66298  0.19400  0.48857  1.0000
  C   C2188     1.0  0.96390  0.25902  0.60430  1.0000
  H   H3729     1.0  0.91753  0.09235  0.51406  1.0000
  H   H3730     1.0  0.71316  0.13064  0.53103  1.0000
  H   H3731     1.0  0.91926  0.11364  0.51781  1.0000
  C   C2189     1.0  0.81203  0.04216  0.58449  1.0000
  H   H3732     1.0  0.80471  0.42638  0.63294  1.0000
  Fe  Fe305     1.0  0.83170  0.24645  0.48343  1.0000
  H   H3733     1.0  0.87731  0.23501  0.61476  1.0000
  C   C2190     1.0  0.68800  0.27096  0.50025  1.0000
  H   H3734     1.0  0.92702  0.23275  0.49330  1.0000
  H   H3735     1.0  0.84012  0.08270  0.62974  1.0000
  C   C2191     1.0  0.92288  0.23971  0.53637  1.0000
  H   H3736     1.0  0.86200  0.23210  0.64786  1.0000
  H   H3737     1.0  0.84519  0.24686  0.62398  1.0000
  H   H3738     1.0  0.88670  0.22642  0.58548  1.0000
  H   H3739     1.0  0.75117  0.25280  0.51727  1.0000
  H   H3740     1.0  0.69829  0.27804  0.54951  1.0000
  H   H3741     1.0  0.76227  0.15726  0.53058  1.0000
  C   C2192     1.0  0.86111  0.21805  0.64721  1.0000
  C   C2193     1.0  0.84153  0.23340  0.62521  1.0000
  C   C2194     1.0  0.87440  0.22168  0.61442  1.0000
  C   C2195     1.0  0.87402  0.22218  0.59439  1.0000
  H   H3742     1.0  0.88674  0.21109  0.61725  1.0000
  H   H3743     1.0  0.87979  0.19070  0.65070  1.0000
  H   H3744     1.0  0.86235  0.23239  0.58952  1.0000
  N   N154      1.0  0.85757  0.21789  0.62876  1.0000
  C   C2196     1.0  0.87849  0.20479  0.65273  1.0000
  C   C2197     1.0  0.82377  0.23259  0.64004  1.0000
  H   H3745     1.0  0.84945  0.21451  0.65850  1.0000
  H   H3746     1.0  0.83795  0.23453  0.61185  1.0000
  H   H3747     1.0  0.89104  0.21008  0.64513  1.0000
  C   C2198     1.0  0.85396  0.19929  0.62940  1.0000
  H   H3748     1.0  0.81191  0.24162  0.63436  1.0000
  H   H3749     1.0  0.86708  0.18917  0.62721  1.0000
  H   H3750     1.0  0.84372  0.20865  0.60283  1.0000
  H   H3751     1.0  0.94533  0.24383  0.62408  1.0000
  H   H3752     1.0  0.85710  0.03699  0.54602  1.0000
  H   H3753     1.0  0.66931  0.21700  0.67674  1.0000
  C   C2199     1.0  0.85101  0.00495  0.49946  1.0000
  H   H3754     1.0  0.78243  0.10779  0.49596  1.0000
  Fe  Fe306     1.0  0.82356  0.43252  0.71214  1.0000
  C   C2200     1.0  0.84253  0.19838  0.61584  1.0000
  H   H3755     1.0  0.84638  0.19384  0.64337  1.0000
  C   C2201     1.0  0.86687  0.00006  0.53859  1.0000
  N   N155      1.0  0.66939  0.24535  0.67594  1.0000
  H   H3756     1.0  0.82788  0.19908  0.62268  1.0000
  H   H3757     1.0  0.95995  0.25479  0.59329  1.0000
  H   H3758     1.0  0.68855  0.21530  0.52128  1.0000
  H   H3759     1.0  0.73300  0.11550  0.53927  1.0000
  H   H3760     1.0  0.84720  0.18470  0.61196  1.0000
  H   H3761     1.0  0.80579  0.99276  0.50576  1.0000
  H   H3762     1.0  0.92392  0.26970  0.65698  1.0000
  C   C2202     1.0  0.83818  0.01816  0.59089  1.0000
  H   H3763     1.0  0.77468  0.34016  0.51105  1.0000
  C   C2203     1.0  0.81965  0.02346  0.58984  1.0000
  S   S613      1.0  0.80066  0.42643  0.70285  1.0000
  H   H3764     1.0  0.91542  0.23897  0.55086  1.0000
  C   C2204     1.0  0.70067  0.23591  0.52604  1.0000
  H   H3765     1.0  0.95412  0.27131  0.65518  1.0000
  Fe  Fe307     1.0  0.81191  0.39657  0.71394  1.0000
  H   H3766     1.0  0.77721  0.98619  0.52445  1.0000
  C   C2205     1.0  0.69799  0.22462  0.51326  1.0000
  H   H3767     1.0  0.70746  0.17283  0.56451  1.0000
  N   N156      1.0  0.73406  0.15403  0.53688  1.0000
  H   H3768     1.0  0.76119  0.23852  0.50095  1.0000
  C   C2206     1.0  0.87630  0.48319  0.72982  1.0000
  H   H3769     1.0  0.73518  0.19152  0.51550  1.0000
  H   H3770     1.0  0.95866  0.27981  0.63150  1.0000
  H   H3771     1.0  0.93296  0.21031  0.54066  1.0000
  C   C2207     1.0  0.95252  0.26890  0.64204  1.0000
  H   H3772     1.0  0.88393  0.19719  0.50186  1.0000
  H   H3773     1.0  0.73334  0.23055  0.50124  1.0000
  H   H3774     1.0  0.77228  0.31955  0.49401  1.0000
  H   H3775     1.0  0.69199  0.25885  0.66057  1.0000
  H   H3776     1.0  0.97874  0.25914  0.59984  1.0000
  S   S614      1.0  0.66341  0.24297  0.61296  1.0000
  H   H3777     1.0  0.87346  0.16301  0.49529  1.0000
  C   C2208     1.0  0.95962  0.24523  0.62255  1.0000
  H   H3778     1.0  0.83710  0.16062  0.52310  1.0000
  S   S615      1.0  0.65699  0.19992  0.65367  1.0000
  C   C2209     1.0  0.70866  0.17960  0.54978  1.0000
  H   H3779     1.0  0.87072  0.99034  0.55109  1.0000
  N   N157      1.0  0.96273  0.24993  0.63930  1.0000
  H   H3780     1.0  0.72363  0.13465  0.56113  1.0000
  H   H3781     1.0  0.74310  0.11224  0.48497  1.0000
  H   H3782     1.0  0.86353  0.02271  0.50780  1.0000
  H   H3783     1.0  0.96802  0.23143  0.62068  1.0000
  H   H3784     1.0  0.75529  0.98963  0.51938  1.0000
  H   H3785     1.0  0.80941  0.01012  0.55668  1.0000
  H   H3786     1.0  0.67851  0.26761  0.51349  1.0000
  S   S616      1.0  0.95906  0.11569  0.48610  1.0000
  H   H3787     1.0  0.91109  0.25403  0.49566  1.0000
  H   H3788     1.0  0.83870  0.00657  0.49375  1.0000
  H   H3789     1.0  0.98343  0.26363  0.65791  1.0000
  H   H3790     1.0  0.70414  0.23346  0.68721  1.0000
  H   H3791     1.0  0.68813  0.25925  0.69949  1.0000
  N   N158      1.0  0.84921  0.16499  0.48488  1.0000
  H   H3792     1.0  0.85132  0.11711  0.49668  1.0000
  H   H3793     1.0  0.85768  0.18367  0.49662  1.0000
  H   H3794     1.0  0.85283  0.99161  0.50934  1.0000
  C   C2210     1.0  0.88600  0.20218  0.48715  1.0000
  H   H3795     1.0  0.80148  0.31639  0.49825  1.0000
  H   H3796     1.0  0.87282  0.99272  0.52705  1.0000
  H   H3797     1.0  0.89358  0.07696  0.48385  1.0000
  C   C2211     1.0  0.81673  0.47937  0.71469  1.0000
  H   H3798     1.0  0.68644  0.28616  0.49663  1.0000
  S   S617      1.0  0.69237  0.19259  0.48808  1.0000
  C   C2212     1.0  0.98301  0.24949  0.63625  1.0000
  H   H3799     1.0  0.95581  0.27309  0.60497  1.0000
  H   H3800     1.0  0.74922  0.00876  0.48387  1.0000
  C   C2213     1.0  0.99006  0.25071  0.65294  1.0000
  C   C2214     1.0  0.65717  0.27045  0.64971  1.0000
  Fe  Fe308     1.0  0.89819  0.44369  0.83839  1.0000
  S   S618      1.0  0.91477  0.44275  0.81007  1.0000
  C   C2215     1.0  0.94979  0.38944  0.87994  1.0000
  Fe  Fe309     1.0  0.90525  0.40252  0.85054  1.0000
  S   S619      1.0  0.92259  0.39812  0.82311  1.0000
  S   S620      1.0  0.90543  0.37811  0.87396  1.0000
  Fe  Fe310     1.0  0.93502  0.42109  0.82409  1.0000
  Fe  Fe311     1.0  0.90080  0.42001  0.81140  1.0000
  S   S621      1.0  0.89473  0.41980  0.78428  1.0000
  S   S622      1.0  0.91955  0.42362  0.85253  1.0000
  S   S623      1.0  0.88217  0.42278  0.83884  1.0000
  S   S624      1.0  0.80055  0.41813  0.92448  1.0000
  S   S625      1.0  0.74670  0.42077  0.93706  1.0000
  Fe  Fe312     1.0  0.81364  0.39394  0.94362  1.0000
  S   S626      1.0  0.83516  0.36942  0.93698  1.0000
  Fe  Fe313     1.0  0.70893  0.39882  0.86494  1.0000
  S   S627      1.0  0.70875  0.42293  0.84130  1.0000
  S   S628      1.0  0.73559  0.38677  0.87463  1.0000
  Fe  Fe314     1.0  0.66978  0.39533  0.86507  1.0000
  H   H3801     1.0  0.88879  0.47376  0.77699  1.0000
  C   C2216     1.0  0.97199  0.43081  0.84150  1.0000
  Fe  Fe315     1.0  0.69539  0.40726  0.82936  1.0000
  S   S629      1.0  0.70422  0.39910  0.80194  1.0000
  Fe  Fe316     1.0  0.68029  0.43306  0.85624  1.0000
  H   H3802     1.0  0.66140  0.31543  0.84842  1.0000
  S   S630      1.0  0.69783  0.38227  0.85182  1.0000
  S   S631      1.0  0.68109  0.40957  0.88078  1.0000
  Fe  Fe317     1.0  0.81817  0.40483  0.74868  1.0000
  H   H3803     1.0  0.75800  0.43931  0.88868  1.0000
  S   S632      1.0  0.82468  0.39538  0.77709  1.0000
  H   H3804     1.0  0.78677  0.46638  0.89814  1.0000
  C   C2217     1.0  0.66786  0.35477  0.81270  1.0000
  H   H3805     1.0  0.82866  0.46843  0.76610  1.0000
  H   H3806     1.0  0.70582  0.46206  0.83825  1.0000
  H   H3807     1.0  0.66598  0.38177  0.81947  1.0000
  H   H3808     1.0  0.95243  0.46063  0.80028  1.0000
  H   H3809     1.0  0.69891  0.36311  0.81905  1.0000
  H   H3810     1.0  0.72150  0.35303  0.79376  1.0000
  C   C2218     1.0  0.98847  0.37956  0.86306  1.0000
  C   C2219     1.0  0.70903  0.34698  0.79782  1.0000
  H   H3811     1.0  0.98505  0.37991  0.87797  1.0000
  H   H3812     1.0  0.86035  0.40565  0.94177  1.0000
  C   C2220     1.0  0.71964  0.41133  0.78570  1.0000
  C   C2221     1.0  0.72007  0.42916  0.78658  1.0000
  C   C2222     1.0  0.73176  0.43910  0.77276  1.0000
  C   C2223     1.0  0.74346  0.43099  0.75846  1.0000
  C   C2224     1.0  0.74349  0.41291  0.75800  1.0000
  C   C2225     1.0  0.73137  0.40320  0.77145  1.0000
  H   H3813     1.0  0.71095  0.43552  0.79750  1.0000
  H   H3814     1.0  0.73174  0.45309  0.77311  1.0000
  H   H3815     1.0  0.90573  0.45676  0.76614  1.0000
  H   H3816     1.0  0.73106  0.38940  0.77075  1.0000
  H   H3817     1.0  0.98777  0.39412  0.85571  1.0000
  H   H3818     1.0  0.79333  0.45468  0.97112  1.0000
  C   C2226     1.0  0.66594  0.31542  0.83350  1.0000
  H   H3819     1.0  0.67741  0.34019  0.87209  1.0000
  Fe  Fe318     1.0  0.77435  0.41423  0.94475  1.0000
  H   H3820     1.0  0.91177  0.44794  0.88091  1.0000
  H   H3821     1.0  0.84546  0.43308  0.92219  1.0000
  C   C2227     1.0  0.74413  0.41133  0.91947  1.0000
  C   C2228     1.0  0.72758  0.41708  0.91324  1.0000
  C   C2229     1.0  0.72501  0.40984  0.89925  1.0000
  C   C2230     1.0  0.73891  0.39662  0.89158  1.0000
  C   C2231     1.0  0.75558  0.39104  0.89763  1.0000
  C   C2232     1.0  0.75824  0.39845  0.91150  1.0000
  H   H3822     1.0  0.71666  0.42710  0.91930  1.0000
  H   H3823     1.0  0.71218  0.41433  0.89460  1.0000
  H   H3824     1.0  0.76640  0.38085  0.89170  1.0000
  H   H3825     1.0  0.77108  0.39401  0.91619  1.0000
  C   C2233     1.0  0.95657  0.38428  0.86081  1.0000
  H   H3826     1.0  0.87233  0.43953  0.87383  1.0000
  C   C2234     1.0  0.80049  0.46555  0.96903  1.0000
  H   H3827     1.0  0.95730  0.43425  0.84623  1.0000
  C   C2235     1.0  0.83933  0.45696  0.76132  1.0000
  C   C2236     1.0  0.69972  0.34882  0.81779  1.0000
  C   C2237     1.0  0.87516  0.41280  0.78285  1.0000
  C   C2238     1.0  0.87202  0.41377  0.76540  1.0000
  C   C2239     1.0  0.85638  0.40875  0.76357  1.0000
  C   C2240     1.0  0.84401  0.40230  0.77922  1.0000
  C   C2241     1.0  0.84715  0.40123  0.79672  1.0000
  C   C2242     1.0  0.86264  0.40662  0.79855  1.0000
  H   H3828     1.0  0.88176  0.41827  0.75320  1.0000
  H   H3829     1.0  0.85410  0.40953  0.75004  1.0000
  H   H3830     1.0  0.83763  0.39617  0.80887  1.0000
  H   H3831     1.0  0.86502  0.40577  0.81206  1.0000
  C   C2243     1.0  0.88542  0.37657  0.89101  1.0000
  C   C2244     1.0  0.88547  0.36073  0.90487  1.0000
  C   C2245     1.0  0.86992  0.35880  0.91879  1.0000
  C   C2246     1.0  0.85424  0.37280  0.91916  1.0000
  C   C2247     1.0  0.85410  0.38882  0.90540  1.0000
  C   C2248     1.0  0.86971  0.39066  0.89120  1.0000
  H   H3832     1.0  0.89752  0.34979  0.90473  1.0000
  H   H3833     1.0  0.87005  0.34636  0.92929  1.0000
  H   H3834     1.0  0.84189  0.39956  0.90550  1.0000
  H   H3835     1.0  0.86956  0.40283  0.88039  1.0000
  N   N159      1.0  0.86902  0.44591  0.90968  1.0000
  Fe  Fe319     1.0  0.79217  0.40727  0.97829  1.0000
  H   H3836     1.0  0.97821  0.43850  0.86408  1.0000
  C   C2249     1.0  0.82119  0.48493  0.94971  1.0000
  C   C2250     1.0  0.86645  0.45735  0.92385  1.0000
  N   N160      1.0  0.86610  0.47455  0.74822  1.0000
  C   C2251     1.0  0.75578  0.46833  0.92658  1.0000
  H   H3837     1.0  0.92558  0.45799  0.83957  1.0000
  S   S633      1.0  0.79479  0.39653  0.74255  1.0000
  C   C2252     1.0  0.93714  0.47910  0.84292  1.0000
  H   H3838     1.0  0.84618  0.36411  0.97215  1.0000
  C   C2253     1.0  0.78267  0.48147  0.89414  1.0000
  H   H3839     1.0  0.84415  0.46187  0.90088  1.0000
  H   H3840     1.0  0.94941  0.46268  0.77784  1.0000
  H   H3841     1.0  0.98574  0.34192  0.86397  1.0000
  H   H3842     1.0  0.85198  0.45553  0.86919  1.0000
  S   S634      1.0  0.77653  0.43236  0.96241  1.0000
  H   H3843     1.0  0.90658  0.45841  0.90060  1.0000
  H   H3844     1.0  0.69859  0.33805  0.85589  1.0000
  C   C2254     1.0  0.68438  0.33583  0.85885  1.0000
  H   H3845     1.0  0.86189  0.45155  0.73911  1.0000
  H   H3846     1.0  0.83378  0.33890  0.97349  1.0000
  H   H3847     1.0  0.92064  0.47658  0.78198  1.0000
  C   C2255     1.0  0.96915  0.36295  0.82970  1.0000
  C   C2256     1.0  0.74573  0.46350  0.90047  1.0000
  H   H3848     1.0  0.95462  0.37007  0.83211  1.0000
  H   H3849     1.0  0.97040  0.34789  0.83458  1.0000
  H   H3850     1.0  0.95249  0.37751  0.89125  1.0000
  H   H3851     1.0  0.74610  0.45972  0.93592  1.0000
  H   H3852     1.0  0.67293  0.36200  0.84397  1.0000
  C   C2257     1.0  0.67367  0.34740  0.84388  1.0000
  H   H3853     1.0  0.95105  0.47122  0.84068  1.0000
  H   H3854     1.0  0.88162  0.41293  0.93539  1.0000
  H   H3855     1.0  0.98487  0.45680  0.79125  1.0000
  H   H3856     1.0  0.87683  0.45139  0.93269  1.0000
  H   H3857     1.0  0.76893  0.45841  0.92417  1.0000
  H   H3858     1.0  0.95630  0.40051  0.88069  1.0000
  C   C2258     1.0  0.90047  0.45387  0.89132  1.0000
  H   H3859     1.0  0.94561  0.37881  0.85832  1.0000
  C   C2259     1.0  0.85836  0.44583  0.88036  1.0000
  N   N161      1.0  0.77075  0.39940  0.81629  1.0000
  C   C2260     1.0  0.76485  0.38117  0.82406  1.0000
  C   C2261     1.0  0.78942  0.39727  0.82036  1.0000
  C   C2262     1.0  0.77243  0.40324  0.79572  1.0000
  C   C2263     1.0  0.75647  0.41414  0.82469  1.0000
  C   C2264     1.0  0.74668  0.37980  0.81995  1.0000
  C   C2265     1.0  0.79071  0.39029  0.84082  1.0000
  C   C2266     1.0  0.77767  0.42159  0.78495  1.0000
  C   C2267     1.0  0.76300  0.43090  0.82653  1.0000
  H   H3860     1.0  0.77570  0.36980  0.81904  1.0000
  H   H3861     1.0  0.76292  0.37780  0.83933  1.0000
  H   H3862     1.0  0.79451  0.41030  0.81544  1.0000
  H   H3863     1.0  0.79979  0.38742  0.81260  1.0000
  H   H3864     1.0  0.78264  0.39205  0.78969  1.0000
  H   H3865     1.0  0.75926  0.40358  0.79211  1.0000
  H   H3866     1.0  0.74531  0.41959  0.81672  1.0000
  H   H3867     1.0  0.74958  0.40838  0.83885  1.0000
  H   H3868     1.0  0.74206  0.36738  0.82908  1.0000
  H   H3869     1.0  0.73556  0.39177  0.82261  1.0000
  H   H3870     1.0  0.74845  0.37819  0.80560  1.0000
  H   H3871     1.0  0.79216  0.37512  0.84470  1.0000
  H   H3872     1.0  0.80316  0.39350  0.84305  1.0000
  H   H3873     1.0  0.77862  0.39659  0.85024  1.0000
  H   H3874     1.0  0.79061  0.42346  0.78730  1.0000
  H   H3875     1.0  0.76630  0.43339  0.78761  1.0000
  H   H3876     1.0  0.77982  0.42176  0.77010  1.0000
  H   H3877     1.0  0.77130  0.42718  0.83729  1.0000
  H   H3878     1.0  0.75077  0.44133  0.83094  1.0000
  H   H3879     1.0  0.77088  0.43764  0.81354  1.0000
  N   N162      1.0  0.74899  0.47771  0.90904  1.0000
  H   H3880     1.0  0.87092  0.45552  0.77340  1.0000
  C   C2268     1.0  0.86661  0.41802  0.93713  1.0000
  C   C2269     1.0  0.66709  0.37571  0.80753  1.0000
  N   N163      1.0  0.68121  0.34362  0.82477  1.0000
  H   H3881     1.0  0.94545  0.35290  0.88369  1.0000
  H   H3882     1.0  0.84988  0.43521  0.88635  1.0000
  C   C2270     1.0  0.98129  0.37029  0.83808  1.0000
  C   C2271     1.0  0.89391  0.46836  0.76410  1.0000
  C   C2272     1.0  0.86073  0.42919  0.91903  1.0000
  C   C2273     1.0  0.75834  0.48133  0.93772  1.0000
  C   C2274     1.0  0.76265  0.44942  0.89363  1.0000
  H   H3883     1.0  0.97409  0.36532  0.81454  1.0000
  S   S635      1.0  0.81952  0.41068  0.96060  1.0000
  C   C2275     1.0  0.87883  0.46120  0.75977  1.0000
  C   C2276     1.0  0.88909  0.43924  0.90215  1.0000
  H   H3884     1.0  0.75242  0.40666  0.74691  1.0000
  S   S636      1.0  0.66980  0.46192  0.86207  1.0000
  C   C2277     1.0  0.70239  0.47344  0.84518  1.0000
  H   H3885     1.0  0.68455  0.32096  0.86112  1.0000
  Fe  Fe320     1.0  0.80365  0.43442  0.94352  1.0000
  H   H3886     1.0  0.88005  0.48050  0.90751  1.0000
  H   H3887     1.0  0.65933  0.34533  0.84874  1.0000
  C   C2278     1.0  0.68334  0.32356  0.82483  1.0000
  S   S637      1.0  0.78712  0.38867  0.96260  1.0000
  C   C2279     1.0  0.95653  0.34534  0.87431  1.0000
  C   C2280     1.0  0.97755  0.45855  0.77998  1.0000
  H   H3888     1.0  0.89974  0.47877  0.75290  1.0000
  H   H3889     1.0  0.71360  0.33236  0.79659  1.0000
  S   S638      1.0  0.81364  0.46088  0.93332  1.0000
  C   C2281     1.0  0.86701  0.47796  0.91677  1.0000
  C   C2282     1.0  0.98383  0.43316  0.85161  1.0000
  C   C2283     1.0  0.92262  0.47143  0.84261  1.0000
  H   H3890     1.0  0.85283  0.45713  0.93333  1.0000
  H   H3891     1.0  0.84551  0.44807  0.77292  1.0000
  H   H3892     1.0  0.81355  0.35595  0.97173  1.0000
  C   C2284     1.0  0.85871  0.45656  0.89470  1.0000
  C   C2285     1.0  0.68571  0.47639  0.85766  1.0000
  H   H3893     1.0  0.97880  0.44458  0.77757  1.0000
  H   H3894     1.0  0.76631  0.47324  0.94836  1.0000
  H   H3895     1.0  0.69453  0.31501  0.83195  1.0000
  H   H3896     1.0  0.86419  0.41930  0.90975  1.0000
  H   H3897     1.0  0.89624  0.43144  0.91350  1.0000
  S   S639      1.0  0.96523  0.41969  0.81273  1.0000
  C   C2286     1.0  0.97927  0.42392  0.82537  1.0000
  H   H3898     1.0  0.95886  0.33068  0.88146  1.0000
  H   H3899     1.0  0.77006  0.44142  0.90466  1.0000
  S   S640      1.0  0.66661  0.41966  0.84181  1.0000
  H   H3900     1.0  0.95693  0.39735  0.85044  1.0000
  S   S641      1.0  0.88644  0.47143  0.84568  1.0000
  H   H3901     1.0  0.86155  0.42592  0.94831  1.0000
  H   H3902     1.0  0.86408  0.46898  0.88685  1.0000
  C   C2287     1.0  0.95708  0.46729  0.78566  1.0000
  H   H3903     1.0  0.68769  0.32110  0.81054  1.0000
  H   H3904     1.0  0.66903  0.30083  0.83215  1.0000
  H   H3905     1.0  0.95145  0.34609  0.86187  1.0000
  H   H3906     1.0  0.93474  0.39482  0.88226  1.0000
  H   H3907     1.0  0.67920  0.37916  0.79699  1.0000
  H   H3908     1.0  0.73563  0.45567  0.91032  1.0000
  H   H3909     1.0  0.70025  0.35446  0.78777  1.0000
  H   H3910     1.0  0.67072  0.34983  0.79963  1.0000
  H   H3911     1.0  0.70964  0.34012  0.82636  1.0000
  H   H3912     1.0  0.89276  0.46601  0.88331  1.0000
  C   C2288     1.0  0.81150  0.47117  0.95191  1.0000
  H   H3913     1.0  0.89119  0.42889  0.89356  1.0000
  H   H3914     1.0  0.77200  0.45601  0.88169  1.0000
  H   H3915     1.0  0.84606  0.47246  0.73395  1.0000
  H   H3916     1.0  0.73960  0.47009  0.88814  1.0000
  H   H3917     1.0  0.88556  0.44882  0.75378  1.0000
  S   S642      1.0  0.75775  0.44367  0.74114  1.0000
  H   H3918     1.0  0.83217  0.44840  0.75701  1.0000
  S   S643      1.0  0.80763  0.43491  0.74037  1.0000
  H   H3919     1.0  0.98457  0.46667  0.76726  1.0000
  N   N164      1.0  0.97494  0.37131  0.85816  1.0000
  H   H3920     1.0  0.84933  0.48334  0.77299  1.0000
  C   C2289     1.0  0.97459  0.35237  0.87013  1.0000
  C   C2290     1.0  0.85377  0.46391  0.74464  1.0000
  H   H3921     1.0  0.81436  0.32567  0.96412  1.0000
  C   C2291     1.0  0.81915  0.34273  0.98035  1.0000
  H   H3922     1.0  0.96432  0.47630  0.74721  1.0000
  H   H3923     1.0  0.98293  0.38409  0.82958  1.0000
  H   H3924     1.0  0.72150  0.48244  0.92577  1.0000
  H   H3925     1.0  0.85539  0.48548  0.90995  1.0000
  H   H3926     1.0  0.86543  0.48432  0.92872  1.0000
  H   H3927     1.0  0.97755  0.35158  0.88381  1.0000
  C   C2292     1.0  0.90459  0.48141  0.84559  1.0000
  H   H3928     1.0  0.79454  0.33302  0.98039  1.0000
  C   C2293     1.0  0.80964  0.32811  0.97841  1.0000
  H   H3929     1.0  0.96276  0.48465  0.80839  1.0000
  H   H3930     1.0  0.72710  0.48335  0.83114  1.0000
  H   H3931     1.0  0.85146  0.46301  0.98185  1.0000
  C   C2294     1.0  0.71442  0.48561  0.84111  1.0000
  H   H3932     1.0  0.83621  0.45072  0.97841  1.0000
  H   H3933     1.0  0.78982  0.48539  0.87965  1.0000
  H   H3934     1.0  0.94008  0.48566  0.75191  1.0000
  Fe  Fe321     1.0  0.85955  0.52536  0.11492  1.0000
  S   S644      1.0  0.85860  0.55502  0.10153  1.0000
  S   S645      1.0  0.88001  0.50271  0.10316  1.0000
  Fe  Fe322     1.0  0.82613  0.53328  0.14498  1.0000
  S   S646      1.0  0.82195  0.56353  0.13371  1.0000
  S   S647      1.0  0.81039  0.52137  0.17254  1.0000
  Fe  Fe323     1.0  0.82839  0.55610  0.10589  1.0000
  S   S648      1.0  0.81112  0.57078  0.08461  1.0000
  Fe  Fe324     1.0  0.85246  0.55945  0.13054  1.0000
  S   S649      1.0  0.86326  0.57825  0.14161  1.0000
  S   S650      1.0  0.82970  0.52603  0.11762  1.0000
  S   S651      1.0  0.85621  0.52965  0.14348  1.0000
  Fe  Fe325     1.0  0.93996  0.55207  0.19960  1.0000
  Fe  Fe326     1.0  0.71551  0.55731  0.22226  1.0000
  S   S652      1.0  0.93365  0.54185  0.17706  1.0000
  Fe  Fe327     1.0  0.96833  0.56560  0.21228  1.0000
  H   H3935     1.0  0.71939  0.51146  0.16739  1.0000
  C   C2295     1.0  0.74961  0.49607  0.18554  1.0000
  C   C2296     1.0  0.77095  0.49717  0.06010  1.0000
  H   H3936     1.0  0.79794  0.50845  0.03679  1.0000
  Fe  Fe328     1.0  0.82870  0.55832  0.98386  1.0000
  H   H3937     1.0  0.69061  0.51648  0.19298  1.0000
  S   S653      1.0  0.96665  0.53815  0.20850  1.0000
  S   S654      1.0  0.94301  0.58012  0.20068  1.0000
  H   H3938     1.0  0.82441  0.58853  0.19722  1.0000
  H   H3939     1.0  0.80511  0.58342  0.21440  1.0000
  S   S655      1.0  0.72640  0.55777  0.19207  1.0000
  H   H3940     1.0  0.82175  0.53881  0.21995  1.0000
  H   H3941     1.0  0.91392  0.49006  0.11748  1.0000
  H   H3942     1.0  0.88743  0.61077  0.10169  1.0000
  H   H3943     1.0  0.66092  0.66588  0.21432  1.0000
  H   H3944     1.0  0.82634  0.51734  0.02353  1.0000
  H   H3945     1.0  0.71081  0.50663  0.21773  1.0000
  N   N165      1.0  0.72910  0.49900  0.19279  1.0000
  C   C2297     1.0  0.81632  0.57323  0.03012  1.0000
  H   H3946     1.0  0.92663  0.51428  0.12490  1.0000
  C   C2298     1.0  0.96135  0.49734  0.18709  1.0000
  C   C2299     1.0  0.80916  0.57467  0.04860  1.0000
  N   N166      1.0  0.81749  0.56270  0.19786  1.0000
  H   H3947     1.0  0.70073  0.53260  0.19872  1.0000
  H   H3948     1.0  0.75535  0.53647  0.04081  1.0000
  C   C2300     1.0  0.83551  0.55684  0.18506  1.0000
  H   H3949     1.0  0.84660  0.64223  0.05197  1.0000
  H   H3950     1.0  0.73108  0.51520  0.21111  1.0000
  H   H3951     1.0  0.82658  0.52691  0.04226  1.0000
  H   H3952     1.0  0.87158  0.63171  0.09584  1.0000
  C   C2301     1.0  0.84351  0.49549  0.07762  1.0000
  H   H3953     1.0  0.81064  0.53808  0.02714  1.0000
  C   C2302     1.0  0.72562  0.50289  0.21181  1.0000
  S   S656      1.0  0.92323  0.54670  0.22815  1.0000
  H   H3954     1.0  0.77398  0.52697  0.09748  1.0000
  H   H3955     1.0  0.80564  0.51278  0.08053  1.0000
  H   H3956     1.0  0.79290  0.53541  0.09917  1.0000
  H   H3957     1.0  0.65965  0.60879  0.21583  1.0000
  Fe  Fe329     1.0  0.92807  0.57358  0.23017  1.0000
  C   C2303     1.0  0.85612  0.50293  0.08228  1.0000
  H   H3958     1.0  0.77763  0.53061  0.02629  1.0000
  H   H3959     1.0  0.86718  0.63559  0.06140  1.0000
  C   C2304     1.0  0.83488  0.56567  0.02450  1.0000
  H   H3960     1.0  0.80536  0.60039  0.17698  1.0000
  C   C2305     1.0  0.72014  0.51541  0.18012  1.0000
  H   H3961     1.0  0.84363  0.52689  0.19409  1.0000
  H   H3962     1.0  0.79492  0.58103  0.05275  1.0000
  H   H3963     1.0  0.77824  0.54932  0.08422  1.0000
  C   C2306     1.0  0.78706  0.53153  0.17766  1.0000
  C   C2307     1.0  0.77760  0.52897  0.19600  1.0000
  C   C2308     1.0  0.75915  0.53756  0.20057  1.0000
  C   C2309     1.0  0.74987  0.54813  0.18671  1.0000
  C   C2310     1.0  0.75925  0.55048  0.16832  1.0000
  C   C2311     1.0  0.77792  0.54242  0.16381  1.0000
  H   H3964     1.0  0.78461  0.52046  0.20675  1.0000
  H   H3965     1.0  0.75205  0.53574  0.21479  1.0000
  H   H3966     1.0  0.75209  0.55868  0.15757  1.0000
  H   H3967     1.0  0.78516  0.54443  0.14962  1.0000
  C   C2312     1.0  0.88233  0.56773  0.15218  1.0000
  C   C2313     1.0  0.88675  0.57638  0.16407  1.0000
  C   C2314     1.0  0.90218  0.56841  0.17221  1.0000
  C   C2315     1.0  0.91344  0.55188  0.16824  1.0000
  C   C2316     1.0  0.90889  0.54319  0.15649  1.0000
  C   C2317     1.0  0.89335  0.55098  0.14860  1.0000
  H   H3968     1.0  0.87835  0.58936  0.16689  1.0000
  H   H3969     1.0  0.90561  0.57526  0.18119  1.0000
  H   H3970     1.0  0.91759  0.53051  0.15329  1.0000
  H   H3971     1.0  0.89023  0.54427  0.13932  1.0000
  C   C2318     1.0  0.82037  0.56813  0.06168  1.0000
  C   C2319     1.0  0.83877  0.55997  0.05619  1.0000
  C   C2320     1.0  0.84607  0.55906  0.03760  1.0000
  H   H3972     1.0  0.84751  0.55472  0.06616  1.0000
  H   H3973     1.0  0.86043  0.55317  0.03337  1.0000
  C   C2321     1.0  0.70069  0.52549  0.18783  1.0000
  H   H3974     1.0  0.98699  0.50628  0.14609  1.0000
  C   C2322     1.0  0.84895  0.53948  0.19252  1.0000
  H   H3975     1.0  0.78636  0.55090  0.04655  1.0000
  H   H3976     1.0  0.69570  0.53647  0.17660  1.0000
  H   H3977     1.0  0.95700  0.50883  0.19467  1.0000
  H   H3978     1.0  0.90200  0.55712  0.99314  1.0000
  H   H3979     1.0  0.81038  0.53604  0.20390  1.0000
  H   H3980     1.0  0.80743  0.53497  0.06684  1.0000
  C   C2323     1.0  0.80704  0.58816  0.17107  1.0000
  H   H3981     1.0  0.95670  0.50302  0.17383  1.0000
  H   H3982     1.0  0.83311  0.55379  0.17252  1.0000
  H   H3983     1.0  0.66382  0.64023  0.20117  1.0000
  N   N167      1.0  0.78847  0.52208  0.06022  1.0000
  H   H3984     1.0  0.81125  0.50009  0.05374  1.0000
  H   H3985     1.0  0.86215  0.53823  0.18235  1.0000
  H   H3986     1.0  0.85206  0.53984  0.20568  1.0000
  H   H3987     1.0  0.88472  0.55259  0.98494  1.0000
  H   H3988     1.0  0.85741  0.51701  0.07623  1.0000
  C   C2324     1.0  0.81740  0.52469  0.03437  1.0000
  H   H3989     1.0  0.88668  0.50155  0.16199  1.0000
  N   N168      1.0  0.98194  0.49072  0.18396  1.0000
  C   C2325     1.0  0.92845  0.49972  0.13241  1.0000
  H   H3990     1.0  0.76636  0.54588  0.06169  1.0000
  H   H3991     1.0  0.84324  0.56819  0.17982  1.0000
  S   S657      1.0  0.80417  0.50058  0.99867  1.0000
  H   H3992     1.0  0.86269  0.48662  0.02556  1.0000
  S   S658      1.0  0.84473  0.56548  0.00109  1.0000
  C   C2326     1.0  0.79755  0.52581  0.07380  1.0000
  C   C2327     1.0  0.76915  0.53992  0.03549  1.0000
  H   H3993     1.0  0.76763  0.55379  0.02641  1.0000
  H   H3994     1.0  0.87352  0.49336  0.14180  1.0000
  C   C2328     1.0  0.78463  0.53487  0.08945  1.0000
  C   C2329     1.0  0.87267  0.61682  0.10179  1.0000
  H   H3995     1.0  0.77151  0.49243  0.16171  1.0000
  C   C2330     1.0  0.77793  0.54013  0.05135  1.0000
  C   C2331     1.0  0.80312  0.57125  0.18628  1.0000
  H   H3996     1.0  0.86705  0.58856  0.06309  1.0000
  H   H3997     1.0  0.98649  0.51785  0.18200  1.0000
  C   C2332     1.0  0.73374  0.48709  0.22632  1.0000
  H   H3998     1.0  0.94158  0.49230  0.12527  1.0000
  H   H3999     1.0  0.79689  0.59166  0.16206  1.0000
  H   H4000     1.0  0.82086  0.58566  0.16217  1.0000
  H   H4001     1.0  0.69665  0.48840  0.21286  1.0000
  H   H4002     1.0  0.78952  0.57597  0.19482  1.0000
  C   C2333     1.0  0.75629  0.49459  0.16512  1.0000
  C   C2334     1.0  0.98552  0.51631  0.15473  1.0000
  H   H4003     1.0  0.76251  0.51686  0.07767  1.0000
  H   H4004     1.0  0.75120  0.50741  0.15571  1.0000
  C   C2335     1.0  0.77573  0.50916  0.07086  1.0000
  H   H4005     1.0  0.78113  0.55471  0.21828  1.0000
  C   C2336     1.0  0.81893  0.57702  0.20739  1.0000
  C   C2337     1.0  0.80347  0.51298  0.04649  1.0000
  C   C2338     1.0  0.81145  0.54623  0.21141  1.0000
  H   H4006     1.0  0.85260  0.65692  0.06348  1.0000
  H   H4007     1.0  0.80111  0.56090  0.17951  1.0000
  H   H4008     1.0  0.80762  0.57854  0.02009  1.0000
  C   C2339     1.0  0.86674  0.49231  0.09504  1.0000
  N   N169      1.0  0.84586  0.61378  0.08893  1.0000
  C   C2340     1.0  0.83448  0.60924  0.10806  1.0000
  C   C2341     1.0  0.86574  0.60705  0.09045  1.0000
  C   C2342     1.0  0.84105  0.60369  0.07684  1.0000
  C   C2343     1.0  0.84109  0.63428  0.08214  1.0000
  C   C2344     1.0  0.81356  0.61231  0.10952  1.0000
  H   H4009     1.0  0.91256  0.49196  0.22878  1.0000
  C   C2345     1.0  0.85537  0.59972  0.05944  1.0000
  C   C2346     1.0  0.85255  0.64242  0.06365  1.0000
  H   H4010     1.0  0.83910  0.59460  0.11451  1.0000
  H   H4011     1.0  0.83630  0.61741  0.11728  1.0000
  H   H4012     1.0  0.87516  0.60819  0.07683  1.0000
  H   H4013     1.0  0.86838  0.59206  0.09665  1.0000
  H   H4014     1.0  0.83846  0.58997  0.08474  1.0000
  H   H4015     1.0  0.82796  0.61109  0.07235  1.0000
  H   H4016     1.0  0.82663  0.63856  0.08030  1.0000
  H   H4017     1.0  0.84126  0.64193  0.09261  1.0000
  H   H4018     1.0  0.80999  0.60339  0.10220  1.0000
  H   H4019     1.0  0.80692  0.60853  0.12422  1.0000
  H   H4020     1.0  0.80737  0.62687  0.10460  1.0000
  H   H4021     1.0  0.86560  0.61472  0.11644  1.0000
  H   H4022     1.0  0.72862  0.52618  0.17547  1.0000
  H   H4023     1.0  0.83095  0.58218  0.22776  1.0000
  H   H4024     1.0  0.86054  0.61193  0.05083  1.0000
  H   H4025     1.0  0.84892  0.59470  0.05078  1.0000
  Fe  Fe330     1.0  0.81129  0.52761  0.98350  1.0000
  C   C2347     1.0  0.89591  0.49286  0.17110  1.0000
  H   H4026     1.0  0.90471  0.50124  0.17322  1.0000
  H   H4027     1.0  0.84575  0.56568  0.21514  1.0000
  H   H4028     1.0  0.89966  0.50259  0.13364  1.0000
  H   H4029     1.0  0.92949  0.49949  0.14658  1.0000
  H   H4030     1.0  0.83563  0.50366  0.06757  1.0000
  S   S659      1.0  0.79942  0.55472  0.99200  1.0000
  H   H4031     1.0  0.75516  0.50746  0.18723  1.0000
  H   H4032     1.0  0.88696  0.48911  0.18475  1.0000
  H   H4033     1.0  0.75982  0.49022  0.06900  1.0000
  H   H4034     1.0  0.98107  0.49496  0.21107  1.0000
  H   H4035     1.0  0.93498  0.48934  0.19820  1.0000
  C   C2348     1.0  0.79304  0.55009  0.22513  1.0000
  H   H4036     1.0  0.76611  0.50510  0.04745  1.0000
  C   C2349     1.0  0.83129  0.57042  0.22164  1.0000
  H   H4037     1.0  0.78172  0.49915  0.08223  1.0000
  H   H4038     1.0  0.93711  0.50773  0.22830  1.0000
  H   H4039     1.0  0.97142  0.52483  0.15621  1.0000
  C   C2350     1.0  0.91217  0.49173  0.13188  1.0000
  H   H4040     1.0  0.78287  0.48612  0.05655  1.0000
  Fe  Fe331     1.0  0.93262  0.79024  0.44874  1.0000
  H   H4041     1.0  0.77465  0.64341  0.44286  1.0000
  Fe  Fe332     1.0  0.89736  0.77570  0.45564  1.0000
  H   H4042     1.0  0.79290  0.56005  0.23338  1.0000
  S   S660      1.0  0.87372  0.77099  0.44616  1.0000
  C   C2351     1.0  0.72560  0.49020  0.31431  1.0000
  C   C2352     1.0  0.80864  0.76504  0.39808  1.0000
  C   C2353     1.0  0.66669  0.81373  0.39806  1.0000
  C   C2354     1.0  0.98639  0.81365  0.45823  1.0000
  S   S661      1.0  0.90347  0.80401  0.44686  1.0000
  S   S662      1.0  0.92712  0.76162  0.45442  1.0000
  Fe  Fe333     1.0  0.82258  0.90688  0.44596  1.0000
  S   S663      1.0  0.80050  0.92497  0.43130  1.0000
  S   S664      1.0  0.84929  0.89086  0.43304  1.0000
  C   C2355     1.0  0.97020  0.81131  0.43570  1.0000
  S   S665      1.0  0.77792  0.93171  0.47244  1.0000
  H   H4043     1.0  0.88498  0.50743  0.26250  1.0000
  Fe  Fe334     1.0  0.78133  0.91127  0.45498  1.0000
  S   S666      1.0  0.75587  0.90191  0.45523  1.0000
  Fe  Fe335     1.0  0.79884  0.94419  0.44974  1.0000
  S   S667      1.0  0.80344  0.89146  0.46787  1.0000
  S   S668      1.0  0.82263  0.92724  0.46225  1.0000
  Fe  Fe336     1.0  0.72622  0.54934  0.25913  1.0000
  S   S669      1.0  0.69724  0.55810  0.27376  1.0000
  S   S670      1.0  0.74930  0.53633  0.27442  1.0000
  H   H4044     1.0  0.66991  0.83944  0.44794  1.0000
  Fe  Fe337     1.0  0.83747  0.56240  0.33046  1.0000
  S   S671      1.0  0.82155  0.59113  0.32344  1.0000
  S   S672      1.0  0.86827  0.55507  0.32293  1.0000
  Fe  Fe338     1.0  0.80337  0.54660  0.34836  1.0000
  S   S673      1.0  0.78477  0.57436  0.34310  1.0000
  S   S674      1.0  0.78940  0.52238  0.36127  1.0000
  Fe  Fe339     1.0  0.80292  0.57794  0.31511  1.0000
  S   S675      1.0  0.79192  0.58954  0.28898  1.0000
  Fe  Fe340     1.0  0.80512  0.58493  0.35217  1.0000
  S   S676      1.0  0.79571  0.60769  0.36860  1.0000
  S   S677      1.0  0.82031  0.54962  0.31974  1.0000
  S   S678      1.0  0.82225  0.55680  0.35986  1.0000
  Fe  Fe341     1.0  0.85494  0.68362  0.43090  1.0000
  S   S679      1.0  0.82815  0.69812  0.44521  1.0000
  S   S680      1.0  0.88116  0.69265  0.42920  1.0000
  Fe  Fe342     1.0  0.83752  0.65480  0.42390  1.0000
  S   S681      1.0  0.80942  0.66724  0.43797  1.0000
  S   S682      1.0  0.84390  0.62792  0.41394  1.0000
  Fe  Fe343     1.0  0.81699  0.69411  0.42264  1.0000
  S   S683      1.0  0.79757  0.71672  0.40824  1.0000
  Fe  Fe344     1.0  0.82343  0.66990  0.45926  1.0000
  C   C2356     1.0  0.68187  0.49372  0.25435  1.0000
  S   S684      1.0  0.84425  0.68169  0.40693  1.0000
  S   S685      1.0  0.85103  0.65541  0.44652  1.0000
  Fe  Fe345     1.0  0.73616  0.82303  0.43008  1.0000
  S   S686      1.0  0.73131  0.80879  0.45956  1.0000
  S   S687      1.0  0.76248  0.83383  0.41999  1.0000
  Fe  Fe346     1.0  0.70084  0.81563  0.42388  1.0000
  S   S688      1.0  0.69343  0.80076  0.45327  1.0000
  C   C2357     1.0  0.88641  0.51497  0.29472  1.0000
  Fe  Fe347     1.0  0.70206  0.82331  0.46080  1.0000
  S   S689      1.0  0.95508  0.50810  0.25674  1.0000
  Fe  Fe348     1.0  0.72344  0.78752  0.44956  1.0000
  S   S690      1.0  0.73491  0.75844  0.46262  1.0000
  S   S691      1.0  0.70736  0.83933  0.43171  1.0000
  S   S692      1.0  0.73042  0.80070  0.41967  1.0000
  C   C2358     1.0  0.77887  0.72665  0.42355  1.0000
  C   C2359     1.0  0.76551  0.74100  0.41662  1.0000
  C   C2360     1.0  0.75156  0.75046  0.42861  1.0000
  C   C2361     1.0  0.75096  0.74558  0.44754  1.0000
  C   C2362     1.0  0.76385  0.73069  0.45453  1.0000
  C   C2363     1.0  0.77783  0.72125  0.44255  1.0000
  H   H4045     1.0  0.76609  0.74500  0.40194  1.0000
  H   H4046     1.0  0.74126  0.76148  0.42319  1.0000
  H   H4047     1.0  0.80074  0.71828  0.47326  1.0000
  H   H4048     1.0  0.78784  0.70990  0.44801  1.0000
  N   N170      1.0  0.93346  0.85382  0.47833  1.0000
  C   C2364     1.0  0.65929  0.86078  0.42682  1.0000
  H   H4049     1.0  0.86746  0.60045  0.26489  1.0000
  H   H4050     1.0  0.76310  0.72663  0.46919  1.0000
  S   S693      1.0  0.68442  0.82305  0.40108  1.0000
  C   C2365     1.0  0.80895  0.61284  0.38170  1.0000
  C   C2366     1.0  0.80472  0.63047  0.38576  1.0000
  C   C2367     1.0  0.81517  0.63526  0.39577  1.0000
  C   C2368     1.0  0.82989  0.62236  0.40195  1.0000
  C   C2369     1.0  0.83384  0.60458  0.39832  1.0000
  C   C2370     1.0  0.82344  0.59983  0.38821  1.0000
  H   H4051     1.0  0.79342  0.64058  0.38091  1.0000
  H   H4052     1.0  0.81194  0.64898  0.39851  1.0000
  H   H4053     1.0  0.84509  0.59447  0.40323  1.0000
  H   H4054     1.0  0.82658  0.58610  0.38550  1.0000
  C   C2371     1.0  0.76290  0.55060  0.27653  1.0000
  C   C2372     1.0  0.76308  0.56806  0.26530  1.0000
  C   C2373     1.0  0.77265  0.57980  0.26868  1.0000
  C   C2374     1.0  0.78161  0.57424  0.28356  1.0000
  C   C2375     1.0  0.78187  0.55659  0.29434  1.0000
  C   C2376     1.0  0.77300  0.54466  0.29049  1.0000
  H   H4055     1.0  0.75570  0.57259  0.25419  1.0000
  H   H4056     1.0  0.77261  0.59341  0.26016  1.0000
  H   H4057     1.0  0.78871  0.55215  0.30584  1.0000
  H   H4058     1.0  0.77363  0.53097  0.29872  1.0000
  H   H4059     1.0  0.66523  0.79353  0.42331  1.0000
  C   C2377     1.0  0.91437  0.86562  0.47936  1.0000
  C   C2378     1.0  0.85086  0.81106  0.47054  1.0000
  S   S694      1.0  0.95353  0.56137  0.24178  1.0000
  C   C2379     1.0  0.87464  0.84527  0.47567  1.0000
  C   C2380     1.0  0.87123  0.55718  0.24530  1.0000
  C   C2381     1.0  0.66029  0.62142  0.25602  1.0000
  Fe  Fe349     1.0  0.69505  0.58176  0.24961  1.0000
  C   C2382     1.0  0.93922  0.49552  0.25643  1.0000
  H   H4060     1.0  0.81649  0.53382  0.27985  1.0000
  C   C2383     1.0  0.93390  0.85288  0.44470  1.0000
  H   H4061     1.0  0.82315  0.74614  0.41915  1.0000
  H   H4062     1.0  0.78470  0.59587  0.47706  1.0000
  C   C2384     1.0  0.97397  0.80583  0.45346  1.0000
  S   S695      1.0  0.79259  0.97518  0.44061  1.0000
  N   N171      1.0  0.79657  0.77977  0.40806  1.0000
  H   H4063     1.0  0.92013  0.86182  0.44435  1.0000
  H   H4064     1.0  0.84793  0.79727  0.47214  1.0000
  C   C2385     1.0  0.81760  0.49776  0.34473  1.0000
  C   C2386     1.0  0.80021  0.50060  0.35610  1.0000
  Fe  Fe350     1.0  0.89941  0.80317  0.47698  1.0000
  H   H4065     1.0  0.97301  0.85225  0.47535  1.0000
  H   H4066     1.0  0.91041  0.69497  0.46661  1.0000
  H   H4067     1.0  0.82477  0.50901  0.33912  1.0000
  H   H4068     1.0  0.77847  0.49707  0.30629  1.0000
  H   H4069     1.0  0.98919  0.80948  0.47197  1.0000
  C   C2387     1.0  0.75819  0.88331  0.44483  1.0000
  C   C2388     1.0  0.77487  0.87605  0.43418  1.0000
  C   C2389     1.0  0.77609  0.86108  0.42619  1.0000
  C   C2390     1.0  0.76084  0.85300  0.42936  1.0000
  C   C2391     1.0  0.74434  0.86018  0.44018  1.0000
  C   C2392     1.0  0.74291  0.87552  0.44753  1.0000
  H   H4070     1.0  0.78661  0.88228  0.43173  1.0000
  H   H4071     1.0  0.78872  0.85590  0.41741  1.0000
  H   H4072     1.0  0.73253  0.85408  0.44279  1.0000
  H   H4073     1.0  0.72991  0.88124  0.45550  1.0000
  H   H4074     1.0  0.84042  0.55009  0.27990  1.0000
  C   C2393     1.0  0.66689  0.50522  0.26333  1.0000
  H   H4075     1.0  0.75205  0.49353  0.29765  1.0000
  C   C2394     1.0  0.87621  0.74954  0.44058  1.0000
  C   C2395     1.0  0.89291  0.73692  0.43980  1.0000
  C   C2396     1.0  0.89439  0.71967  0.43583  1.0000
  C   C2397     1.0  0.87915  0.71485  0.43289  1.0000
  C   C2398     1.0  0.86257  0.72768  0.43321  1.0000
  C   C2399     1.0  0.86109  0.74498  0.43706  1.0000
  H   H4076     1.0  0.90473  0.74051  0.44206  1.0000
  H   H4077     1.0  0.90738  0.70999  0.43505  1.0000
  H   H4078     1.0  0.85096  0.72429  0.43037  1.0000
  H   H4079     1.0  0.84823  0.75481  0.43738  1.0000
  H   H4080     1.0  0.66467  0.64872  0.25322  1.0000
  C   C2400     1.0  0.88354  0.84783  0.45718  1.0000
  C   C2401     1.0  0.87605  0.86227  0.44418  1.0000
  C   C2402     1.0  0.85982  0.87443  0.44972  1.0000
  C   C2403     1.0  0.85169  0.87271  0.46844  1.0000
  H   H4081     1.0  0.66257  0.87119  0.43251  1.0000
  H   H4082     1.0  0.89623  0.83875  0.45284  1.0000
  H   H4083     1.0  0.88265  0.86382  0.42979  1.0000
  H   H4084     1.0  0.83966  0.88256  0.47295  1.0000
  H   H4085     1.0  0.86386  0.50114  0.27221  1.0000
  H   H4086     1.0  0.72978  0.49141  0.23977  1.0000
  H   H4087     1.0  0.84493  0.60681  0.47102  1.0000
  H   H4088     1.0  0.79056  0.79856  0.37146  1.0000
  C   C2404     1.0  0.77483  0.48775  0.31981  1.0000
  H   H4089     1.0  0.94237  0.85580  0.43063  1.0000
  C   C2405     1.0  0.89672  0.56032  0.29380  1.0000
  C   C2406     1.0  0.87812  0.56629  0.30105  1.0000
  H   H4090     1.0  0.90493  0.54911  0.30182  1.0000
  H   H4091     1.0  0.87674  0.55168  0.27200  1.0000
  N   N172      1.0  0.86218  0.61611  0.33816  1.0000
  C   C2407     1.0  0.85103  0.62807  0.32430  1.0000
  C   C2408     1.0  0.88223  0.61455  0.32923  1.0000
  C   C2409     1.0  0.85846  0.62425  0.35496  1.0000
  C   C2410     1.0  0.85689  0.59758  0.34406  1.0000
  C   C2411     1.0  0.83034  0.63440  0.33181  1.0000
  C   C2412     1.0  0.88934  0.60262  0.31448  1.0000
  C   C2413     1.0  0.86249  0.64363  0.35148  1.0000
  C   C2414     1.0  0.86759  0.58300  0.35762  1.0000
  H   H4092     1.0  0.85653  0.64069  0.31720  1.0000
  H   H4093     1.0  0.85204  0.62078  0.31316  1.0000
  H   H4094     1.0  0.89108  0.60920  0.33963  1.0000
  H   H4095     1.0  0.88532  0.62837  0.32240  1.0000
  H   H4096     1.0  0.84398  0.62481  0.36233  1.0000
  H   H4097     1.0  0.86673  0.61532  0.36511  1.0000
  H   H4098     1.0  0.84222  0.59890  0.35103  1.0000
  H   H4099     1.0  0.85760  0.59162  0.33207  1.0000
  H   H4100     1.0  0.82358  0.64208  0.32015  1.0000
  H   H4101     1.0  0.82346  0.62273  0.33869  1.0000
  H   H4102     1.0  0.82767  0.64386  0.34138  1.0000
  H   H4103     1.0  0.88132  0.60725  0.30343  1.0000
  H   H4104     1.0  0.90376  0.60363  0.30787  1.0000
  H   H4105     1.0  0.88940  0.58787  0.32059  1.0000
  H   H4106     1.0  0.85463  0.65381  0.34176  1.0000
  H   H4107     1.0  0.87735  0.64356  0.34652  1.0000
  H   H4108     1.0  0.85831  0.64842  0.36473  1.0000
  H   H4109     1.0  0.86128  0.58424  0.37206  1.0000
  H   H4110     1.0  0.88223  0.58361  0.35501  1.0000
  H   H4111     1.0  0.86750  0.56906  0.35600  1.0000
  N   N173      1.0  0.82994  0.82981  0.44740  1.0000
  C   C2415     1.0  0.83199  0.83559  0.42675  1.0000
  C   C2416     1.0  0.81963  0.81430  0.45356  1.0000
  C   C2417     1.0  0.84901  0.82310  0.45145  1.0000
  C   C2418     1.0  0.81996  0.84635  0.45569  1.0000
  C   C2419     1.0  0.84301  0.85087  0.41722  1.0000
  C   C2420     1.0  0.79957  0.81947  0.45105  1.0000
  C   C2421     1.0  0.91837  0.48937  0.24085  1.0000
  H   H4112     1.0  0.81091  0.58780  0.43465  1.0000
  H   H4113     1.0  0.83864  0.82358  0.42006  1.0000
  H   H4114     1.0  0.81840  0.84086  0.42283  1.0000
  S   S696      1.0  0.66904  0.52451  0.27052  1.0000
  H   H4115     1.0  0.82701  0.80291  0.44618  1.0000
  H   H4116     1.0  0.85806  0.81480  0.44133  1.0000
  H   H4117     1.0  0.85552  0.83490  0.44987  1.0000
  H   H4118     1.0  0.82880  0.85669  0.45219  1.0000
  H   H4119     1.0  0.80797  0.85394  0.44933  1.0000
  H   H4120     1.0  0.84421  0.85323  0.40211  1.0000
  H   H4121     1.0  0.83585  0.86415  0.42127  1.0000
  H   H4122     1.0  0.85718  0.84720  0.41971  1.0000
  C   C2422     1.0  0.78057  0.79010  0.37984  1.0000
  H   H4123     1.0  0.67495  0.62613  0.29484  1.0000
  S   S697      1.0  0.71905  0.53162  0.24398  1.0000
  C   C2423     1.0  0.97880  0.82466  0.42287  1.0000
  H   H4124     1.0  0.69528  0.49709  0.25088  1.0000
  H   H4125     1.0  0.77780  0.48790  0.37252  1.0000
  H   H4126     1.0  0.76915  0.77825  0.40703  1.0000
  H   H4127     1.0  0.66478  0.83202  0.37186  1.0000
  C   C2424     1.0  0.89413  0.58295  0.26551  1.0000
  N   N174      1.0  0.71855  0.59989  0.30001  1.0000
  C   C2425     1.0  0.72995  0.61155  0.28481  1.0000
  C   C2426     1.0  0.71925  0.60372  0.31811  1.0000
  C   C2427     1.0  0.69889  0.60427  0.29791  1.0000
  C   C2428     1.0  0.72633  0.57999  0.29911  1.0000
  C   C2429     1.0  0.72809  0.61249  0.26501  1.0000
  C   C2430     1.0  0.73778  0.59606  0.32436  1.0000
  C   C2431     1.0  0.68890  0.62447  0.29746  1.0000
  H   H4128     1.0  0.72682  0.62597  0.28677  1.0000
  H   H4129     1.0  0.74477  0.60656  0.28514  1.0000
  H   H4130     1.0  0.70839  0.59851  0.32943  1.0000
  H   H4131     1.0  0.71612  0.61880  0.31758  1.0000
  H   H4132     1.0  0.69780  0.60033  0.28531  1.0000
  H   H4133     1.0  0.69057  0.59587  0.30942  1.0000
  H   H4134     1.0  0.79090  0.53709  0.23502  1.0000
  H   H4135     1.0  0.73062  0.59879  0.26165  1.0000
  H   H4136     1.0  0.71447  0.62030  0.26238  1.0000
  H   H4137     1.0  0.73716  0.60102  0.33694  1.0000
  H   H4138     1.0  0.74078  0.58082  0.32804  1.0000
  H   H4139     1.0  0.74938  0.60079  0.31385  1.0000
  H   H4140     1.0  0.80770  0.63318  0.47403  1.0000
  H   H4141     1.0  0.90242  0.67412  0.47557  1.0000
  H   H4142     1.0  0.85855  0.51249  0.29949  1.0000
  H   H4143     1.0  0.72687  0.55261  0.31627  1.0000
  H   H4144     1.0  0.73841  0.61991  0.25515  1.0000
  H   H4145     1.0  0.85323  0.58541  0.29594  1.0000
  C   C2432     1.0  0.85903  0.85807  0.48140  1.0000
  H   H4146     1.0  0.81912  0.80784  0.46826  1.0000
  H   H4147     1.0  0.70508  0.56331  0.30968  1.0000
  H   H4148     1.0  0.74845  0.51891  0.31236  1.0000
  C   C2433     1.0  0.65785  0.84286  0.44134  1.0000
  H   H4149     1.0  0.86539  0.50237  0.24160  1.0000
  H   H4150     1.0  0.94554  0.87114  0.45344  1.0000
  H   H4151     1.0  0.93294  0.83822  0.44749  1.0000
  H   H4152     1.0  0.80280  0.81699  0.38279  1.0000
  C   C2434     1.0  0.86659  0.52321  0.29182  1.0000
  Fe  Fe351     1.0  0.68997  0.54224  0.25661  1.0000
  H   H4153     1.0  0.89091  0.53606  0.25835  1.0000
  H   H4154     1.0  0.74125  0.57627  0.29913  1.0000
  H   H4155     1.0  0.80108  0.97300  0.47733  1.0000
  H   H4156     1.0  0.83509  0.76420  0.40501  1.0000
  H   H4157     1.0  0.84169  0.54497  0.25855  1.0000
  C   C2435     1.0  0.77591  0.78216  0.44025  1.0000
  C   C2436     1.0  0.82535  0.98122  0.44436  1.0000
  C   C2437     1.0  0.87641  0.54318  0.26245  1.0000
  H   H4158     1.0  0.78387  0.77666  0.37558  1.0000
  C   C2438     1.0  0.65931  0.82115  0.38212  1.0000
  H   H4159     1.0  0.90528  0.85895  0.47520  1.0000
  C   C2439     1.0  0.74660  0.51031  0.32646  1.0000
  S   S698      1.0  0.92883  0.79169  0.47812  1.0000
  H   H4160     1.0  0.80074  0.75451  0.39877  1.0000
  C   C2440     1.0  0.77910  0.78747  0.40073  1.0000
  H   H4161     1.0  0.78366  0.64477  0.46151  1.0000
  C   C2441     1.0  0.79156  0.77081  0.42813  1.0000
  H   H4162     1.0  0.76698  0.79730  0.37650  1.0000
  H   H4163     1.0  0.77842  0.79582  0.43978  1.0000
  H   H4164     1.0  0.94612  0.82472  0.48018  1.0000
  C   C2442     1.0  0.81366  0.80551  0.38772  1.0000
  H   H4165     1.0  0.83440  0.74511  0.39609  1.0000
  H   H4166     1.0  0.78741  0.75761  0.42953  1.0000
  H   H4167     1.0  0.88231  0.56509  0.23897  1.0000
  H   H4168     1.0  0.81113  0.76791  0.47032  1.0000
  S   S699      1.0  0.72494  0.57428  0.23640  1.0000
  H   H4169     1.0  0.72040  0.50518  0.30991  1.0000
  C   C2443     1.0  0.79583  0.60021  0.48072  1.0000
  H   H4170     1.0  0.80360  0.76715  0.43481  1.0000
  H   H4171     1.0  0.76862  0.52051  0.33210  1.0000
  H   H4172     1.0  0.79677  0.80560  0.41418  1.0000
  C   C2444     1.0  0.87005  0.51288  0.26338  1.0000
  H   H4173     1.0  0.68714  0.62842  0.31083  1.0000
  H   H4174     1.0  0.75417  0.51002  0.35257  1.0000
  H   H4175     1.0  0.82470  0.62960  0.45428  1.0000
  C   C2445     1.0  0.81502  0.58128  0.44807  1.0000
  H   H4176     1.0  0.81293  0.77040  0.38317  1.0000
  N   N175      1.0  0.86425  0.52947  0.27208  1.0000
  C   C2446     1.0  0.86706  0.51561  0.24368  1.0000
  H   H4177     1.0  0.73150  0.51279  0.33175  1.0000
  H   H4178     1.0  0.87911  0.51973  0.23337  1.0000
  H   H4179     1.0  0.79011  0.61077  0.44477  1.0000
  C   C2447     1.0  0.82733  0.73112  0.47864  1.0000
  H   H4180     1.0  0.83015  0.96648  0.44680  1.0000
  H   H4181     1.0  0.69586  0.63420  0.28626  1.0000
  H   H4182     1.0  0.82996  0.52043  0.29612  1.0000
  H   H4183     1.0  0.76851  0.62905  0.46469  1.0000
  H   H4184     1.0  0.83293  0.74280  0.47931  1.0000
  H   H4185     1.0  0.95469  0.69471  0.47758  1.0000
  H   H4186     1.0  0.86979  0.55065  0.23465  1.0000
  H   H4187     1.0  0.77437  0.77462  0.45477  1.0000
  C   C2448     1.0  0.75444  0.51849  0.33850  1.0000
  C   C2449     1.0  0.79628  0.61997  0.44936  1.0000
  C   C2450     1.0  0.83045  0.52576  0.28120  1.0000
  C   C2451     1.0  0.84289  0.71402  0.48104  1.0000
  H   H4188     1.0  0.89598  0.52440  0.28769  1.0000
  H   H4189     1.0  0.76254  0.78390  0.43645  1.0000
  H   H4190     1.0  0.95725  0.84780  0.45674  1.0000
  H   H4191     1.0  0.74605  0.53234  0.33989  1.0000
  C   C2452     1.0  0.80624  0.79489  0.40699  1.0000
  C   C2453     1.0  0.83190  0.61306  0.47941  1.0000
  H   H4192     1.0  0.97606  0.82888  0.40910  1.0000
  H   H4193     1.0  0.91890  0.56344  0.27030  1.0000
  H   H4194     1.0  0.86119  0.53485  0.29919  1.0000
  H   H4195     1.0  0.81962  0.79681  0.37737  1.0000
  C   C2454     1.0  0.94334  0.85676  0.45843  1.0000
  S   S700      1.0  0.95644  0.80056  0.42829  1.0000
  N   N176      1.0  0.80756  0.60936  0.46359  1.0000
  C   C2455     1.0  0.86759  0.58079  0.29060  1.0000
  H   H4196     1.0  0.78903  0.74840  0.47699  1.0000
  H   H4197     1.0  0.77214  0.80092  0.40464  1.0000
  H   H4198     1.0  0.82519  0.81137  0.38843  1.0000
  C   C2456     1.0  0.81332  0.84309  0.47681  1.0000
  C   C2457     1.0  0.87566  0.58929  0.27297  1.0000
  C   C2458     1.0  0.90464  0.56842  0.27595  1.0000
  S   S701      1.0  0.68551  0.56667  0.23351  1.0000
  H   H4199     1.0  0.83037  0.58599  0.46540  1.0000
  H   H4200     1.0  0.82538  0.73395  0.46421  1.0000
  C   C2459     1.0  0.71680  0.56577  0.31402  1.0000
  H   H4201     1.0  0.71185  0.56975  0.32757  1.0000
  H   H4202     1.0  0.66015  0.83176  0.43379  1.0000
  H   H4203     1.0  0.83313  0.51418  0.27409  1.0000
  H   H4204     1.0  0.88638  0.51237  0.30964  1.0000
  H   H4205     1.0  0.79292  0.80752  0.45766  1.0000
  H   H4206     1.0  0.72557  0.57728  0.28581  1.0000
  C   C2460     1.0  0.65951  0.79960  0.41114  1.0000
  C   C2461     1.0  0.84434  0.53849  0.27248  1.0000
  H   H4207     1.0  0.81759  0.78996  0.41471  1.0000
  C   C2462     1.0  0.82627  0.75476  0.40521  1.0000
  H   H4208     1.0  0.93793  0.68513  0.47327  1.0000
  H   H4209     1.0  0.76972  0.96987  0.47813  1.0000
  H   H4210     1.0  0.84261  0.81770  0.48200  1.0000
  H   H4211     1.0  0.80519  0.62643  0.43677  1.0000
  C   C2463     1.0  0.77997  0.63510  0.45525  1.0000
  C   C2464     1.0  0.93210  0.49843  0.24065  1.0000
  H   H4212     1.0  0.89180  0.50158  0.29039  1.0000
  H   H4213     1.0  0.90712  0.72129  0.47374  1.0000
  H   H4214     1.0  0.96767  0.79530  0.46336  1.0000
  S   S702      1.0  0.68403  0.61169  0.25190  1.0000
  H   H4215     1.0  0.85584  0.71728  0.47191  1.0000
  H   H4216     1.0  0.79979  0.85228  0.48018  1.0000
  H   H4217     1.0  0.85442  0.52552  0.24093  1.0000
  H   H4218     1.0  0.67081  0.85783  0.41517  1.0000
  H   H4219     1.0  0.80352  0.57581  0.45807  1.0000
  H   H4220     1.0  0.79863  0.82280  0.43637  1.0000
  Fe  Fe352     1.0  0.95008  0.53499  0.23702  1.0000
  H   H4221     1.0  0.79133  0.83101  0.45770  1.0000
  H   H4222     1.0  0.92329  0.83034  0.47776  1.0000
  H   H4223     1.0  0.88623  0.69505  0.47445  1.0000
  H   H4224     1.0  0.84041  0.70229  0.47681  1.0000
  H   H4225     1.0  0.87897  0.74136  0.48045  1.0000
  S   S703      1.0  0.90362  0.59278  0.24289  1.0000
  C   C2465     1.0  0.82203  0.59471  0.45524  1.0000
  C   C2466     1.0  0.93981  0.69702  0.47777  1.0000
  H   H4226     1.0  0.91460  0.87900  0.46939  1.0000
  H   H4227     1.0  0.93655  0.71000  0.46778  1.0000
  C   C2467     1.0  0.90011  0.68850  0.47732  1.0000
  C   C2468     1.0  0.81739  0.62220  0.46743  1.0000
  H   H4228     1.0  0.83195  0.60101  0.44358  1.0000
  H   H4229     1.0  0.86534  0.80866  0.47178  1.0000
  H   H4230     1.0  0.98632  0.57696  0.24047  1.0000
  H   H4231     1.0  0.82637  0.56940  0.44547  1.0000
  H   H4232     1.0  0.78091  0.49162  0.32956  1.0000
  H   H4233     1.0  0.98773  0.53896  0.25609  1.0000
  N   N177      1.0  0.75426  0.49023  0.32592  1.0000
  H   H4234     1.0  0.85860  0.56745  0.24908  1.0000
  H   H4235     1.0  0.65706  0.78565  0.28162  1.0000
  H   H4236     1.0  0.82638  0.55963  0.23313  1.0000
  H   H4237     1.0  0.85061  0.66276  0.48255  1.0000
  Fe  Fe353     1.0  0.93068  0.84149  0.56684  1.0000
  S   S704      1.0  0.92846  0.82469  0.59570  1.0000
  S   S705      1.0  0.91759  0.87067  0.55564  1.0000
  Fe  Fe354     1.0  0.95253  0.80889  0.54998  1.0000
  S   S706      1.0  0.95162  0.78928  0.57711  1.0000
  S   S707      1.0  0.96798  0.80078  0.52344  1.0000
  Fe  Fe355     1.0  0.92220  0.80352  0.58380  1.0000
  S   S708      1.0  0.89715  0.79084  0.59619  1.0000
  Fe  Fe356     1.0  0.95831  0.81196  0.58627  1.0000
  H   H4238     1.0  0.84537  0.70970  0.49525  1.0000
  S   S709      1.0  0.92263  0.82116  0.55565  1.0000
  S   S710      1.0  0.96093  0.83065  0.55850  1.0000
  H   H4239     1.0  0.92693  0.75735  0.53993  1.0000
  Fe  Fe357     1.0  0.83044  0.95623  0.56406  1.0000
  S   S711      1.0  0.80204  0.96743  0.57810  1.0000
  S   S712      1.0  0.83879  0.95778  0.53378  1.0000
  Fe  Fe358     1.0  0.84466  0.94138  0.59915  1.0000
  S   S713      1.0  0.81758  0.95212  0.61648  1.0000
  S   S714      1.0  0.86864  0.92227  0.61019  1.0000
  Fe  Fe359     1.0  0.80525  0.94102  0.59905  1.0000
  S   S715      1.0  0.78575  0.92163  0.61317  1.0000
  H   H4240     1.0  0.82782  0.72713  0.52972  1.0000
  H   H4241     1.0  0.70840  0.92157  0.59249  1.0000
  S   S716      1.0  0.83232  0.92897  0.58325  1.0000
  S   S717      1.0  0.84518  0.96792  0.57848  1.0000
  H   H4242     1.0  0.88635  0.68137  0.66738  1.0000
  H   H4243     1.0  0.91085  0.82876  0.50884  1.0000
  S   S718      1.0  0.82403  0.57892  0.71213  1.0000
  H   H4244     1.0  0.86403  0.66283  0.64554  1.0000
  C   C2469     1.0  0.78329  0.71158  0.49979  1.0000
  S   S719      1.0  0.86419  0.54993  0.70801  1.0000
  H   H4245     1.0  0.72011  0.77711  0.56544  1.0000
  Fe  Fe360     1.0  0.85360  0.58068  0.70033  1.0000
  S   S720      1.0  0.86485  0.59574  0.67162  1.0000
  H   H4246     1.0  0.78952  0.85313  0.53671  1.0000
  H   H4247     1.0  0.90466  0.67563  0.53346  1.0000
  S   S721      1.0  0.80114  0.90425  0.51363  1.0000
  Fe  Fe361     1.0  0.83792  0.68735  0.60228  1.0000
  S   S722      1.0  0.84199  0.71580  0.60096  1.0000
  S   S723      1.0  0.82450  0.67215  0.62984  1.0000
  Fe  Fe362     1.0  0.85315  0.68896  0.56140  1.0000
  S   S724      1.0  0.85863  0.71721  0.55689  1.0000
  S   S725      1.0  0.86333  0.67608  0.53635  1.0000
  Fe  Fe363     1.0  0.86922  0.70720  0.58295  1.0000
  S   S726      1.0  0.89654  0.71276  0.58323  1.0000
  Fe  Fe364     1.0  0.83102  0.72352  0.57497  1.0000
  S   S727      1.0  0.81276  0.74967  0.56350  1.0000
  S   S728      1.0  0.86616  0.67817  0.58621  1.0000
  S   S729      1.0  0.82455  0.69594  0.57759  1.0000
  Fe  Fe365     1.0  0.73373  0.86337  0.58562  1.0000
  S   S730      1.0  0.74428  0.88939  0.57129  1.0000
  Fe  Fe366     1.0  0.74194  0.82358  0.60607  1.0000
  S   S731      1.0  0.71453  0.81851  0.60592  1.0000
  S   S732      1.0  0.76376  0.80125  0.61779  1.0000
  Fe  Fe367     1.0  0.71992  0.83336  0.57632  1.0000
  S   S733      1.0  0.72200  0.81786  0.55421  1.0000
  S   S734      1.0  0.74780  0.83712  0.57643  1.0000
  H   H4248     1.0  0.84881  0.51458  0.69806  1.0000
  C   C2470     1.0  0.71165  0.82432  0.53484  1.0000
  C   C2471     1.0  0.82980  0.67310  0.53141  1.0000
  C   C2472     1.0  0.84856  0.67218  0.52419  1.0000
  H   H4249     1.0  0.71362  0.87740  0.51841  1.0000
  H   H4250     1.0  0.82400  0.67597  0.54502  1.0000
  C   C2473     1.0  0.79985  0.76414  0.57866  1.0000
  C   C2474     1.0  0.78588  0.77844  0.57282  1.0000
  C   C2475     1.0  0.77488  0.78991  0.58471  1.0000
  C   C2476     1.0  0.77803  0.78747  0.60241  1.0000
  C   C2477     1.0  0.79222  0.77332  0.60818  1.0000
  C   C2478     1.0  0.80303  0.76157  0.59638  1.0000
  H   H4251     1.0  0.78324  0.78040  0.55919  1.0000
  H   H4252     1.0  0.76367  0.80031  0.58027  1.0000
  H   H4253     1.0  0.79465  0.77126  0.62191  1.0000
  H   H4254     1.0  0.81379  0.75057  0.60100  1.0000
  C   C2479     1.0  0.85275  0.61647  0.66004  1.0000
  C   C2480     1.0  0.85980  0.62322  0.64143  1.0000
  C   C2481     1.0  0.85097  0.63997  0.63186  1.0000
  C   C2482     1.0  0.83511  0.65026  0.64091  1.0000
  C   C2483     1.0  0.82793  0.64342  0.65946  1.0000
  C   C2484     1.0  0.83668  0.62659  0.66900  1.0000
  H   H4255     1.0  0.87215  0.61541  0.63437  1.0000
  H   H4256     1.0  0.85652  0.64496  0.61754  1.0000
  H   H4257     1.0  0.81563  0.65126  0.66656  1.0000
  H   H4258     1.0  0.83111  0.62153  0.68332  1.0000
  H   H4259     1.0  0.97828  0.78108  0.49420  1.0000
  H   H4260     1.0  0.71936  0.86381  0.66268  1.0000
  H   H4261     1.0  0.79767  0.72502  0.52119  1.0000
  C   C2485     1.0  0.77625  0.91186  0.60033  1.0000
  C   C2486     1.0  0.77275  0.92116  0.58300  1.0000
  C   C2487     1.0  0.76325  0.91392  0.57403  1.0000
  C   C2488     1.0  0.75753  0.89723  0.58215  1.0000
  C   C2489     1.0  0.76169  0.88757  0.59914  1.0000
  C   C2490     1.0  0.77083  0.89498  0.60829  1.0000
  H   H4262     1.0  0.77679  0.93422  0.57682  1.0000
  H   H4263     1.0  0.76005  0.92142  0.56089  1.0000
  H   H4264     1.0  0.75758  0.87458  0.60540  1.0000
  H   H4265     1.0  0.77355  0.88772  0.62169  1.0000
  H   H4266     1.0  0.79924  0.49841  0.73117  1.0000
  H   H4267     1.0  0.69921  0.88716  0.62117  1.0000
  S   S735      1.0  0.73023  0.85029  0.61560  1.0000
  C   C2491     1.0  0.71792  0.87831  0.53076  1.0000
  H   H4268     1.0  0.70882  0.76351  0.58551  1.0000
  C   C2492     1.0  0.71909  0.77241  0.58054  1.0000
  C   C2493     1.0  0.80248  0.76569  0.48437  1.0000
  H   H4269     1.0  0.67770  0.91915  0.66755  1.0000
  H   H4270     1.0  0.73892  0.93680  0.62565  1.0000
  H   H4271     1.0  0.75754  0.94792  0.51281  1.0000
  C   C2494     1.0  0.81569  0.93383  0.54186  1.0000
  C   C2495     1.0  0.83004  0.94094  0.52916  1.0000
  C   C2496     1.0  0.83672  0.93526  0.51237  1.0000
  H   H4272     1.0  0.67895  0.81903  0.64806  1.0000
  H   H4273     1.0  0.81034  0.93825  0.55481  1.0000
  H   H4274     1.0  0.91015  0.88105  0.50118  1.0000
  C   C2497     1.0  0.89763  0.76865  0.59336  1.0000
  C   C2498     1.0  0.91331  0.75844  0.58396  1.0000
  C   C2499     1.0  0.91297  0.74109  0.58130  1.0000
  C   C2500     1.0  0.89685  0.73407  0.58762  1.0000
  C   C2501     1.0  0.88122  0.74420  0.59717  1.0000
  C   C2502     1.0  0.88169  0.76135  0.60018  1.0000
  H   H4275     1.0  0.92567  0.76393  0.57867  1.0000
  H   H4276     1.0  0.92511  0.73331  0.57390  1.0000
  H   H4277     1.0  0.86877  0.73886  0.60222  1.0000
  H   H4278     1.0  0.86955  0.76913  0.60759  1.0000
  C   C2503     1.0  0.90386  0.88456  0.57116  1.0000
  C   C2504     1.0  0.89298  0.90133  0.56434  1.0000
  C   C2505     1.0  0.88202  0.91283  0.57628  1.0000
  C   C2506     1.0  0.88211  0.90779  0.59511  1.0000
  C   C2507     1.0  0.89301  0.89101  0.60194  1.0000
  C   C2508     1.0  0.90373  0.87932  0.59002  1.0000
  H   H4279     1.0  0.89305  0.90549  0.54977  1.0000
  H   H4280     1.0  0.87379  0.92581  0.57085  1.0000
  H   H4281     1.0  0.89311  0.88704  0.61649  1.0000
  H   H4282     1.0  0.91212  0.86645  0.59540  1.0000
  C   C2509     1.0  0.90750  0.68849  0.53512  1.0000
  H   H4283     1.0  0.72927  0.75446  0.64324  1.0000
  H   H4284     1.0  0.89846  0.72209  0.63144  1.0000
  H   H4285     1.0  0.75119  0.97589  0.49629  1.0000
  H   H4286     1.0  0.68252  0.90345  0.64438  1.0000
  H   H4287     1.0  0.77311  0.74170  0.57763  1.0000
  H   H4288     1.0  0.69926  0.90365  0.58970  1.0000
  H   H4289     1.0  0.97870  0.73553  0.56056  1.0000
  H   H4290     1.0  0.76277  0.72218  0.59001  1.0000
  C   C2510     1.0  0.94578  0.77564  0.53345  1.0000
  C   C2511     1.0  0.96000  0.78262  0.52037  1.0000
  C   C2512     1.0  0.96732  0.77567  0.50431  1.0000
  H   H4291     1.0  0.94002  0.78103  0.54585  1.0000
  H   H4292     1.0  0.77724  0.60373  0.50678  1.0000
  C   C2513     1.0  0.73818  0.76206  0.58427  1.0000
  H   H4293     1.0  0.67909  0.85615  0.51446  1.0000
  N   N178      1.0  0.75253  0.87455  0.51484  1.0000
  H   H4294     1.0  0.90998  0.70463  0.61884  1.0000
  H   H4295     1.0  0.71357  0.72128  0.60718  1.0000
  S   S736      1.0  0.67737  0.85832  0.63212  1.0000
  N   N179      1.0  0.83775  0.87444  0.57513  1.0000
  C   C2514     1.0  0.82262  0.87386  0.56615  1.0000
  C   C2515     1.0  0.84819  0.88856  0.56246  1.0000
  C   C2516     1.0  0.82869  0.88081  0.59297  1.0000
  C   C2517     1.0  0.84971  0.85547  0.57857  1.0000
  C   C2518     1.0  0.80917  0.86128  0.57747  1.0000
  C   C2519     1.0  0.85602  0.88555  0.54259  1.0000
  C   C2520     1.0  0.84144  0.88250  0.60471  1.0000
  C   C2521     1.0  0.86994  0.85427  0.57916  1.0000
  H   H4296     1.0  0.81422  0.88792  0.56258  1.0000
  H   H4297     1.0  0.82838  0.86910  0.55293  1.0000
  H   H4298     1.0  0.85977  0.88961  0.56797  1.0000
  H   H4299     1.0  0.83921  0.90249  0.56131  1.0000
  H   H4300     1.0  0.81912  0.89436  0.59032  1.0000
  H   H4301     1.0  0.82004  0.87125  0.60230  1.0000
  H   H4302     1.0  0.84363  0.84706  0.59176  1.0000
  H   H4303     1.0  0.85027  0.84786  0.56782  1.0000
  H   H4304     1.0  0.80049  0.86004  0.56847  1.0000
  H   H4305     1.0  0.81633  0.84723  0.58293  1.0000
  H   H4306     1.0  0.79959  0.86732  0.58887  1.0000
  H   H4307     1.0  0.84516  0.89030  0.53432  1.0000
  H   H4308     1.0  0.86662  0.89397  0.53587  1.0000
  H   H4309     1.0  0.86244  0.87102  0.54199  1.0000
  H   H4310     1.0  0.85192  0.89066  0.59696  1.0000
  H   H4311     1.0  0.84803  0.86878  0.61161  1.0000
  H   H4312     1.0  0.83305  0.88975  0.61585  1.0000
  H   H4313     1.0  0.87812  0.85913  0.56543  1.0000
  H   H4314     1.0  0.87643  0.83964  0.58370  1.0000
  H   H4315     1.0  0.87153  0.86190  0.58887  1.0000
  C   C2522     1.0  0.92598  0.82664  0.50532  1.0000
  H   H4316     1.0  0.71298  0.93315  0.61627  1.0000
  H   H4317     1.0  0.72993  0.85408  0.50485  1.0000
  H   H4318     1.0  0.75734  0.95903  0.53121  1.0000
  H   H4319     1.0  0.76666  0.86689  0.48880  1.0000
  C   C2523     1.0  0.81857  0.67003  0.52104  1.0000
  H   H4320     1.0  0.73841  0.92221  0.51053  1.0000
  Fe  Fe368     1.0  0.83490  0.54876  0.72158  1.0000
  H   H4321     1.0  0.73210  0.77750  0.63986  1.0000
  C   C2524     1.0  0.76401  0.97985  0.48746  1.0000
  C   C2525     1.0  0.69194  0.91330  0.64067  1.0000
  H   H4322     1.0  0.72743  0.73472  0.62753  1.0000
  C   C2526     1.0  0.95973  0.76246  0.50084  1.0000
  H   H4323     1.0  0.74461  0.91339  0.63649  1.0000
  C   C2527     1.0  0.72579  0.74113  0.61316  1.0000
  H   H4324     1.0  0.74134  0.78066  0.60650  1.0000
  H   H4325     1.0  0.79599  0.91671  0.54695  1.0000
  H   H4326     1.0  0.90415  0.85872  0.50963  1.0000
  H   H4327     1.0  0.88551  0.49151  0.73118  1.0000
  C   C2528     1.0  0.73811  0.86890  0.53144  1.0000
  N   N180      1.0  0.86844  0.78726  0.54811  1.0000
  C   C2529     1.0  0.88418  0.79727  0.54315  1.0000
  C   C2530     1.0  0.87668  0.76697  0.55122  1.0000
  C   C2531     1.0  0.85623  0.79227  0.56568  1.0000
  C   C2532     1.0  0.85834  0.79345  0.53244  1.0000
  C   C2533     1.0  0.87881  0.81814  0.54283  1.0000
  C   C2534     1.0  0.88789  0.75955  0.53402  1.0000
  C   C2535     1.0  0.84223  0.78017  0.57657  1.0000
  C   C2536     1.0  0.84364  0.78281  0.53287  1.0000
  H   H4328     1.0  0.89368  0.79130  0.55297  1.0000
  H   H4329     1.0  0.89271  0.79575  0.52934  1.0000
  H   H4330     1.0  0.86629  0.75833  0.55762  1.0000
  H   H4331     1.0  0.88585  0.76353  0.56116  1.0000
  H   H4332     1.0  0.86474  0.79208  0.57554  1.0000
  H   H4333     1.0  0.84816  0.80657  0.56288  1.0000
  H   H4334     1.0  0.85129  0.80812  0.53143  1.0000
  H   H4335     1.0  0.86811  0.79338  0.51895  1.0000
  H   H4336     1.0  0.86930  0.82556  0.53346  1.0000
  H   H4337     1.0  0.87300  0.82097  0.55685  1.0000
  H   H4338     1.0  0.89133  0.82403  0.53775  1.0000
  H   H4339     1.0  0.89475  0.74502  0.53839  1.0000
  H   H4340     1.0  0.87890  0.75959  0.52481  1.0000
  H   H4341     1.0  0.89884  0.76715  0.52629  1.0000
  H   H4342     1.0  0.84892  0.76621  0.58281  1.0000
  H   H4343     1.0  0.83277  0.77925  0.56838  1.0000
  H   H4344     1.0  0.83355  0.78644  0.58826  1.0000
  H   H4345     1.0  0.82969  0.79027  0.53825  1.0000
  H   H4346     1.0  0.84561  0.76859  0.54098  1.0000
  H   H4347     1.0  0.84411  0.78147  0.51868  1.0000
  H   H4348     1.0  0.76167  0.84795  0.50692  1.0000
  C   C2537     1.0  0.88209  0.72986  0.49205  1.0000
  H   H4349     1.0  0.75860  0.73460  0.61961  1.0000
  H   H4350     1.0  0.70605  0.86760  0.64579  1.0000
  H   H4351     1.0  0.84541  0.70135  0.65194  1.0000
  H   H4352     1.0  0.98608  0.74769  0.53782  1.0000
  C   C2538     1.0  0.90141  0.70518  0.52029  1.0000
  C   C2539     1.0  0.84983  0.68638  0.65705  1.0000
  C   C2540     1.0  0.98457  0.74768  0.55258  1.0000
  C   C2541     1.0  0.90129  0.70700  0.63230  1.0000
  H   H4353     1.0  0.81612  0.96950  0.50296  1.0000
  H   H4354     1.0  0.83261  0.74097  0.50778  1.0000
  C   C2542     1.0  0.89137  0.67180  0.65761  1.0000
  C   C2543     1.0  0.90424  0.87070  0.49807  1.0000
  H   H4355     1.0  0.85439  0.68396  0.67017  1.0000
  C   C2544     1.0  0.66506  0.84614  0.65239  1.0000
  H   H4356     1.0  0.90903  0.70040  0.64342  1.0000
  H   H4357     1.0  0.77229  0.72411  0.49894  1.0000
  H   H4358     1.0  0.69807  0.87997  0.66436  1.0000
  H   H4359     1.0  0.81011  0.76626  0.49453  1.0000
  H   H4360     1.0  0.87399  0.70719  0.64759  1.0000
  H   H4361     1.0  0.81811  0.70972  0.51533  1.0000
  C   C2545     1.0  0.66839  0.82692  0.65693  1.0000
  H   H4362     1.0  0.83746  0.68033  0.66005  1.0000
  H   H4363     1.0  0.78291  0.72527  0.59522  1.0000
  C   C2546     1.0  0.98506  0.86650  0.53498  1.0000
  H   H4364     1.0  0.73936  0.90490  0.53126  1.0000
  N   N181      1.0  0.77764  0.97887  0.49891  1.0000
  C   C2547     1.0  0.88287  0.70080  0.63604  1.0000
  H   H4365     1.0  0.72539  0.89457  0.65337  1.0000
  C   C2548     1.0  0.69773  0.83992  0.53216  1.0000
  C   C2549     1.0  0.71029  0.87458  0.65447  1.0000
  H   H4366     1.0  0.72809  0.80076  0.52398  1.0000
  C   C2550     1.0  0.80750  0.92167  0.53742  1.0000
  C   C2551     1.0  0.77030  0.87236  0.52091  1.0000
  C   C2552     1.0  0.77932  0.85257  0.52902  1.0000
  H   H4367     1.0  0.93709  0.85928  0.50359  1.0000
  H   H4368     1.0  0.76825  0.88043  0.53171  1.0000
  C   C2553     1.0  0.73946  0.86161  0.49396  1.0000
  H   H4369     1.0  0.68557  0.91823  0.60493  1.0000
  H   H4370     1.0  0.76924  0.84483  0.53872  1.0000
  H   H4371     1.0  0.71130  0.74884  0.61498  1.0000
  H   H4372     1.0  0.74061  0.87152  0.54410  1.0000
  H   H4373     1.0  0.70890  0.87143  0.54281  1.0000
  H   H4374     1.0  0.74769  0.77185  0.57840  1.0000
  C   C2554     1.0  0.69983  0.91129  0.59997  1.0000
  H   H4375     1.0  0.71412  0.78498  0.58643  1.0000
  H   H4376     1.0  0.88581  0.64759  0.62717  1.0000
  H   H4377     1.0  0.78974  0.94993  0.49920  1.0000
  C   C2555     1.0  0.73700  0.76482  0.63407  1.0000
  H   H4378     1.0  0.78690  0.84495  0.51797  1.0000
  H   H4379     1.0  0.97794  0.86108  0.52729  1.0000
  H   H4380     1.0  0.73891  0.85377  0.53430  1.0000
  C   C2556     1.0  0.86464  0.67753  0.64231  1.0000
  C   C2557     1.0  0.74748  0.89435  0.50533  1.0000
  H   H4381     1.0  0.73098  0.72821  0.58888  1.0000
  H   H4382     1.0  0.73712  0.71271  0.60947  1.0000
  H   H4383     1.0  0.74304  0.75164  0.57553  1.0000
  H   H4384     1.0  0.81137  0.74772  0.52349  1.0000
  H   H4385     1.0  0.90660  0.66986  0.65436  1.0000
  C   C2558     1.0  0.73284  0.92475  0.63359  1.0000
  H   H4386     1.0  0.92218  0.68669  0.53544  1.0000
  H   H4387     1.0  0.89799  0.64493  0.67534  1.0000
  S   S737      1.0  0.81757  0.52761  0.72601  1.0000
  C   C2559     1.0  0.72186  0.92004  0.62179  1.0000
  H   H4388     1.0  0.79052  0.77741  0.48461  1.0000
  H   H4389     1.0  0.69278  0.84850  0.54229  1.0000
  H   H4390     1.0  0.87455  0.65541  0.68031  1.0000
  C   C2560     1.0  0.70971  0.81716  0.50631  1.0000
  H   H4391     1.0  0.83375  0.91868  0.49506  1.0000
  C   C2561     1.0  0.81200  0.49564  0.72144  1.0000
  Fe  Fe369     1.0  0.81685  0.97767  0.59403  1.0000
  H   H4392     1.0  0.97446  0.76002  0.55611  1.0000
  C   C2562     1.0  0.88640  0.65321  0.66875  1.0000
  H   H4393     1.0  0.78384  0.74838  0.50084  1.0000
  C   C2563     1.0  0.72093  0.88972  0.64314  1.0000
  C   C2564     1.0  0.72725  0.72497  0.60405  1.0000
  H   H4394     1.0  0.73225  0.91617  0.60962  1.0000
  Fe  Fe370     1.0  0.70304  0.84658  0.61278  1.0000
  C   C2565     1.0  0.82599  0.66642  0.50330  1.0000
  H   H4395     1.0  0.88616  0.70798  0.52367  1.0000
  H   H4396     1.0  0.75179  0.76029  0.63456  1.0000
  H   H4397     1.0  0.79174  0.95778  0.51827  1.0000
  N   N182      1.0  0.88379  0.68030  0.64035  1.0000
  H   H4398     1.0  0.85999  0.68300  0.62898  1.0000
  H   H4399     1.0  0.93160  0.81166  0.50876  1.0000
  C   C2566     1.0  0.82124  0.73596  0.51827  1.0000
  H   H4400     1.0  0.89960  0.69097  0.54887  1.0000
  H   H4401     1.0  0.69221  0.93508  0.65437  1.0000
  C   C2567     1.0  0.89610  0.67284  0.62405  1.0000
  C   C2568     1.0  0.81134  0.72442  0.51177  1.0000
  H   H4402     1.0  0.79689  0.61346  0.50280  1.0000
  H   H4403     1.0  0.93455  0.70757  0.50234  1.0000
  H   H4404     1.0  0.87049  0.66707  0.50106  1.0000
  C   C2569     1.0  0.94504  0.75597  0.51358  1.0000
  H   H4405     1.0  0.70149  0.91230  0.66607  1.0000
  H   H4406     1.0  0.84800  0.94052  0.50264  1.0000
  C   C2570     1.0  0.84478  0.48824  0.69620  1.0000
  C   C2571     1.0  0.75612  0.86249  0.50103  1.0000
  H   H4407     1.0  0.77145  0.93699  0.52920  1.0000
  H   H4408     1.0  0.73393  0.88301  0.63498  1.0000
  C   C2572     1.0  0.93840  0.76218  0.53013  1.0000
  S   S738      1.0  0.85842  0.58663  0.72581  1.0000
  H   H4409     1.0  0.90793  0.67440  0.50332  1.0000
  C   C2573     1.0  0.69593  0.83279  0.50344  1.0000
  C   C2574     1.0  0.76961  0.73266  0.59127  1.0000
  H   H4410     1.0  0.91016  0.67541  0.62168  1.0000
  H   H4411     1.0  0.77848  0.62505  0.49102  1.0000
  H   H4412     1.0  0.72434  0.92837  0.64659  1.0000
  H   H4413     1.0  0.80409  0.67069  0.52668  1.0000
  H   H4414     1.0  0.88370  0.64443  0.66076  1.0000
  C   C2575     1.0  0.83990  0.50474  0.70278  1.0000
  S   S739      1.0  0.98233  0.80199  0.60086  1.0000
  H   H4415     1.0  0.78070  0.87799  0.50924  1.0000
  C   C2576     1.0  0.68989  0.84414  0.51647  1.0000
  C   C2577     1.0  0.71754  0.81299  0.52188  1.0000
  C   C2578     1.0  0.85597  0.66815  0.50665  1.0000
  C   C2579     1.0  0.81347  0.91684  0.52021  1.0000
  H   H4416     1.0  0.90547  0.71721  0.52265  1.0000
  H   H4417     1.0  0.90676  0.64390  0.63569  1.0000
  H   H4418     1.0  0.78418  0.70547  0.51435  1.0000
  C   C2580     1.0  0.69106  0.92041  0.65800  1.0000
  H   H4419     1.0  0.68511  0.92522  0.63140  1.0000
  C   C2581     1.0  0.78670  0.61146  0.49595  1.0000
  N   N183      1.0  0.71069  0.90530  0.63073  1.0000
  H   H4420     1.0  0.73435  0.89726  0.50065  1.0000
  C   C2582     1.0  0.82845  0.92316  0.50794  1.0000
  C   C2583     1.0  0.65793  0.81788  0.67297  1.0000
  H   H4421     1.0  0.76010  0.91076  0.51632  1.0000
  C   C2584     1.0  0.84472  0.66554  0.49616  1.0000
  H   H4422     1.0  0.89089  0.68006  0.61127  1.0000
  C   C2585     1.0  0.70818  0.89741  0.61562  1.0000
  C   C2586     1.0  0.89886  0.65209  0.62505  1.0000
  C   C2587     1.0  0.82368  0.50823  0.71577  1.0000
  H   H4423     1.0  0.72158  0.88993  0.60893  1.0000
  N   N184      1.0  0.80928  0.72984  0.49197  1.0000
  N   N185      1.0  0.73907  0.75379  0.60418  1.0000
  N   N186      1.0  0.90852  0.70309  0.50051  1.0000
  H   H4424     1.0  0.71898  0.77602  0.61510  1.0000
  H   H4425     1.0  0.76680  0.75402  0.60525  1.0000
  C   C2588     1.0  0.92916  0.69786  0.49754  1.0000
  C   C2589     1.0  0.78226  0.95916  0.50902  1.0000
  H   H4426     1.0  0.87645  0.70754  0.62387  1.0000
  C   C2590     1.0  0.79544  0.74765  0.48874  1.0000
  C   C2591     1.0  0.76599  0.95062  0.52118  1.0000
  H   H4427     1.0  0.97639  0.86625  0.54901  1.0000
  H   H4428     1.0  0.71405  0.80797  0.49680  1.0000
  S   S740      1.0  0.70607  0.86111  0.58293  1.0000
  C   C2592     1.0  0.73376  0.76954  0.61420  1.0000
  C   C2593     1.0  0.75843  0.74396  0.60591  1.0000
  H   H4429     1.0  0.98419  0.84052  0.58600  1.0000
  H   H4430     1.0  0.90711  0.64888  0.61169  1.0000
  C   C2594     1.0  0.74622  0.90875  0.51669  1.0000
  H   H4431     1.0  0.71503  0.89293  0.53180  1.0000
  S   S741      1.0  0.93249  0.74364  0.50690  1.0000
  H   H4432     1.0  0.93097  0.83255  0.51433  1.0000
  H   H4433     1.0  0.88968  0.87710  0.49739  1.0000
  H   H4434     1.0  0.88618  0.68944  0.50485  1.0000
  H   H4435     1.0  0.98552  0.88109  0.52877  1.0000
  C   C2595     1.0  0.90066  0.68830  0.49738  1.0000
  H   H4436     1.0  0.87772  0.73564  0.50471  1.0000
  H   H4437     1.0  0.77910  0.70132  0.49463  1.0000
  H   H4438     1.0  0.66055  0.80302  0.67635  1.0000
  H   H4439     1.0  0.85237  0.85648  0.49577  1.0000
  H   H4440     1.0  0.98773  0.78445  0.55167  1.0000
  H   H4441     1.0  0.90989  0.73178  0.49033  1.0000
  H   H4442     1.0  0.75782  0.89745  0.49249  1.0000
  H   H4443     1.0  0.86646  0.49327  0.72197  1.0000
  H   H4444     1.0  0.96464  0.83410  0.49334  1.0000
  H   H4445     1.0  0.93360  0.68403  0.50591  1.0000
  H   H4446     1.0  0.73213  0.87536  0.48798  1.0000
  H   H4447     1.0  0.96928  0.85335  0.49896  1.0000
  H   H4448     1.0  0.94459  0.87474  0.48347  1.0000
  H   H4449     1.0  0.87384  0.71964  0.49314  1.0000
  C   C2596     1.0  0.80201  0.71511  0.48794  1.0000
  S   S742      1.0  0.81161  0.66410  0.48978  1.0000
  S   S743      1.0  0.68587  0.83799  0.48391  1.0000
  S   S744      1.0  0.88259  0.82582  0.49151  1.0000
  H   H4450     1.0  0.81164  0.70170  0.48987  1.0000
  C   C2597     1.0  0.90284  0.72159  0.48855  1.0000
  H   H4451     1.0  0.96463  0.75798  0.48786  1.0000
  H   H4452     1.0  0.82725  0.60242  0.49125  1.0000
  H   H4453     1.0  0.80395  0.58726  0.48757  1.0000
  C   C2598     1.0  0.79521  0.98323  0.48636  1.0000
  H   H4454     1.0  0.82307  0.84646  0.48331  1.0000
  S   S745      1.0  0.89151  0.77573  0.48575  1.0000
  H   H4455     1.0  0.83505  0.62374  0.48487  1.0000
  C   C2599     1.0  0.93270  0.83373  0.48465  1.0000
  H   H4456     1.0  0.81105  0.82912  0.48346  1.0000
  Fe  Fe371     1.0  0.80190  0.91297  0.48327  1.0000
  C   C2600     1.0  0.96384  0.84914  0.48896  1.0000
  Fe  Fe372     1.0  0.92148  0.76417  0.48390  1.0000
  C   C2601     1.0  0.94401  0.85994  0.48895  1.0000
  C   C2602     1.0  0.81043  0.98343  0.49592  1.0000
  H   H4457     1.0  0.74429  0.85358  0.48287  1.0000
  Fe  Fe373     1.0  0.92931  0.57236  0.85238  1.0000
  S   S746      1.0  0.94218  0.59010  0.82667  1.0000
  S   S747      1.0  0.90958  0.58437  0.87556  1.0000
  Fe  Fe374     1.0  0.94627  0.53756  0.83839  1.0000
  S   S748      1.0  0.96017  0.55216  0.81137  1.0000
  S   S749      1.0  0.95250  0.50678  0.84402  1.0000
  Fe  Fe375     1.0  0.96766  0.56800  0.82823  1.0000
  H   H4458     1.0  0.80883  0.50433  0.76699  1.0000
  Fe  Fe376     1.0  0.93375  0.57274  0.81200  1.0000
  S   S750      1.0  0.92090  0.58638  0.78732  1.0000
  S   S751      1.0  0.95558  0.55180  0.85537  1.0000
  S   S752      1.0  0.91897  0.55672  0.83753  1.0000
  H   H4459     1.0  0.91882  0.54767  0.79635  1.0000
  Fe  Fe377     1.0  0.83641  0.54322  0.94878  1.0000
  S   S753      1.0  0.82726  0.57181  0.95431  1.0000
  S   S754      1.0  0.85592  0.53267  0.92460  1.0000
  H   H4460     1.0  0.89815  0.55330  0.92639  1.0000
  C   C2603     1.0  0.69297  0.54067  0.80842  1.0000
  C   C2604     1.0  0.93301  0.49396  0.79243  1.0000
  Fe  Fe378     1.0  0.79882  0.56566  0.96194  1.0000
  S   S755      1.0  0.77541  0.58425  0.94944  1.0000
  H   H4461     1.0  0.98719  0.50162  0.85840  1.0000
  C   C2605     1.0  0.91575  0.50715  0.84854  1.0000
  S   S756      1.0  0.80806  0.53821  0.95432  1.0000
  H   H4462     1.0  0.85568  0.54954  0.83374  1.0000
  Fe  Fe379     1.0  0.73077  0.55240  0.88861  1.0000
  S   S757      1.0  0.73353  0.54144  0.91817  1.0000
  Fe  Fe380     1.0  0.75566  0.56090  0.85118  1.0000
  S   S758      1.0  0.73315  0.56450  0.83627  1.0000
  S   S759      1.0  0.78594  0.55802  0.83940  1.0000
  Fe  Fe381     1.0  0.72569  0.53923  0.85612  1.0000
  S   S760      1.0  0.73875  0.57848  0.87116  1.0000
  S   S761      1.0  0.74943  0.53477  0.86956  1.0000
  C   C2606     1.0  0.79187  0.56950  0.81656  1.0000
  C   C2607     1.0  0.80889  0.56308  0.80594  1.0000
  H   H4463     1.0  0.78729  0.57405  0.90459  1.0000
  C   C2608     1.0  0.78002  0.58497  0.80893  1.0000
  H   H4464     1.0  0.81810  0.55112  0.81182  1.0000
  H   H4465     1.0  0.91302  0.52084  0.85109  1.0000
  H   H4466     1.0  0.76689  0.59005  0.81713  1.0000
  C   C2609     1.0  0.76259  0.57267  0.94178  1.0000
  C   C2610     1.0  0.75363  0.58181  0.92721  1.0000
  C   C2611     1.0  0.74465  0.57238  0.91990  1.0000
  C   C2612     1.0  0.74412  0.55386  0.92745  1.0000
  C   C2613     1.0  0.75240  0.54494  0.94253  1.0000
  C   C2614     1.0  0.76177  0.55424  0.94955  1.0000
  H   H4467     1.0  0.75401  0.59612  0.92128  1.0000
  H   H4468     1.0  0.73789  0.57955  0.90863  1.0000
  H   H4469     1.0  0.75188  0.53069  0.94861  1.0000
  H   H4470     1.0  0.76817  0.54718  0.96112  1.0000
  H   H4471     1.0  0.70193  0.58965  0.81708  1.0000
  S   S762      1.0  0.83833  0.55224  0.74845  1.0000
  C   C2615     1.0  0.96125  0.51311  0.79482  1.0000
  H   H4472     1.0  0.77631  0.60629  0.78487  1.0000
  H   H4473     1.0  0.83960  0.60108  0.78015  1.0000
  C   C2616     1.0  0.91290  0.57294  0.77681  1.0000
  C   C2617     1.0  0.90524  0.58143  0.76125  1.0000
  S   S763      1.0  0.72539  0.51604  0.84298  1.0000
  C   C2618     1.0  0.89389  0.57032  0.88787  1.0000
  C   C2619     1.0  0.87767  0.57765  0.89913  1.0000
  C   C2620     1.0  0.86572  0.56624  0.91018  1.0000
  C   C2621     1.0  0.86987  0.54750  0.90987  1.0000
  C   C2622     1.0  0.88571  0.54031  0.89809  1.0000
  C   C2623     1.0  0.89777  0.55167  0.88719  1.0000
  H   H4474     1.0  0.87448  0.59213  0.89945  1.0000
  H   H4475     1.0  0.85338  0.57195  0.91900  1.0000
  H   H4476     1.0  0.88896  0.52582  0.89776  1.0000
  H   H4477     1.0  0.91033  0.54586  0.87865  1.0000
  H   H4478     1.0  0.82979  0.48932  0.93662  1.0000
  C   C2624     1.0  0.96452  0.49265  0.79396  1.0000
  C   C2625     1.0  0.90557  0.54424  0.77610  1.0000
  H   H4479     1.0  0.88159  0.60101  0.82544  1.0000
  H   H4480     1.0  0.90500  0.59587  0.75550  1.0000
  C   C2626     1.0  0.91837  0.49085  0.78379  1.0000
  C   C2627     1.0  0.83043  0.52437  0.88259  1.0000
  C   C2628     1.0  0.82618  0.60320  0.81505  1.0000
  H   H4481     1.0  0.68777  0.57352  0.84396  1.0000
  H   H4482     1.0  0.87552  0.50205  0.76190  1.0000
  H   H4483     1.0  0.67136  0.59517  0.87936  1.0000
  H   H4484     1.0  0.77960  0.50107  0.76908  1.0000
  C   C2629     1.0  0.77138  0.53154  0.76185  1.0000
  C   C2630     1.0  0.95381  0.48895  0.74900  1.0000
  C   C2631     1.0  0.80561  0.50995  0.77969  1.0000
  H   H4485     1.0  0.81985  0.52235  0.87630  1.0000
  H   H4486     1.0  0.92722  0.58869  0.91120  1.0000
  H   H4487     1.0  0.68095  0.53641  0.80657  1.0000
  H   H4488     1.0  0.79882  0.51444  0.90738  1.0000
  H   H4489     1.0  0.85180  0.58462  0.76647  1.0000
  C   C2632     1.0  0.67519  0.61713  0.85584  1.0000
  H   H4490     1.0  0.78167  0.53352  0.74875  1.0000
  N   N187      1.0  0.85991  0.58475  0.80962  1.0000
  H   H4491     1.0  0.81637  0.60839  0.82686  1.0000
  H   H4492     1.0  0.70164  0.55059  0.82801  1.0000
  H   H4493     1.0  0.93352  0.57236  0.93088  1.0000
  H   H4494     1.0  0.70276  0.59576  0.79297  1.0000
  H   H4495     1.0  0.88735  0.56969  0.81253  1.0000
  C   C2633     1.0  0.69357  0.50357  0.86242  1.0000
  C   C2634     1.0  0.92346  0.57662  0.92178  1.0000
  C   C2635     1.0  0.88827  0.53580  0.95124  1.0000
  C   C2636     1.0  0.71009  0.50072  0.84965  1.0000
  H   H4496     1.0  0.65837  0.62872  0.91568  1.0000
  S   S764      1.0  0.69818  0.60751  0.84680  1.0000
  H   H4497     1.0  0.94834  0.51734  0.80453  1.0000
  H   H4498     1.0  0.66488  0.56948  0.87163  1.0000
  H   H4499     1.0  0.89484  0.58679  0.92174  1.0000
  H   H4500     1.0  0.90479  0.49360  0.79315  1.0000
  H   H4501     1.0  0.87173  0.54469  0.81285  1.0000
  H   H4502     1.0  0.91472  0.54300  0.94028  1.0000
  H   H4503     1.0  0.84160  0.52901  0.87131  1.0000
  S   S765      1.0  0.70597  0.55480  0.87683  1.0000
  S   S766      1.0  0.88828  0.53984  0.75093  1.0000
  H   H4504     1.0  0.87270  0.56994  0.78764  1.0000
  H   H4505     1.0  0.66752  0.58932  0.84034  1.0000
  H   H4506     1.0  0.81273  0.55516  0.86250  1.0000
  H   H4507     1.0  0.82340  0.56831  0.87072  1.0000
  H   H4508     1.0  0.66889  0.54928  0.86265  1.0000
  H   H4509     1.0  0.85268  0.51443  0.76697  1.0000
  H   H4510     1.0  0.77696  0.55330  0.89473  1.0000
  H   H4511     1.0  0.87962  0.54158  0.83350  1.0000
  H   H4512     1.0  0.88717  0.50694  0.85130  1.0000
  S   S767      1.0  0.80870  0.59917  0.75714  1.0000
  C   C2637     1.0  0.91315  0.55426  0.78420  1.0000
  H   H4513     1.0  0.76815  0.51383  0.79805  1.0000
  H   H4514     1.0  0.97249  0.51513  0.80026  1.0000
  H   H4515     1.0  0.92965  0.50887  0.79243  1.0000
  H   H4516     1.0  0.66672  0.65024  0.88786  1.0000
  H   H4517     1.0  0.92489  0.56568  0.91415  1.0000
  C   C2638     1.0  0.76651  0.52895  0.79557  1.0000
  H   H4518     1.0  0.89335  0.52340  0.94504  1.0000
  H   H4519     1.0  0.79126  0.53853  0.88049  1.0000
  H   H4520     1.0  0.69011  0.51516  0.86911  1.0000
  H   H4521     1.0  0.79675  0.55547  0.92035  1.0000
  C   C2639     1.0  0.87590  0.57454  0.95344  1.0000
  H   H4522     1.0  0.85773  0.61314  0.82855  1.0000
  H   H4523     1.0  0.98831  0.51582  0.88223  1.0000
  H   H4524     1.0  0.77459  0.52282  0.91048  1.0000
  H   H4525     1.0  0.75891  0.49211  0.88150  1.0000
  C   C2640     1.0  0.78537  0.59416  0.79071  1.0000
  C   C2641     1.0  0.79543  0.58069  0.86812  1.0000
  C   C2642     1.0  0.89780  0.57136  0.75311  1.0000
  H   H4526     1.0  0.82800  0.50305  0.96290  1.0000
  N   N188      1.0  0.77717  0.53665  0.77699  1.0000
  C   C2643     1.0  0.90112  0.49924  0.84876  1.0000
  H   H4527     1.0  0.81846  0.59812  0.80765  1.0000
  C   C2644     1.0  0.80020  0.56392  0.90640  1.0000
  C   C2645     1.0  0.66497  0.60808  0.87178  1.0000
  H   H4528     1.0  0.79893  0.58663  0.85319  1.0000
  C   C2646     1.0  0.80232  0.58759  0.77996  1.0000
  C   C2647     1.0  0.78781  0.52666  0.90951  1.0000
  H   H4529     1.0  0.80254  0.53737  0.78427  1.0000
  C   C2648     1.0  0.81431  0.57460  0.90723  1.0000
  C   C2649     1.0  0.81400  0.57198  0.78763  1.0000
  H   H4530     1.0  0.88143  0.59912  0.79374  1.0000
  H   H4531     1.0  0.70366  0.52793  0.81048  1.0000
  H   H4532     1.0  0.67129  0.59509  0.80855  1.0000
  H   H4533     1.0  0.76761  0.54770  0.81262  1.0000
  H   H4534     1.0  0.82117  0.53034  0.91023  1.0000
  H   H4535     1.0  0.71287  0.48943  0.89624  1.0000
  C   C2650     1.0  0.85408  0.48931  0.75820  1.0000
  H   H4536     1.0  0.69865  0.54976  0.79568  1.0000
  H   H4537     1.0  0.81848  0.50761  0.78473  1.0000
  C   C2651     1.0  0.82299  0.53810  0.89569  1.0000
  Fe  Fe382     1.0  0.71524  0.57999  0.85792  1.0000
  C   C2652     1.0  0.79761  0.53075  0.77564  1.0000
  N   N189      1.0  0.89630  0.56769  0.94788  1.0000
  H   H4538     1.0  0.95529  0.49870  0.73550  1.0000
  C   C2653     1.0  0.77237  0.55736  0.77444  1.0000
  H   H4539     1.0  0.85481  0.59556  0.96511  1.0000
  C   C2654     1.0  0.67379  0.57440  0.84184  1.0000
  H   H4540     1.0  0.88875  0.53131  0.96598  1.0000
  C   C2655     1.0  0.81978  0.49307  0.96451  1.0000
  H   H4541     1.0  0.75720  0.56235  0.77723  1.0000
  H   H4542     1.0  0.83597  0.51064  0.89041  1.0000
  C   C2656     1.0  0.80775  0.48840  0.98119  1.0000
  C   C2657     1.0  0.90616  0.56506  0.96328  1.0000
  C   C2658     1.0  0.86228  0.50587  0.75748  1.0000
  C   C2659     1.0  0.85900  0.57768  0.79330  1.0000
  C   C2660     1.0  0.66684  0.63414  0.84639  1.0000
  H   H4543     1.0  0.80490  0.53593  0.76155  1.0000
  H   H4544     1.0  0.78604  0.52759  0.81290  1.0000
  H   H4545     1.0  0.67701  0.63920  0.91538  1.0000
  H   H4546     1.0  0.76331  0.52582  0.82511  1.0000
  H   H4547     1.0  0.75151  0.53431  0.79631  1.0000
  C   C2661     1.0  0.77136  0.53288  0.81229  1.0000
  H   H4548     1.0  0.86360  0.60036  0.76944  1.0000
  H   H4549     1.0  0.75925  0.50287  0.89933  1.0000
  H   H4550     1.0  0.83111  0.61543  0.80612  1.0000
  C   C2662     1.0  0.84135  0.58765  0.82226  1.0000
  C   C2663     1.0  0.76180  0.48922  0.89558  1.0000
  H   H4551     1.0  0.78738  0.52986  0.92290  1.0000
  H   H4552     1.0  0.90309  0.59477  0.93717  1.0000
  H   H4553     1.0  0.90619  0.57846  0.96635  1.0000
  H   H4554     1.0  0.74494  0.48806  0.94509  1.0000
  C   C2664     1.0  0.90357  0.58220  0.93225  1.0000
  H   H4555     1.0  0.86924  0.57697  0.94152  1.0000
  C   C2665     1.0  0.86951  0.55052  0.82525  1.0000
  C   C2666     1.0  0.87003  0.59233  0.96110  1.0000
  H   H4556     1.0  0.80770  0.58403  0.91695  1.0000
  C   C2667     1.0  0.81031  0.56361  0.87305  1.0000
  N   N190      1.0  0.95278  0.48793  0.78347  1.0000
  H   H4557     1.0  0.67467  0.64126  0.83407  1.0000
  C   C2668     1.0  0.65919  0.66441  0.88364  1.0000
  C   C2669     1.0  0.93379  0.49710  0.84546  1.0000
  H   H4558     1.0  0.86380  0.51476  0.74352  1.0000
  C   C2670     1.0  0.66381  0.63557  0.92354  1.0000
  H   H4559     1.0  0.76573  0.50967  0.75225  1.0000
  H   H4560     1.0  0.82718  0.56702  0.77963  1.0000
  C   C2671     1.0  0.79024  0.54319  0.89337  1.0000
  H   H4561     1.0  0.66186  0.67819  0.90367  1.0000
  H   H4562     1.0  0.81925  0.58317  0.89379  1.0000
  H   H4563     1.0  0.82606  0.56520  0.91276  1.0000
  H   H4564     1.0  0.75833  0.54085  0.75883  1.0000
  H   H4565     1.0  0.83451  0.54495  0.89435  1.0000
  H   H4566     1.0  0.87525  0.62324  0.81199  1.0000
  H   H4567     1.0  0.87529  0.59066  0.97371  1.0000
  C   C2672     1.0  0.78004  0.56824  0.75529  1.0000
  H   H4568     1.0  0.77746  0.56200  0.78442  1.0000
  H   H4569     1.0  0.65750  0.55959  0.81126  1.0000
  N   N191      1.0  0.80598  0.55216  0.89211  1.0000
  C   C2673     1.0  0.90012  0.55015  0.94082  1.0000
  H   H4570     1.0  0.78174  0.57722  0.87079  1.0000
  H   H4571     1.0  0.79461  0.59154  0.87561  1.0000
  C   C2674     1.0  0.73066  0.49012  0.91437  1.0000
  C   C2675     1.0  0.87061  0.61006  0.81840  1.0000
  C   C2676     1.0  0.70025  0.58477  0.80536  1.0000
  H   H4572     1.0  0.90508  0.53005  0.78220  1.0000
  C   C2677     1.0  0.68072  0.58146  0.80809  1.0000
  H   H4573     1.0  0.77535  0.58319  0.75520  1.0000
  H   H4574     1.0  0.85950  0.61312  0.79468  1.0000
  H   H4575     1.0  0.79523  0.56562  0.75212  1.0000
  C   C2678     1.0  0.89792  0.55273  0.76053  1.0000
  H   H4576     1.0  0.86911  0.56424  0.96401  1.0000
  H   H4577     1.0  0.79674  0.50194  0.79075  1.0000
  C   C2679     1.0  0.85306  0.59200  0.77663  1.0000
  C   C2680     1.0  0.86785  0.60189  0.80316  1.0000
  H   H4578     1.0  0.92099  0.55922  0.95897  1.0000
  H   H4579     1.0  0.83560  0.57499  0.82593  1.0000
  H   H4580     1.0  0.87408  0.60432  0.95070  1.0000
  H   H4581     1.0  0.84979  0.56763  0.79752  1.0000
  H   H4582     1.0  0.87263  0.57394  0.83353  1.0000
  C   C2681     1.0  0.87291  0.57035  0.82029  1.0000
  H   H4583     1.0  0.84235  0.58962  0.83582  1.0000
  H   H4584     1.0  0.93048  0.48699  0.80712  1.0000
  H   H4585     1.0  0.71096  0.57239  0.80306  1.0000
  Fe  Fe383     1.0  0.82971  0.58230  0.73824  1.0000
  N   N192      1.0  0.67486  0.56740  0.82485  1.0000
  H   H4586     1.0  0.75526  0.51008  0.77572  1.0000
  H   H4587     1.0  0.96123  0.52239  0.78114  1.0000
  H   H4588     1.0  0.68345  0.53879  0.83737  1.0000
  H   H4589     1.0  0.98826  0.51667  0.82851  1.0000
  C   C2682     1.0  0.71976  0.49926  0.89891  1.0000
  H   H4590     1.0  0.67961  0.57785  0.79532  1.0000
  H   H4591     1.0  0.87384  0.54096  0.94964  1.0000
  C   C2683     1.0  0.68134  0.49154  0.86626  1.0000
  S   S768      1.0  0.84045  0.53025  0.97746  1.0000
  H   H4592     1.0  0.66912  0.67209  0.87344  1.0000
  H   H4593     1.0  0.66846  0.49394  0.87593  1.0000
  H   H4594     1.0  0.78836  0.48794  0.90223  1.0000
  C   C2684     1.0  0.76793  0.51191  0.76521  1.0000
  H   H4595     1.0  0.72841  0.50510  0.88593  1.0000
  H   H4596     1.0  0.66659  0.62489  0.93589  1.0000
  H   H4597     1.0  0.70877  0.51074  0.90333  1.0000
  H   H4598     1.0  0.94819  0.51215  0.76197  1.0000
  Fe  Fe384     1.0  0.86672  0.55596  0.73433  1.0000
  H   H4599     1.0  0.73234  0.50159  0.91980  1.0000
  C   C2685     1.0  0.68844  0.54932  0.82552  1.0000
  C   C2686     1.0  0.66337  0.56429  0.85998  1.0000
  H   H4600     1.0  0.97934  0.48877  0.78781  1.0000
  H   H4601     1.0  0.76594  0.49201  0.92911  1.0000
  H   H4602     1.0  0.97115  0.49984  0.75930  1.0000
  C   C2687     1.0  0.95669  0.49793  0.76364  1.0000
  H   H4603     1.0  0.84148  0.49545  0.75235  1.0000
  H   H4604     1.0  0.77509  0.56558  0.74406  1.0000
  H   H4605     1.0  0.91727  0.50072  0.77056  1.0000
  H   H4606     1.0  0.89207  0.57800  0.74103  1.0000
  H   H4607     1.0  0.65895  0.66040  0.93299  1.0000
  C   C2688     1.0  0.89959  0.55235  0.98163  1.0000
  H   H4608     1.0  0.90725  0.53796  0.98188  1.0000
