data_image0
_chemical_formula_structural       S2FeS2FeS2FeSFeS3HC2H2C2H3C6H4C6H4C6H3CH2CH4CH4SH2CH2C2SH8CH2NC2HCH2FeCH6CH6CH4C2NH2CHC3H2CH4CFeH4CHFeH3CH16SCHCHNC4HC3H8CNHCH2CHC2H2NC6H5SCH2CH12C2H2CH2SCH3FeCSH4SFeS2HSFeSFeS3FeS2FeS2FeSH2SCFe2S2FeSFeS3FeS2FeS2FeSFeS3C3H2C6H4CHC6H4NSC6H4C6H6C7H5C3FeHC4H7CH5CSH2NC5H10C2NHC3HFeCHCHC2H2C2H2NCHC3HCH4CHC2NH3CSHNH2CH2FeH3SHSHNC5HC2H11CH8NC5HCH8CHCHC2H8CH2C2H2CHCHCH3CHNC8H28C2H4CH2CH2C2H3C4H8CH2CSH2CH6C3H9CH2Fe2NS3FeS2FeS2FeSFeS4HSHC6H4C6HCH2C2H2CH6CH2CHC6H4CH3SH4CHCFeCH6SH2C2H2CH2CFeCSH5CSCH3FeHCFeCH4SHCHCHCH10FeH3CHNC6HCNH7CHCH6CH3CH2C3SC2H4CH7CH2SHCH3SC5H12CSC2H5C3NC2HCH3C2HCH9CNCH4CNCHCHCH7CHCH5C3NH4CH8CH3C3H4SFeHSFeCSFeC2HSC3H5C6H4C6H5CSH3SH2CH2C3H2NC2NCH3C2H9CHCH2CH2CHCHCH3C3H2SH2CHSHS2Fe2S2FeS2FeSFeS3FeS2FeS2FeSFeS3HCH2C2SHFeH2FeSFeHSHSFeS2FeSHFeSFeS3FeS2FeS2FeCFeS3H3C7H4C5H3C5H6CHCHCH2SHCH3C6H4C6H4CH3SH3CHC6H4C2H2SH2CH2C2H2C2H4C6H5CHNCH2SH2CH3CHCHC2H2NH3CH3CNC2HC3HCH3CH6CH2C2H2CH2CH2CHCH2CH2CH3SHCH3C2H3NHCHCH6C2SCH2CNHCH2NC8H25CH6CHSH2CH2CH2CH2C3HC2HC2H4CHC3HCNH5CH3C3H5CH2CHCH2C2H3CH4CNH2CH4NH2C3H3CH2CHCH2CHCHCHC2H2NH4C2H4FeS2FeS2FeS2FeSHNS3HCHC6H4C6H4C6H4SHC2H2CH2CH4Fe2HCH7NCH2C2HS2HCH4FeHC2SC2HCHCH5FeCSHC2H2C2H5FeH5CHC2H3CHSH3C2H2C3H4NH7NH2CHCHCHCH2SFeSHCH2FeSFeS2FeSFeS3FeSNFeS2FeSFeS3FeS3FeHFeHSHFeS2FeHCFeS3H2C2H4CHC6H3CH2CHC6H4CHCHC2SCH2C6H4C3HC2HCH2C6H5CHSH4CHCH2CH8SH4C2HCH5NHCHCH5CNH2CHCHCH2C2H4CHCH2CSNH9CHCHCHCH4CH2CFeCH6CHC3HCH2CH2C2H2CHCH5CH3C3NCH4FeHSH4CH5CH7SH4CHC2H6FeNHFeS2FeSHSHFeS2FeS2HFeSCSHC4H3SC3HCH3C5HCH2C5H3CH3C2H2C2H4CHC2HCHC2HCHFeSH2CNH2SHC3HNHC2H2SCHCH10FeCH2CHNC3H2FeS2HSHFeSFeS3FeSHFeS2FeSFeS3FeS2FeS2FeSFeCS2C2SCH9CH3CH3C6H4C6H4C6H4C6HSH8SH3CHSCH4C2H2C2HCNH6CH2NH4C2H3CH4CH4CHC3H3CHCH3NC2FeCH2CHCHC2H2CH2C2HFeHNC8H20C2H4CHCHCHNH2CHCHCHCHCHCH2SH4NC3H2C2H2FeS2FeS2FeSFeHS2FeS2FeSHFeSFeS3HFeSHCSFeSFeS2H2SFeS2Fe2CSH2C2HCSHC6H4C6H4CH2NSH2C2HC3H4C6H4C3HCHC2SC6H5CHNHCHCH3CHCNHCH5CHCHCH4SH5SFeNH2CHNHCHSH3CH3NHC3H2CH3C2H4CH5NC8H8C2H10CH4C2HCH2CH5CH7NC8H14CH5CFeH7CH6SC2HC2HC2H3SCH2C2H2CH2CSCHCSFeS2FeS2FeSFeS3FeSHFeS2FeS2C2HCH5C6H4C2HC6H7C3SH5C4H3CH3SH2C2H3CH2CHNHCHC2NC2H2NC6H4CH10C2H6C4HCSHC2SCHNC4HC3H19CHCHCH5CH3FeH6CH6NH2C2H2C2HCH2CH2CH2CHCH2CH6C2H4C2NHCH2CH3CH4C2H2CH4FeSHFeS2FeSFeS3FeS2FeSNFeSFeS3FeSHFeS2FeSHSFe2CSHC3HCHSHSH2CH4CHCH4C6H4C6H5SC7H4C2HCHCHCH2C3H6CHC3H3C2H6CHSCH3SHCHCH3CH3CH3C3H2CH2CH4C2H3C3H2C2H2CH3CH2SCH2CH2CH9NH9SC2HN2CH3C3HCHNH2CH3CH4CH2C2H3CHCH2CH2CH3C2H3FeCH2CH2CH4CH2CH2CNH10FeS2FeS2FeSFeS3FeS2FeS2FeSFeS3CFeS2HCFeHS2H2CSHC5H2CH3C2H4C4HCH2NHC6H4C3H2C6H4CH2C3H4C6H7NCHC2H2CH3CH4CH4CNCHNCHCH4CHCHCH10CHCNH6CNH3CH2CHC2H2CHC4H4CH3C2H2NC2HCH6CNC2H3CHCH5C2H2C2H10CH3CH3CH3CH2CHC3HCH2CHC3H5CH2CNH3SH3CHCSC2H2FeH5CH2CHC3HCFeH2C2HSH2C2H6SHCH4SC3HSHFeS2FeSCFeSCHSCFeS2FeCHFeSHCS2H6C5H5CHCH2C3HCHCSC2SCHCHCH2CH4CHCH3NH2CH2FeCH4CH4CHCH2CHCH5NSFeSHFeS2FeSFeS4CFeS2FeSHFeSFeS3FeS2FeS2FeHFeS3H3C2HNHCHC6H4C3HC2HC2HCH4C6H5SC6H4C3H6C2H3CH7C2HCH2CH5CH2CH2CH4CHC2H2CHNHNH2C2HSHC2HCHCH2C3H7CHCH2FeH7CH6NC6H6CH3FeCH3CH5CH3CH3NC3HCH3SH5CHSH3CH4CHCFeH2CHCH3C2HCH2CH2C2H3CH4FeS2FeS2FeSFeS3CFeS2FeS2FeSFeS3C2SHFeS2FeSFeSFeS3CHC3H2CH2C6H4CH3C6H5C4H4C2H2C6H6C3H3C5HC6H4CSHNC4NH2C2H12CHC2H4C3HC2NCH2CH2CHNC8H22CHNH2C2H7C3H2CH4CH2NC7H12CH5CH2NCHC3SCH3CH2CH8CHCHC4HC2H2CH2SH2CHCH2C3HC2H3NHC3HNC2H12C2H11CH4CHCHNSH11C2H2C3H14CH3CH4C2H3C2H2CNH3CH5C2HNFeS2FeSFeSFeS3FeS2FeS2FeSFeS3H3C6H4C3H2CH4C6H5C2H2C2H6NH4CH3CH7SCSH3C2H3CH5C2H4CH4CH3CNH3CSCHCH9CH8CHCHC2H3C4HCHCHNC2HCH2C7H3NHCH2CH6C2H2CSCFeHCH8FeS2FeS2FeSFeS3CSHFeS2FeS2FeSFeHS2FeS2FeHFeSFeS3H2CH3CHCH2CHCHC6H4C6H4C6H4C2HCHCHC2H4C5H2NC8H11CH5CH3CH4CFeCHNH2CH4C2H6C2H3CH5CH4SHC2HCHNH4NHCH2C3H3C2SH2CH2C2HCHC2H2CH4CH5CH2C3HCHNCHSC2H8C2H3CH5CHCSH3C2H3NCH2CH2CH7SHSHFeSFeSFeCSFeS2FeS2FeSFeS3C6H4C7H4C6H4SCHSHC3HCHCH3NC8H22FeH2C2HSH12C2HCH3CNC4H2CH3CH4CHCHNFeCH8CH4NC6H13SH2NC6HCH6CH4CHCHFeH4SH4C2HSHCH2C2SHC2H3FeHSFeS2FeHCSCH3FeS2FeHFeS3FeS2FeS2FeHFeS3FeSCFeS2FeSFeS2FeS2FeS2FeSFeS3HCHCH2CHCH2C6H4C6H4C6H4C6H5CFeHCHC2H5C6H4CH2CH3CHNHC2H5CH2SHNC8H10CH13CSH2CH4CH2C2H2CH2CH2CH4NH4CHCH7CHCH3CS2CH2C2HC3HCSHCH3CHCH2C3HNSHC2H2CHNCH4NSNHC3H2C2HCH5CHCHC2H6CH3C2H3CHC2H2C4HCHCSH2SHCH4C2H6C2HCH2CH4CH2CHSCHSHCH2NH3CH5SHCHCHFeSHFeS3HFe2HS2FeS2FeS2FeSFeS3H2C6H7C7H5CH2NHC6H4CHSCH3NC8H20NC8H20NC8H9CFeH3FeH8SC2H3SHC2H2NHC2H3C5HSH4C2H2CH7CHCH2C2H2CH2CH4CH2C2HCH9CHSCHCH2SFeSHFeSCFeS2FeSCHCFeSHS2HSCH2C7HCH4NC6H4FeC4HSH2CHC3SFeC2H2SH5CH7CHCSH3NH2CH4SH3C2H2CH4CH2FeS2FeSCFeSFeS3FeS2FeS2FeSFeS3H3CH2CH2SFeS2FeS2FeSFeS3FeS2FeS2FeSFeS3C6HCH2C6H4C3SHNC3H2C3HC2H4CH3CHNH6C6H4C6H4C6H4C6HCH2C6H6NC8H23CFeCH3FeCH2CH3CHCH3C2H4CH3CHCH4C2HC2H5SH3C4H4CH6C2HNHCH2CH4CH3CH3C2H4NH3SHCH2CHCH2NCHCNC3H4C2H6CHCH2CH4CH2CHCSH3CH2C2H2CH3CHC2HCNH2CHCH9CHCHCH3SHNHCHCHSC2H4CHCNH3NH4FeH2C2HCH5CH2CH4CH4CH6CH2C5H2C2H7CHFeH2SH3CH4SH2FeSCHCH2SHFeSCSFeHSFeS2FeSH2S2C6H4C6H3C5H5NHCFeHCHNCHCH8CHCH2SH4SH4CFeCHCH3FeCH2S2CH5FeC2NHCHFeC2
_chemical_formula_sum              "S576 Fe288 H3456 C2016 N144"
_cell_length_a       73.7708
_cell_length_b       72.7504
_cell_length_c       72.9744
_cell_angle_alpha    81.2197
_cell_angle_beta     81.2391
_cell_angle_gamma    81.3541

_space_group_name_H-M_alt    "P 1"
_space_group_IT_number       1

loop_
  _space_group_symop_operation_xyz
  'x, y, z'

loop_
  _atom_site_type_symbol
  _atom_site_label
  _atom_site_symmetry_multiplicity
  _atom_site_fract_x
  _atom_site_fract_y
  _atom_site_fract_z
  _atom_site_occupancy
  S   S1        1.0  0.11979  0.37462  0.28038  1.0000
  S   S2        1.0  0.22480  0.35823  0.11647  1.0000
  Fe  Fe1       1.0  0.11203  0.36576  0.14882  1.0000
  S   S3        1.0  0.10747  0.37715  0.17637  1.0000
  S   S4        1.0  0.13598  0.37211  0.12557  1.0000
  Fe  Fe2       1.0  0.07261  0.35296  0.15599  1.0000
  S   S5        1.0  0.06577  0.36303  0.18400  1.0000
  S   S6        1.0  0.05129  0.34316  0.14151  1.0000
  Fe  Fe3       1.0  0.07870  0.38819  0.16987  1.0000
  S   S7        1.0  0.06387  0.41701  0.17306  1.0000
  Fe  Fe4       1.0  0.09497  0.35086  0.18811  1.0000
  S   S8        1.0  0.10018  0.33423  0.21605  1.0000
  S   S9        1.0  0.08394  0.37915  0.14152  1.0000
  S   S10       1.0  0.10112  0.33841  0.16091  1.0000
  H   H1        1.0  0.19822  0.37418  0.09008  1.0000
  C   C1        1.0  0.02833  0.33902  0.15060  1.0000
  C   C2        1.0  0.01720  0.33477  0.13826  1.0000
  H   H2        1.0  0.14462  0.41056  0.12087  1.0000
  H   H3        1.0  0.17846  0.42712  0.12843  1.0000
  C   C3        1.0  0.05306  0.36165  0.23622  1.0000
  C   C4        1.0  0.02081  0.34006  0.16933  1.0000
  H   H4        1.0  0.02290  0.33377  0.12382  1.0000
  H   H5        1.0  0.17086  0.33272  0.99809  1.0000
  H   H6        1.0  0.02931  0.34315  0.17901  1.0000
  C   C5        1.0  0.10578  0.34581  0.23360  1.0000
  C   C6        1.0  0.10874  0.33548  0.25100  1.0000
  C   C7        1.0  0.11229  0.34441  0.26561  1.0000
  C   C8        1.0  0.11349  0.36367  0.26275  1.0000
  C   C9        1.0  0.11072  0.37400  0.24530  1.0000
  C   C10       1.0  0.10664  0.36515  0.23084  1.0000
  H   H7        1.0  0.10813  0.32052  0.25323  1.0000
  H   H8        1.0  0.11466  0.33629  0.27894  1.0000
  H   H9        1.0  0.11174  0.38886  0.24293  1.0000
  H   H10       1.0  0.10437  0.37325  0.21752  1.0000
  C   C11       1.0  0.10439  0.44331  0.19841  1.0000
  C   C12       1.0  0.09360  0.45429  0.18558  1.0000
  C   C13       1.0  0.08049  0.44643  0.17831  1.0000
  C   C14       1.0  0.07808  0.42764  0.18406  1.0000
  C   C15       1.0  0.08823  0.41691  0.19754  1.0000
  C   C16       1.0  0.10145  0.42473  0.20467  1.0000
  H   H11       1.0  0.01009  0.40578  0.31659  1.0000
  H   H12       1.0  0.07287  0.45466  0.16765  1.0000
  H   H13       1.0  0.08618  0.40244  0.20218  1.0000
  H   H14       1.0  0.10973  0.41620  0.21463  1.0000
  C   C17       1.0  0.20010  0.36202  0.11862  1.0000
  C   C18       1.0  0.18976  0.35686  0.13607  1.0000
  C   C19       1.0  0.17019  0.35958  0.13846  1.0000
  C   C20       1.0  0.16065  0.36762  0.12340  1.0000
  C   C21       1.0  0.17099  0.37292  0.10601  1.0000
  C   C22       1.0  0.19055  0.37012  0.10359  1.0000
  H   H15       1.0  0.19694  0.35057  0.14781  1.0000
  H   H16       1.0  0.16251  0.35540  0.15193  1.0000
  H   H17       1.0  0.16381  0.37916  0.09425  1.0000
  C   C23       1.0  0.99656  0.46215  0.20315  1.0000
  H   H18       1.0  0.12116  0.47934  0.26038  1.0000
  H   H19       1.0  0.02417  0.41759  0.18817  1.0000
  C   C24       1.0  0.23422  0.47687  0.09534  1.0000
  H   H20       1.0  0.13004  0.41470  0.32004  1.0000
  H   H21       1.0  0.09391  0.46784  0.25989  1.0000
  H   H22       1.0  0.03726  0.41387  0.32195  1.0000
  H   H23       1.0  0.23041  0.43711  0.11078  1.0000
  C   C25       1.0  0.02811  0.39242  0.14899  1.0000
  H   H24       1.0  0.05118  0.47547  0.19165  1.0000
  H   H25       1.0  0.02232  0.39644  0.12032  1.0000
  H   H26       1.0  0.13547  0.43740  0.30990  1.0000
  H   H27       1.0  0.04067  0.32916  0.28902  1.0000
  S   S11       1.0  0.03322  0.37035  0.30607  1.0000
  H   H28       1.0  0.05395  0.45681  0.21100  1.0000
  H   H29       1.0  0.23298  0.48133  0.15309  1.0000
  C   C26       1.0  0.02071  0.35520  0.32231  1.0000
  H   H30       1.0  0.05520  0.35900  0.27359  1.0000
  H   H31       1.0  0.02367  0.40519  0.15581  1.0000
  C   C27       1.0  0.01307  0.45613  0.16543  1.0000
  C   C28       1.0  0.00241  0.33644  0.17561  1.0000
  S   S12       1.0  0.12250  0.45214  0.20559  1.0000
  H   H32       1.0  0.11161  0.43321  0.31704  1.0000
  H   H33       1.0  0.14395  0.47073  0.25005  1.0000
  H   H34       1.0  0.06741  0.35745  0.22964  1.0000
  H   H35       1.0  0.13334  0.41406  0.23664  1.0000
  H   H36       1.0  0.11484  0.41891  0.16344  1.0000
  H   H37       1.0  0.22151  0.48648  0.09235  1.0000
  H   H38       1.0  0.04237  0.39396  0.14198  1.0000
  H   H39       1.0  0.15873  0.45542  0.16659  1.0000
  C   C29       1.0  0.17120  0.41760  0.12260  1.0000
  H   H40       1.0  0.17085  0.43423  0.15998  1.0000
  H   H41       1.0  0.11444  0.43206  0.12127  1.0000
  N   N1        1.0  0.01735  0.45764  0.20001  1.0000
  C   C30       1.0  0.02512  0.47067  0.21019  1.0000
  C   C31       1.0  0.22427  0.44008  0.01432  1.0000
  H   H42       1.0  0.06686  0.47520  0.31814  1.0000
  C   C32       1.0  0.02402  0.43776  0.20778  1.0000
  H   H43       1.0  0.00354  0.35028  0.30267  1.0000
  H   H44       1.0  0.19365  0.33912  0.99421  1.0000
  Fe  Fe5       1.0  0.09945  0.37417  0.30681  1.0000
  C   C33       1.0  0.05548  0.32983  0.28364  1.0000
  H   H45       1.0  0.02842  0.43606  0.30976  1.0000
  H   H46       1.0  0.02167  0.46734  0.22560  1.0000
  H   H47       1.0  0.14175  0.40631  0.25844  1.0000
  H   H48       1.0  0.16659  0.40606  0.15755  1.0000
  H   H49       1.0  0.08194  0.44754  0.26164  1.0000
  H   H50       1.0  0.14599  0.42902  0.24540  1.0000
  C   C34       1.0  0.00124  0.43101  0.12613  1.0000
  H   H51       1.0  0.02217  0.43571  0.22335  1.0000
  H   H52       1.0  0.03926  0.43469  0.20411  1.0000
  H   H53       1.0  0.23405  0.46405  0.08889  1.0000
  H   H54       1.0  0.99989  0.46573  0.16471  1.0000
  H   H55       1.0  0.03883  0.45455  0.17635  1.0000
  H   H56       1.0  0.06223  0.33251  0.29540  1.0000
  C   C35       1.0  0.01337  0.36003  0.24514  1.0000
  H   H57       1.0  0.01878  0.48542  0.20662  1.0000
  H   H58       1.0  0.05015  0.48084  0.21474  1.0000
  H   H59       1.0  0.02784  0.32439  0.23070  1.0000
  H   H60       1.0  0.20860  0.39038  0.00582  1.0000
  C   C36       1.0  0.02441  0.46155  0.17942  1.0000
  C   C37       1.0  0.05824  0.34574  0.26725  1.0000
  N   N2        1.0  0.04699  0.34646  0.25145  1.0000
  H   H61       1.0  0.05355  0.39187  0.22992  1.0000
  H   H62       1.0  0.99687  0.33651  0.19021  1.0000
  C   C38       1.0  0.05169  0.32777  0.24411  1.0000
  H   H63       1.0  0.21054  0.44021  0.00987  1.0000
  C   C39       1.0  0.23189  0.37085  0.01409  1.0000
  C   C40       1.0  0.10938  0.43217  0.13636  1.0000
  C   C41       1.0  0.04280  0.32550  0.22695  1.0000
  H   H64       1.0  0.02508  0.47682  0.17523  1.0000
  H   H65       1.0  0.07460  0.46446  0.27740  1.0000
  C   C42       1.0  0.05281  0.38105  0.24244  1.0000
  H   H66       1.0  0.04462  0.36376  0.22456  1.0000
  H   H67       1.0  0.23136  0.48646  0.12210  1.0000
  H   H68       1.0  0.06697  0.32455  0.24042  1.0000
  H   H69       1.0  0.04755  0.31618  0.25500  1.0000
  C   C43       1.0  0.02669  0.34996  0.25901  1.0000
  Fe  Fe6       1.0  0.11977  0.48350  0.19985  1.0000
  H   H70       1.0  0.01654  0.42781  0.12469  1.0000
  H   H71       1.0  0.01523  0.37503  0.24125  1.0000
  H   H72       1.0  0.99411  0.40291  0.10802  1.0000
  H   H73       1.0  0.09586  0.46860  0.18065  1.0000
  C   C44       1.0  0.14535  0.40553  0.18078  1.0000
  H   H74       1.0  0.02893  0.37988  0.15977  1.0000
  Fe  Fe7       1.0  0.05844  0.37428  0.31785  1.0000
  H   H75       1.0  0.04921  0.31204  0.22189  1.0000
  H   H76       1.0  0.04528  0.33657  0.21499  1.0000
  H   H77       1.0  0.06516  0.38128  0.24940  1.0000
  C   C45       1.0  0.12540  0.42738  0.31049  1.0000
  H   H78       1.0  0.07322  0.34455  0.26193  1.0000
  H   H79       1.0  0.02143  0.33652  0.26534  1.0000
  H   H80       1.0  0.12107  0.40411  0.14563  1.0000
  H   H81       1.0  0.02449  0.35861  0.27072  1.0000
  H   H82       1.0  0.13084  0.40286  0.18488  1.0000
  H   H83       1.0  0.10759  0.44665  0.13999  1.0000
  H   H84       1.0  0.14955  0.39225  0.15562  1.0000
  H   H85       1.0  0.17517  0.41956  0.10718  1.0000
  H   H86       1.0  0.17634  0.40279  0.12749  1.0000
  H   H87       1.0  0.13584  0.45218  0.14299  1.0000
  H   H88       1.0  0.14560  0.43505  0.11835  1.0000
  H   H89       1.0  0.04015  0.38502  0.25206  1.0000
  H   H90       1.0  0.14737  0.41855  0.18594  1.0000
  H   H91       1.0  0.09537  0.42767  0.13874  1.0000
  H   H92       1.0  0.01650  0.40947  0.21224  1.0000
  H   H93       1.0  0.15393  0.39375  0.18827  1.0000
  S   S13       1.0  0.07535  0.39609  0.30287  1.0000
  C   C46       1.0  0.99886  0.33141  0.14444  1.0000
  H   H94       1.0  0.13246  0.44250  0.16644  1.0000
  C   C47       1.0  0.99175  0.41698  0.14121  1.0000
  H   H95       1.0  0.16687  0.45408  0.14220  1.0000
  N   N3        1.0  0.11835  0.43705  0.27631  1.0000
  C   C48       1.0  0.12473  0.42155  0.29114  1.0000
  C   C49       1.0  0.11724  0.42799  0.25929  1.0000
  C   C50       1.0  0.09939  0.44596  0.28391  1.0000
  C   C51       1.0  0.13205  0.45107  0.27260  1.0000
  H   H96       1.0  0.22182  0.46551  0.12250  1.0000
  C   C52       1.0  0.13580  0.41891  0.24966  1.0000
  C   C53       1.0  0.08703  0.45708  0.26965  1.0000
  C   C54       1.0  0.13008  0.46667  0.25589  1.0000
  H   H97       1.0  0.11560  0.41030  0.29354  1.0000
  H   H98       1.0  0.13886  0.41464  0.28663  1.0000
  H   H99       1.0  0.11101  0.43801  0.24823  1.0000
  H   H100      1.0  0.00101  0.38958  0.17694  1.0000
  H   H101      1.0  0.09111  0.43501  0.29192  1.0000
  H   H102      1.0  0.10044  0.45558  0.29411  1.0000
  H   H103      1.0  0.13127  0.45855  0.28496  1.0000
  H   H104      1.0  0.14656  0.44396  0.27103  1.0000
  C   C55       1.0  0.01603  0.39003  0.13423  1.0000
  N   N4        1.0  0.99560  0.39672  0.13792  1.0000
  H   H105      1.0  0.99857  0.42866  0.31374  1.0000
  C   C56       1.0  0.04631  0.47069  0.20651  1.0000
  H   H106      1.0  0.99229  0.36956  0.15374  1.0000
  H   H107      1.0  0.06225  0.31604  0.27971  1.0000
  C   C57       1.0  0.02595  0.42578  0.32250  1.0000
  H   H108      1.0  0.01838  0.37483  0.13292  1.0000
  C   C58       1.0  0.16076  0.44622  0.15539  1.0000
  C   C59       1.0  0.23421  0.47262  0.11673  1.0000
  H   H109      1.0  0.12486  0.46242  0.24399  1.0000
  H   H110      1.0  0.06702  0.28721  0.32211  1.0000
  N   N5        1.0  0.14173  0.42187  0.14720  1.0000
  C   C60       1.0  0.12182  0.41841  0.14891  1.0000
  C   C61       1.0  0.15142  0.40602  0.15953  1.0000
  C   C62       1.0  0.14995  0.42155  0.12693  1.0000
  C   C63       1.0  0.14187  0.44080  0.15318  1.0000
  C   C64       1.0  0.21924  0.37927  0.00173  1.0000
  C   C65       1.0  0.01595  0.42186  0.20125  1.0000
  H   H111      1.0  0.01470  0.35340  0.23228  1.0000
  H   H112      1.0  0.23681  0.41364  0.00594  1.0000
  H   H113      1.0  0.10782  0.41695  0.26302  1.0000
  H   H114      1.0  0.23093  0.37546  0.02761  1.0000
  H   H115      1.0  0.01024  0.44145  0.16857  1.0000
  S   S14       1.0  0.08220  0.35135  0.31963  1.0000
  C   C66       1.0  0.00614  0.34786  0.31707  1.0000
  H   H116      1.0  0.02107  0.45781  0.15122  1.0000
  H   H117      1.0  0.22720  0.45467  0.01390  1.0000
  C   C67       1.0  0.99131  0.33222  0.16311  1.0000
  H   H118      1.0  0.99761  0.44528  0.13037  1.0000
  H   H119      1.0  0.23470  0.44782  0.14690  1.0000
  H   H120      1.0  0.00128  0.36777  0.11326  1.0000
  H   H121      1.0  0.99637  0.43175  0.11237  1.0000
  H   H122      1.0  0.99232  0.47707  0.19762  1.0000
  H   H123      1.0  0.00120  0.42522  0.19932  1.0000
  H   H124      1.0  0.99890  0.35958  0.25205  1.0000
  H   H125      1.0  0.99072  0.44424  0.23014  1.0000
  H   H126      1.0  0.99068  0.32760  0.13483  1.0000
  H   H127      1.0  0.99102  0.46884  0.23218  1.0000
  H   H128      1.0  0.22351  0.43362  0.02920  1.0000
  H   H129      1.0  0.99578  0.41908  0.15466  1.0000
  C   C68       1.0  0.00701  0.41880  0.32336  1.0000
  C   C69       1.0  0.23972  0.42846  0.00263  1.0000
  H   H130      1.0  0.01108  0.13204  0.43489  1.0000
  H   H131      1.0  0.02710  0.43305  0.33444  1.0000
  C   C70       1.0  0.02161  0.19098  0.60603  1.0000
  H   H132      1.0  0.02078  0.40484  0.35619  1.0000
  H   H133      1.0  0.00512  0.27337  0.56812  1.0000
  S   S15       1.0  0.07248  0.35167  0.64017  1.0000
  C   C71       1.0  0.04210  0.29699  0.37425  1.0000
  H   H134      1.0  0.01876  0.12036  0.41426  1.0000
  H   H135      1.0  0.00388  0.29032  0.65128  1.0000
  H   H136      1.0  0.14197  0.13516  0.62494  1.0000
  Fe  Fe8       1.0  0.08403  0.36102  0.34707  1.0000
  C   C72       1.0  0.01494  0.48139  0.63522  1.0000
  S   S16       1.0  0.08373  0.34073  0.37457  1.0000
  H   H137      1.0  0.01439  0.17418  0.58693  1.0000
  H   H138      1.0  0.04234  0.42030  0.63459  1.0000
  H   H139      1.0  0.99429  0.44356  0.62938  1.0000
  H   H140      1.0  0.13447  0.31747  0.63227  1.0000
  S   S17       1.0  0.05882  0.38297  0.34588  1.0000
  Fe  Fe9       1.0  0.16082  0.07708  0.59409  1.0000
  S   S18       1.0  0.18716  0.09001  0.58643  1.0000
  S   S19       1.0  0.13290  0.09536  0.59867  1.0000
  H   H141      1.0  0.15695  0.00263  0.58038  1.0000
  S   S20       1.0  0.20881  0.04689  0.58762  1.0000
  Fe  Fe10      1.0  0.19844  0.06737  0.60782  1.0000
  S   S21       1.0  0.21496  0.07064  0.63039  1.0000
  Fe  Fe11      1.0  0.19488  0.06808  0.56711  1.0000
  S   S22       1.0  0.20892  0.07369  0.53782  1.0000
  S   S23       1.0  0.17162  0.05572  0.61710  1.0000
  S   S24       1.0  0.16780  0.05634  0.57308  1.0000
  Fe  Fe12      1.0  0.18363  0.02032  0.46883  1.0000
  S   S25       1.0  0.15433  0.02221  0.46324  1.0000
  S   S26       1.0  0.19261  0.00912  0.49694  1.0000
  Fe  Fe13      1.0  0.19810  0.03091  0.42820  1.0000
  S   S27       1.0  0.16975  0.03426  0.41914  1.0000
  S   S28       1.0  0.22534  0.02844  0.40928  1.0000
  Fe  Fe14      1.0  0.15991  0.04931  0.44463  1.0000
  S   S29       1.0  0.13876  0.07493  0.45165  1.0000
  H   H142      1.0  0.00828  0.28989  0.36533  1.0000
  H   H143      1.0  0.06201  0.24966  0.38125  1.0000
  S   S30       1.0  0.18883  0.04789  0.45196  1.0000
  C   C73       1.0  0.02780  0.30208  0.39103  1.0000
  Fe  Fe15      1.0  0.08497  0.24534  0.61364  1.0000
  Fe  Fe16      1.0  0.07282  0.23732  0.57730  1.0000
  S   S31       1.0  0.07040  0.20709  0.58805  1.0000
  S   S32       1.0  0.06256  0.24895  0.54952  1.0000
  Fe  Fe17      1.0  0.05710  0.21805  0.61466  1.0000
  S   S33       1.0  0.02990  0.21194  0.63139  1.0000
  Fe  Fe18      1.0  0.09740  0.20679  0.59885  1.0000
  S   S34       1.0  0.12258  0.18483  0.59284  1.0000
  S   S35       1.0  0.05746  0.24835  0.60328  1.0000
  S   S36       1.0  0.10073  0.23679  0.58645  1.0000
  Fe  Fe19      1.0  0.09102  0.22764  0.41335  1.0000
  S   S37       1.0  0.07750  0.20490  0.40528  1.0000
  S   S38       1.0  0.09966  0.25084  0.38993  1.0000
  Fe  Fe20      1.0  0.08912  0.20827  0.45384  1.0000
  S   S39       1.0  0.07447  0.18480  0.44884  1.0000
  S   S40       1.0  0.10080  0.20686  0.48103  1.0000
  Fe  Fe21      1.0  0.09528  0.18355  0.42297  1.0000
  S   S41       1.0  0.10932  0.15652  0.41138  1.0000
  Fe  Fe22      1.0  0.05793  0.20778  0.43166  1.0000
  S   S42       1.0  0.02778  0.21240  0.42742  1.0000
  S   S43       1.0  0.11077  0.20604  0.42864  1.0000
  S   S44       1.0  0.07064  0.23154  0.43908  1.0000
  C   C74       1.0  0.01230  0.19593  0.43623  1.0000
  C   C75       1.0  0.01638  0.18089  0.45003  1.0000
  C   C76       1.0  0.01264  0.13381  0.41936  1.0000
  H   H144      1.0  0.02925  0.17933  0.45584  1.0000
  H   H145      1.0  0.16986  0.05964  0.52053  1.0000
  C   C77       1.0  0.07362  0.23824  0.52998  1.0000
  C   C78       1.0  0.09090  0.22741  0.53048  1.0000
  C   C79       1.0  0.09928  0.21845  0.51504  1.0000
  C   C80       1.0  0.09020  0.21967  0.49929  1.0000
  C   C81       1.0  0.07299  0.23066  0.49863  1.0000
  C   C82       1.0  0.06480  0.24009  0.51391  1.0000
  H   H146      1.0  0.09783  0.22600  0.54277  1.0000
  H   H147      1.0  0.11273  0.21018  0.51551  1.0000
  H   H148      1.0  0.06594  0.23177  0.48647  1.0000
  H   H149      1.0  0.05145  0.24852  0.51344  1.0000
  C   C83       1.0  0.01490  0.20202  0.62032  1.0000
  H   H150      1.0  0.03633  0.18817  0.60178  1.0000
  C   C84       1.0  0.13162  0.09785  0.44017  1.0000
  C   C85       1.0  0.12044  0.11102  0.45076  1.0000
  C   C86       1.0  0.11405  0.12920  0.44235  1.0000
  C   C87       1.0  0.11835  0.13435  0.42307  1.0000
  C   C88       1.0  0.12948  0.12117  0.41247  1.0000
  C   C89       1.0  0.13624  0.10314  0.42096  1.0000
  H   H151      1.0  0.11658  0.10712  0.46556  1.0000
  H   H152      1.0  0.10550  0.13908  0.45073  1.0000
  H   H153      1.0  0.13289  0.12493  0.39754  1.0000
  H   H154      1.0  0.14473  0.09323  0.41255  1.0000
  N   N6        1.0  0.01083  0.46134  0.63927  1.0000
  S   S45       1.0  0.08382  0.21522  0.62670  1.0000
  C   C90       1.0  0.12979  0.12031  0.59607  1.0000
  C   C91       1.0  0.11292  0.12993  0.60352  1.0000
  C   C92       1.0  0.11030  0.14969  0.60250  1.0000
  C   C93       1.0  0.12455  0.16005  0.59388  1.0000
  C   C94       1.0  0.14126  0.15043  0.58609  1.0000
  C   C95       1.0  0.14385  0.13071  0.58709  1.0000
  H   H155      1.0  0.10192  0.12203  0.61046  1.0000
  H   H156      1.0  0.09739  0.15687  0.60860  1.0000
  H   H157      1.0  0.15232  0.15831  0.57929  1.0000
  H   H158      1.0  0.15680  0.12358  0.58105  1.0000
  C   C96       1.0  0.20672  0.05483  0.52648  1.0000
  C   C97       1.0  0.20921  0.05674  0.50696  1.0000
  C   C98       1.0  0.20493  0.04268  0.49781  1.0000
  C   C99       1.0  0.19859  0.02652  0.50815  1.0000
  C   C100      1.0  0.19711  0.02416  0.52766  1.0000
  C   C101      1.0  0.20111  0.03834  0.53682  1.0000
  H   H159      1.0  0.21381  0.06937  0.49893  1.0000
  H   H160      1.0  0.20680  0.04429  0.48276  1.0000
  H   H161      1.0  0.19233  0.01164  0.53575  1.0000
  H   H162      1.0  0.19954  0.03657  0.55192  1.0000
  H   H163      1.0  0.03190  0.22504  0.58323  1.0000
  H   H164      1.0  0.17452  0.09748  0.46067  1.0000
  C   C102      1.0  0.02454  0.35126  0.34081  1.0000
  C   C103      1.0  0.08761  0.31568  0.37834  1.0000
  C   C104      1.0  0.09626  0.30505  0.36424  1.0000
  C   C105      1.0  0.09975  0.28530  0.36807  1.0000
  C   C106      1.0  0.09432  0.27579  0.38592  1.0000
  C   C107      1.0  0.08525  0.28636  0.39992  1.0000
  C   C108      1.0  0.08218  0.30616  0.39622  1.0000
  H   H165      1.0  0.10069  0.31209  0.35048  1.0000
  H   H166      1.0  0.10684  0.27733  0.35712  1.0000
  H   H167      1.0  0.08070  0.27931  0.41361  1.0000
  H   H168      1.0  0.07543  0.31420  0.40724  1.0000
  H   H169      1.0  0.15018  0.08642  0.54580  1.0000
  C   C109      1.0  0.07900  0.45338  0.33782  1.0000
  C   C110      1.0  0.08928  0.44961  0.35286  1.0000
  C   C111      1.0  0.09478  0.46449  0.36014  1.0000
  Fe  Fe23      1.0  0.18125  0.03618  0.59534  1.0000
  H   H170      1.0  0.09265  0.43528  0.35916  1.0000
  C   C112      1.0  0.07483  0.32717  0.63881  1.0000
  C   C113      1.0  0.08290  0.28833  0.63516  1.0000
  C   C114      1.0  0.08153  0.30169  0.61929  1.0000
  C   C115      1.0  0.07765  0.32098  0.62112  1.0000
  H   H171      1.0  0.08430  0.29721  0.60555  1.0000
  H   H172      1.0  0.07732  0.33119  0.60869  1.0000
  H   H173      1.0  0.02731  0.29035  0.40266  1.0000
  H   H174      1.0  0.03618  0.35625  0.34483  1.0000
  H   H175      1.0  0.23352  0.01799  0.48510  1.0000
  H   H176      1.0  0.05245  0.49345  0.40870  1.0000
  H   H177      1.0  0.12630  0.26692  0.48637  1.0000
  C   C116      1.0  0.99911  0.26706  0.55780  1.0000
  H   H178      1.0  0.11230  0.07319  0.51550  1.0000
  H   H179      1.0  0.00684  0.15623  0.46698  1.0000
  H   H180      1.0  0.18284  0.13855  0.65266  1.0000
  H   H181      1.0  0.06701  0.27207  0.35737  1.0000
  H   H182      1.0  0.02224  0.42213  0.65140  1.0000
  C   C117      1.0  0.02078  0.23711  0.58253  1.0000
  S   S46       1.0  0.09169  0.26440  0.63339  1.0000
  H   H183      1.0  0.10243  0.46146  0.37201  1.0000
  H   H184      1.0  0.99234  0.20949  0.41817  1.0000
  N   N7        1.0  0.15369  0.08323  0.50628  1.0000
  C   C118      1.0  0.15548  0.06385  0.51726  1.0000
  C   C119      1.0  0.16104  0.09650  0.51648  1.0000
  C   C120      1.0  0.13416  0.09029  0.50239  1.0000
  C   C121      1.0  0.15091  0.09960  0.53605  1.0000
  C   C122      1.0  0.11833  0.08550  0.51814  1.0000
  H   H185      1.0  0.14700  0.06330  0.53115  1.0000
  H   H186      1.0  0.17589  0.09167  0.51803  1.0000
  H   H187      1.0  0.16062  0.11074  0.50835  1.0000
  H   H188      1.0  0.13245  0.10580  0.49844  1.0000
  H   H189      1.0  0.15875  0.10835  0.54239  1.0000
  H   H190      1.0  0.01377  0.30663  0.38699  1.0000
  H   H191      1.0  0.00829  0.38195  0.38058  1.0000
  H   H192      1.0  0.06972  0.30110  0.33984  1.0000
  H   H193      1.0  0.12199  0.08313  0.53250  1.0000
  H   H194      1.0  0.02756  0.24962  0.57630  1.0000
  C   C123      1.0  0.99788  0.45813  0.62626  1.0000
  C   C124      1.0  0.17587  0.12579  0.65373  1.0000
  N   N8        1.0  0.03794  0.28182  0.36419  1.0000
  H   H195      1.0  0.01540  0.48393  0.37764  1.0000
  C   C125      1.0  0.02508  0.48822  0.38606  1.0000
  C   C126      1.0  0.21040  0.00219  0.64577  1.0000
  C   C127      1.0  0.22398  0.00765  0.62819  1.0000
  H   H196      1.0  0.01857  0.24926  0.64654  1.0000
  Fe  Fe24      1.0  0.16642  0.00724  0.43849  1.0000
  C   C128      1.0  0.06010  0.29309  0.33495  1.0000
  H   H197      1.0  0.06869  0.12819  0.44959  1.0000
  C   C129      1.0  0.23849  0.07288  0.62317  1.0000
  H   H198      1.0  0.00368  0.28362  0.33512  1.0000
  C   C130      1.0  0.99582  0.20531  0.62601  1.0000
  C   C131      1.0  0.99729  0.33546  0.34941  1.0000
  H   H199      1.0  0.00494  0.43479  0.35830  1.0000
  H   H200      1.0  0.13992  0.13194  0.64962  1.0000
  C   C132      1.0  0.00193  0.27722  0.64607  1.0000
  C   C133      1.0  0.07474  0.47212  0.32984  1.0000
  H   H201      1.0  0.99067  0.21350  0.63731  1.0000
  H   H202      1.0  0.01867  0.48545  0.40088  1.0000
  N   N9        1.0  0.16797  0.12538  0.63587  1.0000
  C   C134      1.0  0.16558  0.10585  0.63291  1.0000
  H   H203      1.0  0.11934  0.34782  0.63005  1.0000
  C   C135      1.0  0.12642  0.31053  0.64491  1.0000
  C   C136      1.0  0.07521  0.31378  0.65475  1.0000
  C   C137      1.0  0.01705  0.27741  0.34015  1.0000
  H   H204      1.0  0.02260  0.25274  0.53973  1.0000
  C   C138      1.0  0.09026  0.48326  0.35235  1.0000
  H   H205      1.0  0.04436  0.24398  0.39984  1.0000
  H   H206      1.0  0.05664  0.18705  0.38332  1.0000
  H   H207      1.0  0.14006  0.35059  0.63943  1.0000
  H   H208      1.0  0.23872  0.01258  0.59219  1.0000
  C   C139      1.0  0.04320  0.47435  0.38386  1.0000
  H   H209      1.0  0.15311  0.16530  0.62267  1.0000
  C   C140      1.0  0.05453  0.27692  0.35018  1.0000
  C   C141      1.0  0.15083  0.09644  0.64704  1.0000
  N   N10       1.0  0.99642  0.41506  0.34260  1.0000
  H   H210      1.0  0.05586  0.48090  0.37852  1.0000
  H   H211      1.0  0.09371  0.28750  0.46073  1.0000
  H   H212      1.0  0.05580  0.29322  0.37927  1.0000
  C   C142      1.0  0.02858  0.48660  0.64705  1.0000
  S   S47       1.0  0.07032  0.43550  0.32893  1.0000
  H   H213      1.0  0.01477  0.22855  0.55772  1.0000
  N   N11       1.0  0.99158  0.24912  0.56654  1.0000
  H   H214      1.0  0.99400  0.40392  0.38235  1.0000
  H   H215      1.0  0.03537  0.45320  0.62020  1.0000
  C   C143      1.0  0.00662  0.23316  0.57062  1.0000
  H   H216      1.0  0.23553  0.00344  0.51829  1.0000
  H   H217      1.0  0.14920  0.03537  0.51805  1.0000
  Fe  Fe25      1.0  0.07786  0.40356  0.33102  1.0000
  H   H218      1.0  0.20146  0.10545  0.64934  1.0000
  H   H219      1.0  0.02312  0.27669  0.53974  1.0000
  H   H220      1.0  0.22427  0.99701  0.61863  1.0000
  S   S48       1.0  0.10349  0.38261  0.33430  1.0000
  H   H221      1.0  0.23167  0.01911  0.45461  1.0000
  S   S49       1.0  0.19508  0.00333  0.44585  1.0000
  H   H222      1.0  0.07386  0.14870  0.43429  1.0000
  N   N12       1.0  0.12162  0.25827  0.45168  1.0000
  C   C144      1.0  0.11804  0.26112  0.43152  1.0000
  C   C145      1.0  0.10317  0.25691  0.46366  1.0000
  C   C146      1.0  0.13391  0.23985  0.45492  1.0000
  C   C147      1.0  0.13089  0.27443  0.45495  1.0000
  C   C148      1.0  0.13527  0.26077  0.41654  1.0000
  H   H223      1.0  0.05874  0.16536  0.37448  1.0000
  C   C149      1.0  0.13961  0.23406  0.47463  1.0000
  C   C150      1.0  0.12900  0.27875  0.47535  1.0000
  H   H224      1.0  0.10975  0.25036  0.42896  1.0000
  H   H225      1.0  0.10964  0.27492  0.42810  1.0000
  H   H226      1.0  0.10441  0.25423  0.47878  1.0000
  H   H227      1.0  0.09718  0.24455  0.46102  1.0000
  H   H228      1.0  0.12718  0.22821  0.45168  1.0000
  H   H229      1.0  0.14719  0.23988  0.44541  1.0000
  H   H230      1.0  0.14593  0.27224  0.44964  1.0000
  H   H231      1.0  0.12520  0.28766  0.44670  1.0000
  H   H232      1.0  0.14537  0.26969  0.41893  1.0000
  H   H233      1.0  0.14207  0.24621  0.41549  1.0000
  H   H234      1.0  0.13085  0.26629  0.40262  1.0000
  C   C151      1.0  0.04941  0.25576  0.38975  1.0000
  H   H235      1.0  0.11188  0.31313  0.64192  1.0000
  H   H236      1.0  0.13403  0.16447  0.64065  1.0000
  H   H237      1.0  0.14917  0.24331  0.47758  1.0000
  H   H238      1.0  0.14728  0.21965  0.47534  1.0000
  H   H239      1.0  0.12765  0.23340  0.48576  1.0000
  H   H240      1.0  0.15293  0.08111  0.64632  1.0000
  H   H241      1.0  0.00236  0.49165  0.63712  1.0000
  H   H242      1.0  0.00566  0.27968  0.63058  1.0000
  N   N13       1.0  0.04461  0.14566  0.41117  1.0000
  C   C152      1.0  0.04772  0.13899  0.43125  1.0000
  C   C153      1.0  0.02398  0.14996  0.41086  1.0000
  C   C154      1.0  0.05326  0.16353  0.40514  1.0000
  C   C155      1.0  0.05367  0.13059  0.39936  1.0000
  C   C156      1.0  0.06804  0.13539  0.43510  1.0000
  H   H243      1.0  0.17340  0.13462  0.60617  1.0000
  C   C157      1.0  0.04596  0.13031  0.38084  1.0000
  H   H244      1.0  0.04023  0.14920  0.44059  1.0000
  H   H245      1.0  0.99893  0.23955  0.52882  1.0000
  H   H246      1.0  0.02034  0.15459  0.39657  1.0000
  H   H247      1.0  0.01825  0.16211  0.41847  1.0000
  H   H248      1.0  0.04776  0.17387  0.41511  1.0000
  H   H249      1.0  0.06848  0.16091  0.40539  1.0000
  H   H250      1.0  0.06882  0.13133  0.39591  1.0000
  H   H251      1.0  0.05233  0.11647  0.40749  1.0000
  C   C158      1.0  0.08834  0.27407  0.46079  1.0000
  H   H252      1.0  0.07700  0.12627  0.42557  1.0000
  C   C159      1.0  0.00368  0.16787  0.45634  1.0000
  H   H253      1.0  0.05308  0.26579  0.39813  1.0000
  C   C160      1.0  0.05079  0.17359  0.38535  1.0000
  C   C161      1.0  0.99830  0.39257  0.37343  1.0000
  H   H254      1.0  0.02031  0.42380  0.62660  1.0000
  H   H255      1.0  0.00040  0.22049  0.57787  1.0000
  H   H256      1.0  0.03989  0.14403  0.37417  1.0000
  H   H257      1.0  0.02064  0.48471  0.62022  1.0000
  H   H258      1.0  0.10689  0.09732  0.51772  1.0000
  H   H259      1.0  0.20086  0.10912  0.61461  1.0000
  H   H260      1.0  0.01459  0.23852  0.59715  1.0000
  H   H261      1.0  0.04822  0.30310  0.33058  1.0000
  C   C162      1.0  0.19995  0.12433  0.61517  1.0000
  H   H262      1.0  0.13309  0.28555  0.63090  1.0000
  H   H263      1.0  0.13693  0.10752  0.53524  1.0000
  C   C163      1.0  0.15057  0.04810  0.50763  1.0000
  C   C164      1.0  0.99259  0.43237  0.35240  1.0000
  H   H264      1.0  0.18141  0.14871  0.62030  1.0000
  H   H265      1.0  0.04339  0.31023  0.36448  1.0000
  C   C165      1.0  0.00784  0.39987  0.35392  1.0000
  H   H266      1.0  0.03040  0.26738  0.65091  1.0000
  C   C166      1.0  0.00923  0.18302  0.59770  1.0000
  H   H267      1.0  0.01481  0.33987  0.36899  1.0000
  C   C167      1.0  0.02802  0.42767  0.63704  1.0000
  H   H268      1.0  0.20857  0.12696  0.62545  1.0000
  H   H269      1.0  0.23515  0.03418  0.64567  1.0000
  H   H270      1.0  0.07675  0.27294  0.47241  1.0000
  C   C168      1.0  0.01257  0.34177  0.35447  1.0000
  H   H271      1.0  0.04544  0.46589  0.39753  1.0000
  N   N14       1.0  0.07225  0.16856  0.54309  1.0000
  C   C169      1.0  0.07697  0.15362  0.53029  1.0000
  C   C170      1.0  0.06359  0.16005  0.56194  1.0000
  C   C171      1.0  0.08936  0.17635  0.54571  1.0000
  C   C172      1.0  0.05916  0.18428  0.53436  1.0000
  C   C173      1.0  0.08760  0.15955  0.51083  1.0000
  C   C174      1.0  0.04497  0.15268  0.56226  1.0000
  C   C175      1.0  0.10553  0.16186  0.55195  1.0000
  C   C176      1.0  0.05018  0.19936  0.54686  1.0000
  H   H272      1.0  0.08508  0.14090  0.53702  1.0000
  H   H273      1.0  0.06418  0.14874  0.52752  1.0000
  H   H274      1.0  0.06158  0.17017  0.57233  1.0000
  H   H275      1.0  0.07295  0.14787  0.56783  1.0000
  H   H276      1.0  0.09487  0.18475  0.53264  1.0000
  H   H277      1.0  0.08611  0.18627  0.55628  1.0000
  H   H278      1.0  0.06642  0.19193  0.52162  1.0000
  H   H279      1.0  0.04778  0.17871  0.52939  1.0000
  H   H280      1.0  0.07937  0.17090  0.50246  1.0000
  H   H281      1.0  0.10115  0.16399  0.51165  1.0000
  H   H282      1.0  0.09048  0.14737  0.50283  1.0000
  H   H283      1.0  0.04661  0.14040  0.55455  1.0000
  H   H284      1.0  0.03958  0.14782  0.57700  1.0000
  H   H285      1.0  0.03425  0.16361  0.55678  1.0000
  H   H286      1.0  0.11693  0.16951  0.55387  1.0000
  H   H287      1.0  0.11130  0.15240  0.54135  1.0000
  H   H288      1.0  0.10164  0.15346  0.56557  1.0000
  H   H289      1.0  0.04077  0.19379  0.55909  1.0000
  H   H290      1.0  0.04178  0.21060  0.53852  1.0000
  H   H291      1.0  0.06069  0.20612  0.55172  1.0000
  H   H292      1.0  0.00478  0.45969  0.61151  1.0000
  H   H293      1.0  0.03194  0.31404  0.39653  1.0000
  H   H294      1.0  0.03191  0.25310  0.36983  1.0000
  H   H295      1.0  0.19729  0.99529  0.37250  1.0000
  H   H296      1.0  0.01568  0.26265  0.34608  1.0000
  H   H297      1.0  0.03581  0.12010  0.38282  1.0000
  H   H298      1.0  0.15691  0.16134  0.64712  1.0000
  H   H299      1.0  0.04204  0.12554  0.43642  1.0000
  C   C177      1.0  0.03413  0.26444  0.37755  1.0000
  C   C178      1.0  0.14908  0.13691  0.63680  1.0000
  H   H300      1.0  0.00664  0.26956  0.52726  1.0000
  H   H301      1.0  0.17508  0.11024  0.47948  1.0000
  H   H302      1.0  0.17871  0.09617  0.63307  1.0000
  H   H303      1.0  0.02102  0.26710  0.38713  1.0000
  C   C179      1.0  0.13266  0.28928  0.64520  1.0000
  H   H304      1.0  0.13135  0.08435  0.49005  1.0000
  H   H305      1.0  0.16154  0.07238  0.47968  1.0000
  C   C180      1.0  0.99549  0.19798  0.42895  1.0000
  H   H306      1.0  0.99840  0.13737  0.41549  1.0000
  H   H307      1.0  0.14211  0.28329  0.47766  1.0000
  C   C181      1.0  0.14857  0.15818  0.63685  1.0000
  C   C182      1.0  0.16604  0.08216  0.48783  1.0000
  H   H308      1.0  0.18044  0.07634  0.49014  1.0000
  H   H309      1.0  0.15323  0.10802  0.47185  1.0000
  H   H310      1.0  0.16179  0.04399  0.49649  1.0000
  C   C183      1.0  0.02891  0.44900  0.63479  1.0000
  C   C184      1.0  0.02090  0.28901  0.35480  1.0000
  C   C185      1.0  0.17997  0.13398  0.61906  1.0000
  C   C186      1.0  0.16707  0.10072  0.47447  1.0000
  H   H311      1.0  0.16164  0.10598  0.61875  1.0000
  H   H312      1.0  0.22760  0.05884  0.43005  1.0000
  H   H313      1.0  0.05747  0.12497  0.37049  1.0000
  H   H314      1.0  0.08239  0.27440  0.44765  1.0000
  H   H315      1.0  0.23558  0.08128  0.59405  1.0000
  H   H316      1.0  0.01264  0.38766  0.34615  1.0000
  H   H317      1.0  0.13740  0.05204  0.50161  1.0000
  H   H318      1.0  0.02135  0.30361  0.34781  1.0000
  C   C187      1.0  0.01349  0.26621  0.54011  1.0000
  H   H319      1.0  0.11820  0.29089  0.47765  1.0000
  H   H320      1.0  0.20628  0.13055  0.60124  1.0000
  C   C188      1.0  0.08049  0.48696  0.33693  1.0000
  S   S50       1.0  0.18652  0.00432  0.60276  1.0000
  H   H321      1.0  0.19766  0.99881  0.64133  1.0000
  H   H322      1.0  0.21696  0.02096  0.62123  1.0000
  C   C189      1.0  0.99470  0.33759  0.33059  1.0000
  H   H323      1.0  0.03610  0.17730  0.38314  1.0000
  H   H324      1.0  0.14664  0.28501  0.64945  1.0000
  H   H325      1.0  0.15651  0.32062  0.64939  1.0000
  H   H326      1.0  0.20598  0.01415  0.65395  1.0000
  H   H327      1.0  0.03914  0.45070  0.64389  1.0000
  H   H328      1.0  0.05309  0.26460  0.34340  1.0000
  C   C190      1.0  0.12480  0.35135  0.64228  1.0000
  C   C191      1.0  0.01681  0.26192  0.65373  1.0000
  C   C192      1.0  0.07954  0.29450  0.65290  1.0000
  H   H329      1.0  0.23972  0.02760  0.51251  1.0000
  H   H330      1.0  0.13673  0.10180  0.64339  1.0000
  H   H331      1.0  0.12250  0.28094  0.65433  1.0000
  H   H332      1.0  0.11907  0.36614  0.64372  1.0000
  H   H333      1.0  0.20970  0.00204  0.38892  1.0000
  H   H334      1.0  0.04213  0.46423  0.37422  1.0000
  H   H335      1.0  0.99355  0.21806  0.54346  1.0000
  H   H336      1.0  0.03841  0.48843  0.34814  1.0000
  H   H337      1.0  0.04300  0.48018  0.64312  1.0000
  C   C193      1.0  0.99012  0.18646  0.60333  1.0000
  H   H338      1.0  0.99679  0.45544  0.32929  1.0000
  H   H339      1.0  0.02778  0.27789  0.32772  1.0000
  Fe  Fe26      1.0  0.04952  0.36997  0.70513  1.0000
  Fe  Fe27      1.0  0.09014  0.37258  0.69785  1.0000
  N   N15       1.0  0.05705  0.44816  0.88111  1.0000
  S   S51       1.0  0.11690  0.36581  0.70997  1.0000
  S   S52       1.0  0.06619  0.39127  0.71036  1.0000
  S   S53       1.0  0.07375  0.34975  0.69523  1.0000
  Fe  Fe28      1.0  0.06754  0.40720  0.82296  1.0000
  S   S54       1.0  0.05587  0.39629  0.85213  1.0000
  S   S55       1.0  0.06016  0.43666  0.80952  1.0000
  Fe  Fe29      1.0  0.09196  0.37090  0.81681  1.0000
  S   S56       1.0  0.08231  0.35666  0.84543  1.0000
  S   S57       1.0  0.11567  0.35764  0.79786  1.0000
  Fe  Fe30      1.0  0.05373  0.37043  0.83953  1.0000
  S   S58       1.0  0.02955  0.35358  0.84209  1.0000
  Fe  Fe31      1.0  0.08539  0.38367  0.85550  1.0000
  S   S59       1.0  0.09955  0.38907  0.87963  1.0000
  S   S60       1.0  0.06357  0.38244  0.81001  1.0000
  S   S61       1.0  0.09680  0.39686  0.82723  1.0000
  S   S62       1.0  0.18382  0.35801  0.88921  1.0000
  H   H340      1.0  0.08144  0.43374  0.90683  1.0000
  S   S63       1.0  0.20136  0.39537  0.91567  1.0000
  H   H341      1.0  0.07730  0.41027  0.90956  1.0000
  C   C194      1.0  0.12278  0.38002  0.88284  1.0000
  C   C195      1.0  0.13130  0.36323  0.87648  1.0000
  C   C196      1.0  0.14988  0.35665  0.87882  1.0000
  C   C197      1.0  0.16025  0.36677  0.88742  1.0000
  C   C198      1.0  0.15172  0.38352  0.89391  1.0000
  C   C199      1.0  0.13301  0.38999  0.89181  1.0000
  H   H342      1.0  0.12353  0.35529  0.86979  1.0000
  H   H343      1.0  0.15631  0.34364  0.87381  1.0000
  H   H344      1.0  0.15959  0.39158  0.90032  1.0000
  H   H345      1.0  0.12654  0.40298  0.89681  1.0000
  C   C200      1.0  0.07808  0.44934  0.81113  1.0000
  C   C201      1.0  0.07401  0.46532  0.82013  1.0000
  C   C202      1.0  0.08833  0.47415  0.82390  1.0000
  C   C203      1.0  0.10674  0.46788  0.81757  1.0000
  C   C204      1.0  0.11081  0.45239  0.80772  1.0000
  C   C205      1.0  0.09651  0.44285  0.80486  1.0000
  H   H346      1.0  0.05984  0.47034  0.82507  1.0000
  C   C206      1.0  0.14872  0.46621  0.86606  1.0000
  H   H347      1.0  0.12504  0.44753  0.80275  1.0000
  H   H348      1.0  0.09981  0.43046  0.79792  1.0000
  C   C207      1.0  0.00562  0.36195  0.84694  1.0000
  C   C208      1.0  0.99941  0.37772  0.85611  1.0000
  H   H349      1.0  0.02434  0.48291  0.66222  1.0000
  H   H350      1.0  0.16565  0.34366  0.83183  1.0000
  C   C209      1.0  0.18350  0.40756  0.83247  1.0000
  H   H351      1.0  0.99355  0.47507  0.68032  1.0000
  H   H352      1.0  0.00933  0.38554  0.85988  1.0000
  H   H353      1.0  0.19114  0.45802  0.85176  1.0000
  H   H354      1.0  0.02417  0.44294  0.85265  1.0000
  H   H355      1.0  0.15862  0.34465  0.66542  1.0000
  H   H356      1.0  0.99202  0.35051  0.74418  1.0000
  C   C210      1.0  0.08388  0.45199  0.66938  1.0000
  H   H357      1.0  0.02223  0.30516  0.76530  1.0000
  H   H358      1.0  0.11638  0.40972  0.70064  1.0000
  C   C211      1.0  0.01317  0.34883  0.72035  1.0000
  H   H359      1.0  0.06040  0.42706  0.92082  1.0000
  C   C212      1.0  0.11567  0.36368  0.73450  1.0000
  C   C213      1.0  0.09901  0.36794  0.74609  1.0000
  C   C214      1.0  0.09878  0.36636  0.76562  1.0000
  C   C215      1.0  0.11513  0.36027  0.77357  1.0000
  C   C216      1.0  0.13166  0.35587  0.76196  1.0000
  C   C217      1.0  0.13195  0.35771  0.74254  1.0000
  H   H360      1.0  0.08638  0.37253  0.74004  1.0000
  H   H361      1.0  0.08600  0.36978  0.77453  1.0000
  H   H362      1.0  0.14432  0.35106  0.76802  1.0000
  H   H363      1.0  0.14485  0.35437  0.73371  1.0000
  C   C218      1.0  0.00697  0.33187  0.69637  1.0000
  H   H364      1.0  0.22996  0.46721  0.89178  1.0000
  H   H365      1.0  0.07006  0.41393  0.76232  1.0000
  H   H366      1.0  0.10948  0.30516  0.70872  1.0000
  S   S64       1.0  0.12463  0.47887  0.82264  1.0000
  H   H367      1.0  0.04583  0.48556  0.79708  1.0000
  H   H368      1.0  0.05301  0.46348  0.72506  1.0000
  H   H369      1.0  0.15474  0.35746  0.93261  1.0000
  H   H370      1.0  0.09131  0.45936  0.70909  1.0000
  C   C219      1.0  0.08547  0.48433  0.67408  1.0000
  H   H371      1.0  0.01110  0.40908  0.73025  1.0000
  C   C220      1.0  0.17081  0.40694  0.81757  1.0000
  Fe  Fe32      1.0  0.20531  0.36861  0.90313  1.0000
  C   C221      1.0  0.16885  0.32274  0.93256  1.0000
  H   H372      1.0  0.18857  0.32400  0.95039  1.0000
  H   H373      1.0  0.16880  0.31405  0.96221  1.0000
  H   H374      1.0  0.01283  0.39711  0.70116  1.0000
  H   H375      1.0  0.17717  0.33094  0.92113  1.0000
  H   H376      1.0  0.17302  0.30774  0.93074  1.0000
  H   H377      1.0  0.01862  0.45069  0.87510  1.0000
  S   S65       1.0  0.23342  0.37300  0.88735  1.0000
  H   H378      1.0  0.23519  0.35440  0.96536  1.0000
  H   H379      1.0  0.22752  0.44613  0.94606  1.0000
  C   C222      1.0  0.02863  0.32986  0.77515  1.0000
  C   C223      1.0  0.11826  0.31383  0.69814  1.0000
  H   H380      1.0  0.04072  0.44418  0.73594  1.0000
  H   H381      1.0  0.06052  0.45965  0.91657  1.0000
  C   C224      1.0  0.04447  0.33276  0.80213  1.0000
  H   H382      1.0  0.17198  0.43505  0.87527  1.0000
  H   H383      1.0  0.99743  0.44231  0.66100  1.0000
  C   C225      1.0  0.18654  0.43684  0.87546  1.0000
  Fe  Fe33      1.0  0.06322  0.40426  0.68099  1.0000
  C   C226      1.0  0.15412  0.33226  0.67493  1.0000
  S   S66       1.0  0.04464  0.38395  0.67650  1.0000
  H   H384      1.0  0.14349  0.33702  0.68619  1.0000
  H   H385      1.0  0.02602  0.33627  0.76080  1.0000
  H   H386      1.0  0.07255  0.47011  0.86608  1.0000
  H   H387      1.0  0.02394  0.30200  0.78999  1.0000
  H   H388      1.0  0.14584  0.39032  0.77806  1.0000
  C   C227      1.0  0.14570  0.39449  0.80691  1.0000
  S   S67       1.0  0.08883  0.38713  0.66848  1.0000
  C   C228      1.0  0.04113  0.35868  0.77689  1.0000
  H   H389      1.0  0.03171  0.34463  0.69503  1.0000
  H   H390      1.0  0.16509  0.45653  0.89873  1.0000
  H   H391      1.0  0.01113  0.32664  0.68305  1.0000
  Fe  Fe34      1.0  0.07043  0.36538  0.66666  1.0000
  H   H392      1.0  0.04424  0.30140  0.77257  1.0000
  C   C229      1.0  0.03004  0.30839  0.77604  1.0000
  Fe  Fe35      1.0  0.23019  0.39874  0.90183  1.0000
  C   C230      1.0  0.18792  0.46514  0.90877  1.0000
  H   H393      1.0  0.06349  0.34991  0.74405  1.0000
  H   H394      1.0  0.15223  0.35542  0.81411  1.0000
  H   H395      1.0  0.07859  0.32851  0.74344  1.0000
  H   H396      1.0  0.17779  0.36040  0.93357  1.0000
  S   S68       1.0  0.05163  0.43518  0.67845  1.0000
  H   H397      1.0  0.22379  0.41429  0.97935  1.0000
  C   C231      1.0  0.06291  0.33100  0.77091  1.0000
  H   H398      1.0  0.18218  0.45872  0.92285  1.0000
  C   C232      1.0  0.04839  0.44816  0.86363  1.0000
  H   H399      1.0  0.03009  0.33365  0.80965  1.0000
  C   C233      1.0  0.16406  0.36003  0.94227  1.0000
  H   H400      1.0  0.13220  0.31146  0.70266  1.0000
  H   H401      1.0  0.19179  0.35190  0.96203  1.0000
  H   H402      1.0  0.16253  0.48064  0.90053  1.0000
  H   H403      1.0  0.10327  0.33838  0.66065  1.0000
  H   H404      1.0  0.21430  0.42705  0.94888  1.0000
  H   H405      1.0  0.19533  0.42641  0.86718  1.0000
  H   H406      1.0  0.01536  0.33405  0.78389  1.0000
  H   H407      1.0  0.14457  0.35810  0.83833  1.0000
  H   H408      1.0  0.04699  0.46255  0.85569  1.0000
  H   H409      1.0  0.03278  0.45226  0.90179  1.0000
  Fe  Fe36      1.0  0.21575  0.37882  0.93900  1.0000
  H   H410      1.0  0.04237  0.47205  0.68916  1.0000
  H   H411      1.0  0.04001  0.36315  0.76184  1.0000
  H   H412      1.0  0.04018  0.47642  0.91695  1.0000
  C   C234      1.0  0.06519  0.45365  0.67693  1.0000
  H   H413      1.0  0.04662  0.42278  0.89544  1.0000
  N   N16       1.0  0.08891  0.43739  0.73276  1.0000
  C   C235      1.0  0.10221  0.42137  0.72550  1.0000
  C   C236      1.0  0.08918  0.43544  0.75362  1.0000
  C   C237      1.0  0.09565  0.45558  0.72330  1.0000
  C   C238      1.0  0.07005  0.43597  0.72795  1.0000
  C   C239      1.0  0.10608  0.42195  0.70401  1.0000
  C   C240      1.0  0.08372  0.41686  0.76481  1.0000
  H   H414      1.0  0.99862  0.43138  0.72181  1.0000
  C   C241      1.0  0.05383  0.45025  0.73495  1.0000
  N   N17       1.0  0.17946  0.47317  0.87514  1.0000
  H   H415      1.0  0.09710  0.40765  0.73081  1.0000
  H   H416      1.0  0.08002  0.44687  0.76014  1.0000
  H   H417      1.0  0.10327  0.43679  0.75660  1.0000
  H   H418      1.0  0.11108  0.45402  0.72103  1.0000
  H   H419      1.0  0.11210  0.43469  0.69695  1.0000
  H   H420      1.0  0.07029  0.43776  0.71256  1.0000
  H   H421      1.0  0.06606  0.42166  0.73235  1.0000
  C   C242      1.0  0.14864  0.31802  0.66363  1.0000
  H   H422      1.0  0.06724  0.41853  0.88061  1.0000
  C   C243      1.0  0.22694  0.43141  0.95258  1.0000
  H   H423      1.0  0.08264  0.41768  0.77997  1.0000
  H   H424      1.0  0.17295  0.36239  0.97685  1.0000
  H   H425      1.0  0.11202  0.32858  0.69867  1.0000
  H   H426      1.0  0.05170  0.31131  0.82488  1.0000
  H   H427      1.0  0.05126  0.34317  0.80753  1.0000
  H   H428      1.0  0.05426  0.45336  0.74922  1.0000
  C   C244      1.0  0.02361  0.36871  0.78754  1.0000
  H   H429      1.0  0.05723  0.43901  0.85399  1.0000
  H   H430      1.0  0.17970  0.37146  0.81402  1.0000
  H   H431      1.0  0.06705  0.31575  0.77444  1.0000
  C   C245      1.0  0.09393  0.46732  0.66786  1.0000
  H   H432      1.0  0.13302  0.32718  0.95481  1.0000
  H   H433      1.0  0.07393  0.33762  0.77536  1.0000
  C   C246      1.0  0.09068  0.44390  0.86431  1.0000
  C   C247      1.0  0.19086  0.48919  0.87274  1.0000
  C   C248      1.0  0.07025  0.42493  0.90798  1.0000
  S   S69       1.0  0.23307  0.42813  0.88778  1.0000
  C   C249      1.0  0.07501  0.45633  0.87499  1.0000
  C   C250      1.0  0.13066  0.34076  0.96043  1.0000
  H   H434      1.0  0.05436  0.32818  0.74378  1.0000
  H   H435      1.0  0.18039  0.40402  0.80472  1.0000
  H   H436      1.0  0.15435  0.30369  0.66963  1.0000
  H   H437      1.0  0.05315  0.36491  0.77969  1.0000
  C   C251      1.0  0.08976  0.47304  0.73352  1.0000
  H   H438      1.0  0.17698  0.40411  0.84703  1.0000
  H   H439      1.0  0.14620  0.42590  0.84219  1.0000
  H   H440      1.0  0.09437  0.48546  0.72408  1.0000
  H   H441      1.0  0.09572  0.43116  0.87349  1.0000
  H   H442      1.0  0.08670  0.43971  0.85168  1.0000
  H   H443      1.0  0.10261  0.45193  0.85954  1.0000
  H   H444      1.0  0.15163  0.39119  0.85280  1.0000
  C   C252      1.0  0.22579  0.42910  0.97412  1.0000
  H   H445      1.0  0.11586  0.42049  0.73060  1.0000
  H   H446      1.0  0.01462  0.49062  0.86284  1.0000
  S   S70       1.0  0.02666  0.36324  0.72788  1.0000
  H   H447      1.0  0.19270  0.47843  0.91064  1.0000
  C   C253      1.0  0.17314  0.32598  0.95180  1.0000
  H   H448      1.0  0.02350  0.36603  0.80292  1.0000
  H   H449      1.0  0.09449  0.40493  0.76198  1.0000
  H   H450      1.0  0.11789  0.34055  0.97070  1.0000
  S   S71       1.0  0.20527  0.38476  0.96836  1.0000
  C   C254      1.0  0.11837  0.33862  0.66028  1.0000
  C   C255      1.0  0.11876  0.30740  0.67891  1.0000
  C   C256      1.0  0.17842  0.34927  0.97065  1.0000
  C   C257      1.0  0.00849  0.41929  0.71767  1.0000
  C   C258      1.0  0.19130  0.45666  0.86714  1.0000
  H   H451      1.0  0.02921  0.42682  0.87267  1.0000
  H   H452      1.0  0.09357  0.42062  0.69789  1.0000
  H   H453      1.0  0.06981  0.31311  0.80581  1.0000
  H   H454      1.0  0.00413  0.41903  0.68915  1.0000
  H   H455      1.0  0.19999  0.45542  0.90356  1.0000
  H   H456      1.0  0.20383  0.48644  0.84368  1.0000
  H   H457      1.0  0.12548  0.29260  0.68046  1.0000
  H   H458      1.0  0.02332  0.38409  0.78355  1.0000
  H   H459      1.0  0.03608  0.47218  0.88509  1.0000
  H   H460      1.0  0.18987  0.43299  0.88997  1.0000
  H   H461      1.0  0.09663  0.47178  0.74627  1.0000
  H   H462      1.0  0.14384  0.38111  0.95607  1.0000
  C   C259      1.0  0.99247  0.35186  0.84232  1.0000
  S   S72       1.0  0.21747  0.35147  0.92785  1.0000
  C   C260      1.0  0.06464  0.33474  0.74936  1.0000
  C   C261      1.0  0.02900  0.44174  0.86654  1.0000
  H   H463      1.0  0.20612  0.45642  0.86881  1.0000
  H   H464      1.0  0.15411  0.32625  0.93063  1.0000
  H   H465      1.0  0.02187  0.42458  0.71197  1.0000
  H   H466      1.0  0.21261  0.43746  0.97925  1.0000
  H   H467      1.0  0.16782  0.38536  0.95387  1.0000
  C   C262      1.0  0.05679  0.47058  0.68324  1.0000
  C   C263      1.0  0.17276  0.46887  0.89573  1.0000
  C   C264      1.0  0.01862  0.34199  0.70319  1.0000
  N   N18       1.0  0.16526  0.34459  0.95860  1.0000
  C   C265      1.0  0.06693  0.48574  0.68195  1.0000
  C   C266      1.0  0.16812  0.37348  0.82554  1.0000
  H   H468      1.0  0.14351  0.46070  0.88058  1.0000
  C   C267      1.0  0.15745  0.38006  0.94720  1.0000
  H   H469      1.0  0.13813  0.40888  0.80454  1.0000
  H   H470      1.0  0.12615  0.41687  0.85496  1.0000
  H   H471      1.0  0.12746  0.42225  0.83024  1.0000
  C   C268      1.0  0.13577  0.41656  0.84170  1.0000
  C   C269      1.0  0.15680  0.35691  0.82754  1.0000
  H   H472      1.0  0.17497  0.37174  0.83843  1.0000
  C   C270      1.0  0.05177  0.46968  0.90760  1.0000
  H   H473      1.0  0.12776  0.35251  0.94923  1.0000
  H   H474      1.0  0.19647  0.39772  0.83027  1.0000
  H   H475      1.0  0.16508  0.40112  0.78133  1.0000
  H   H476      1.0  0.16375  0.42134  0.81356  1.0000
  H   H477      1.0  0.13473  0.38511  0.81071  1.0000
  H   H478      1.0  0.08107  0.45954  0.88692  1.0000
  H   H479      1.0  0.04997  0.30168  0.80425  1.0000
  H   H480      1.0  0.13288  0.38767  0.84214  1.0000
  H   H481      1.0  0.18703  0.42202  0.83151  1.0000
  C   C271      1.0  0.15616  0.39023  0.78773  1.0000
  N   N19       1.0  0.15733  0.39278  0.82253  1.0000
  C   C272      1.0  0.14455  0.39613  0.84025  1.0000
  H   H482      1.0  0.16442  0.37617  0.78842  1.0000
  H   H483      1.0  0.09049  0.43909  0.66430  1.0000
  H   H484      1.0  0.15576  0.38974  0.93408  1.0000
  H   H485      1.0  0.11929  0.34608  0.67217  1.0000
  C   C273      1.0  0.04370  0.46033  0.89359  1.0000
  N   N20       1.0  0.04430  0.33756  0.78125  1.0000
  C   C274      1.0  0.06006  0.42826  0.89060  1.0000
  H   H486      1.0  0.20370  0.48488  0.87940  1.0000
  C   C275      1.0  0.00230  0.40966  0.70267  1.0000
  H   H487      1.0  0.08058  0.28431  0.66527  1.0000
  C   C276      1.0  0.14679  0.34327  0.97053  1.0000
  H   H488      1.0  0.01075  0.36496  0.78381  1.0000
  H   H489      1.0  0.07272  0.31829  0.66846  1.0000
  H   H490      1.0  0.05967  0.48112  0.90023  1.0000
  H   H491      1.0  0.14779  0.33124  0.98191  1.0000
  H   H492      1.0  0.08503  0.48528  0.83242  1.0000
  H   H493      1.0  0.00527  0.39309  0.67134  1.0000
  H   H494      1.0  0.14244  0.35592  0.97780  1.0000
  C   C277      1.0  0.18306  0.33434  0.98732  1.0000
  H   H495      1.0  0.07465  0.47615  0.73719  1.0000
  C   C278      1.0  0.99621  0.34534  0.73084  1.0000
  H   H496      1.0  0.10421  0.30683  0.67690  1.0000
  H   H497      1.0  0.01473  0.45291  0.66827  1.0000
  H   H498      1.0  0.18288  0.09597  0.66498  1.0000
  H   H499      1.0  0.16642  0.32568  0.68175  1.0000
  H   H500      1.0  0.18909  0.32053  0.98296  1.0000
  C   C279      1.0  0.05458  0.31351  0.80935  1.0000
  C   C280      1.0  0.18972  0.10874  0.66018  1.0000
  C   C281      1.0  0.23417  0.35901  0.97894  1.0000
  N   N21       1.0  0.12831  0.31884  0.66222  1.0000
  H   H501      1.0  0.23530  0.01286  0.66057  1.0000
  H   H502      1.0  0.16731  0.48361  0.84957  1.0000
  H   H503      1.0  0.22791  0.46329  0.98129  1.0000
  H   H504      1.0  0.15534  0.49312  0.86975  1.0000
  C   C282      1.0  0.16295  0.47995  0.86481  1.0000
  H   H505      1.0  0.13649  0.47386  0.85979  1.0000
  H   H506      1.0  0.99710  0.33956  0.83537  1.0000
  H   H507      1.0  0.15416  0.45472  0.85755  1.0000
  H   H508      1.0  0.99050  0.38425  0.73032  1.0000
  H   H509      1.0  0.01384  0.25797  0.66906  1.0000
  H   H510      1.0  0.19567  0.11179  0.67232  1.0000
  H   H511      1.0  0.16467  0.12701  0.66577  1.0000
  H   H512      1.0  0.15149  0.09854  0.66163  1.0000
  C   C283      1.0  0.22054  0.37352  0.98406  1.0000
  H   H513      1.0  0.99091  0.37525  0.70007  1.0000
  H   H514      1.0  0.10829  0.46608  0.66170  1.0000
  H   H515      1.0  0.23878  0.42221  0.94615  1.0000
  C   C284      1.0  0.99015  0.39265  0.67365  1.0000
  C   C285      1.0  0.00328  0.45578  0.65945  1.0000
  C   C286      1.0  0.06934  0.56662  0.22823  1.0000
  H   H516      1.0  0.19168  0.58908  0.20884  1.0000
  H   H517      1.0  0.04928  0.52847  0.24727  1.0000
  H   H518      1.0  0.07827  0.57773  0.26604  1.0000
  H   H519      1.0  0.14634  0.55829  0.17777  1.0000
  S   S73       1.0  0.10381  0.57861  0.29598  1.0000
  Fe  Fe37      1.0  0.13302  0.51898  0.17776  1.0000
  H   H520      1.0  0.03793  0.52373  0.27098  1.0000
  S   S74       1.0  0.15191  0.53071  0.15210  1.0000
  Fe  Fe38      1.0  0.09313  0.51975  0.19906  1.0000
  C   C287      1.0  0.18334  0.58159  0.22069  1.0000
  S   S75       1.0  0.06232  0.53052  0.20593  1.0000
  Fe  Fe39      1.0  0.12704  0.51423  0.22019  1.0000
  C   C288      1.0  0.00932  0.52569  0.19934  1.0000
  C   C289      1.0  0.03904  0.53429  0.25828  1.0000
  H   H521      1.0  0.07858  0.56269  0.21553  1.0000
  S   S76       1.0  0.11637  0.53710  0.19873  1.0000
  C   C290      1.0  0.99780  0.53535  0.32088  1.0000
  C   C291      1.0  0.04299  0.52517  0.19675  1.0000
  C   C292      1.0  0.04494  0.51733  0.18010  1.0000
  H   H522      1.0  0.06967  0.51436  0.26908  1.0000
  H   H523      1.0  0.03085  0.50835  0.15985  1.0000
  H   H524      1.0  0.05858  0.51421  0.17250  1.0000
  H   H525      1.0  0.07128  0.58121  0.22932  1.0000
  H   H526      1.0  0.03961  0.57863  0.28977  1.0000
  C   C293      1.0  0.11468  0.56124  0.28228  1.0000
  C   C294      1.0  0.11787  0.56566  0.26277  1.0000
  C   C295      1.0  0.12524  0.55159  0.25151  1.0000
  C   C296      1.0  0.12979  0.53317  0.25982  1.0000
  C   C297      1.0  0.12708  0.52887  0.27933  1.0000
  C   C298      1.0  0.11928  0.54283  0.29055  1.0000
  H   H527      1.0  0.11435  0.57993  0.25638  1.0000
  H   H528      1.0  0.12748  0.55499  0.23646  1.0000
  H   H529      1.0  0.09224  0.52217  0.26506  1.0000
  H   H530      1.0  0.11691  0.53935  0.30561  1.0000
  C   C299      1.0  0.21594  0.52415  0.14080  1.0000
  C   C300      1.0  0.20687  0.51519  0.15742  1.0000
  C   C301      1.0  0.18739  0.51650  0.16081  1.0000
  C   C302      1.0  0.17660  0.52736  0.14788  1.0000
  C   C303      1.0  0.18565  0.53633  0.13127  1.0000
  C   C304      1.0  0.20517  0.53462  0.12765  1.0000
  H   H531      1.0  0.20798  0.57320  0.16261  1.0000
  H   H532      1.0  0.18073  0.50928  0.17352  1.0000
  H   H533      1.0  0.17750  0.54472  0.12111  1.0000
  H   H534      1.0  0.21186  0.54164  0.11482  1.0000
  H   H535      1.0  0.07552  0.53849  0.24140  1.0000
  C   C305      1.0  0.04303  0.55310  0.26302  1.0000
  S   S77       1.0  0.13946  0.51540  0.24619  1.0000
  H   H536      1.0  0.08943  0.55412  0.24643  1.0000
  H   H537      1.0  0.14891  0.57250  0.20607  1.0000
  H   H538      1.0  0.16522  0.53514  0.19097  1.0000
  S   S78       1.0  0.10881  0.50359  0.17622  1.0000
  H   H539      1.0  0.05667  0.58546  0.25750  1.0000
  H   H540      1.0  0.17449  0.50947  0.21482  1.0000
  C   C306      1.0  0.07487  0.55274  0.24528  1.0000
  H   H541      1.0  0.08286  0.51293  0.28794  1.0000
  H   H542      1.0  0.05501  0.56595  0.22576  1.0000
  C   C307      1.0  0.02916  0.51403  0.17296  1.0000
  C   C308      1.0  0.02508  0.52941  0.20625  1.0000
  C   C309      1.0  0.06365  0.57481  0.26767  1.0000
  H   H543      1.0  0.03468  0.55476  0.27683  1.0000
  H   H544      1.0  0.05982  0.53961  0.29167  1.0000
  N   N22       1.0  0.06293  0.55514  0.26370  1.0000
  C   C310      1.0  0.07060  0.54146  0.27932  1.0000
  C   C311      1.0  0.01127  0.51802  0.18257  1.0000
  N   N23       1.0  0.17639  0.55764  0.20026  1.0000
  C   C312      1.0  0.18237  0.56108  0.21824  1.0000
  H   H545      1.0  0.02578  0.53653  0.25236  1.0000
  H   H546      1.0  0.02338  0.53568  0.21900  1.0000
  H   H547      1.0  0.03639  0.56467  0.25343  1.0000
  C   C313      1.0  0.07916  0.52167  0.27483  1.0000
  C   C314      1.0  0.05466  0.57956  0.28721  1.0000
  H   H548      1.0  0.05635  0.59428  0.28823  1.0000
  H   H549      1.0  0.13079  0.51467  0.28581  1.0000
  H   H550      1.0  0.06161  0.57082  0.29855  1.0000
  H   H551      1.0  0.08184  0.54707  0.28445  1.0000
  H   H552      1.0  0.99566  0.52891  0.20684  1.0000
  H   H553      1.0  0.14309  0.58314  0.17319  1.0000
  H   H554      1.0  0.19621  0.55309  0.22018  1.0000
  H   H555      1.0  0.19139  0.58710  0.17627  1.0000
  H   H556      1.0  0.22606  0.51451  0.03459  1.0000
  C   C315      1.0  0.01612  0.53832  0.31447  1.0000
  H   H557      1.0  0.16453  0.57071  0.16425  1.0000
  C   C316      1.0  0.18175  0.52209  0.21231  1.0000
  H   H558      1.0  0.02393  0.53089  0.30347  1.0000
  H   H559      1.0  0.17270  0.55578  0.23057  1.0000
  C   C317      1.0  0.16882  0.53905  0.20399  1.0000
  H   H560      1.0  0.20408  0.54579  0.18981  1.0000
  H   H561      1.0  0.15567  0.53998  0.21381  1.0000
  C   C318      1.0  0.15352  0.57082  0.17642  1.0000
  H   H562      1.0  0.18913  0.55042  0.17288  1.0000
  C   C319      1.0  0.02469  0.54991  0.32327  1.0000
  H   H563      1.0  0.19453  0.51882  0.20261  1.0000
  C   C320      1.0  0.20143  0.57423  0.17726  1.0000
  H   H564      1.0  0.16482  0.58682  0.19296  1.0000
  H   H565      1.0  0.18990  0.58169  0.23341  1.0000
  H   H566      1.0  0.21231  0.57588  0.18564  1.0000
  C   C321      1.0  0.23449  0.53133  0.00860  1.0000
  C   C322      1.0  0.19259  0.55624  0.18496  1.0000
  C   C323      1.0  0.16087  0.57250  0.19470  1.0000
  H   H567      1.0  0.18524  0.52392  0.22611  1.0000
  H   H568      1.0  0.16926  0.58949  0.22306  1.0000
  S   S79       1.0  0.14486  0.49736  0.19944  1.0000
  H   H569      1.0  0.00100  0.57507  0.27535  1.0000
  H   H570      1.0  0.21499  0.50720  0.16781  1.0000
  C   C324      1.0  0.23333  0.52616  0.02801  1.0000
  H   H571      1.0  0.03898  0.55167  0.31885  1.0000
  S   S80       1.0  0.10288  0.49852  0.22239  1.0000
  H   H572      1.0  0.99458  0.55536  0.25555  1.0000
  S   S81       1.0  0.99204  0.51233  0.17349  1.0000
  S   S82       1.0  0.22485  0.51840  0.99494  1.0000
  Fe  Fe40      1.0  0.09323  0.56727  0.32555  1.0000
  Fe  Fe41      1.0  0.11010  0.74167  0.60513  1.0000
  S   S83       1.0  0.12419  0.71567  0.59319  1.0000
  S   S84       1.0  0.13029  0.76104  0.61001  1.0000
  Fe  Fe42      1.0  0.07208  0.72932  0.60515  1.0000
  S   S85       1.0  0.08362  0.70304  0.59239  1.0000
  S   S86       1.0  0.04128  0.73502  0.61433  1.0000
  Fe  Fe43      1.0  0.10405  0.69926  0.61303  1.0000
  S   S87       1.0  0.11524  0.67095  0.62852  1.0000
  Fe  Fe44      1.0  0.10258  0.72169  0.57391  1.0000
  S   S88       1.0  0.11331  0.72311  0.54326  1.0000
  S   S89       1.0  0.09169  0.72473  0.62686  1.0000
  S   S90       1.0  0.08931  0.74843  0.58480  1.0000
  Fe  Fe45      1.0  0.08116  0.69426  0.46172  1.0000
  S   S91       1.0  0.10609  0.69432  0.43980  1.0000
  S   S92       1.0  0.07858  0.67980  0.49138  1.0000
  Fe  Fe46      1.0  0.05635  0.71878  0.43647  1.0000
  S   S93       1.0  0.07910  0.72160  0.41235  1.0000
  S   S94       1.0  0.02591  0.72936  0.43765  1.0000
  Fe  Fe47      1.0  0.08677  0.69040  0.41993  1.0000
  S   S95       1.0  0.09365  0.67391  0.39489  1.0000
  Fe  Fe48      1.0  0.09685  0.72548  0.43379  1.0000
  S   S96       1.0  0.12073  0.74337  0.42820  1.0000
  S   S97       1.0  0.06275  0.68759  0.44254  1.0000
  S   S98       1.0  0.07323  0.72542  0.45723  1.0000
  H   H573      1.0  0.23557  0.82976  0.53594  1.0000
  C   C325      1.0  0.23730  0.87209  0.61921  1.0000
  H   H574      1.0  0.99723  0.77860  0.62011  1.0000
  H   H575      1.0  0.99329  0.78129  0.59608  1.0000
  C   C326      1.0  0.23698  0.85348  0.41076  1.0000
  C   C327      1.0  0.20758  0.95876  0.41833  1.0000
  S   S99       1.0  0.02567  0.57117  0.35113  1.0000
  H   H576      1.0  0.12583  0.71894  0.35726  1.0000
  Fe  Fe49      1.0  0.08889  0.53307  0.35450  1.0000
  H   H577      1.0  0.16139  0.96725  0.46699  1.0000
  H   H578      1.0  0.12531  0.86824  0.62320  1.0000
  Fe  Fe50      1.0  0.08793  0.57249  0.36687  1.0000
  S   S100      1.0  0.09037  0.58706  0.39188  1.0000
  Fe  Fe51      1.0  0.05642  0.56368  0.34862  1.0000
  H   H579      1.0  0.03532  0.58867  0.41028  1.0000
  S   S101      1.0  0.06907  0.55007  0.37404  1.0000
  H   H580      1.0  0.03786  0.65434  0.38480  1.0000
  S   S102      1.0  0.10924  0.55429  0.34933  1.0000
  Fe  Fe52      1.0  0.19782  0.87487  0.56358  1.0000
  S   S103      1.0  0.16866  0.88627  0.55917  1.0000
  S   S104      1.0  0.22102  0.86792  0.54112  1.0000
  Fe  Fe53      1.0  0.18996  0.87283  0.60507  1.0000
  S   S105      1.0  0.15982  0.88396  0.60458  1.0000
  H   H581      1.0  0.23069  0.82822  0.42865  1.0000
  Fe  Fe54      1.0  0.16057  0.86433  0.58322  1.0000
  S   S106      1.0  0.13680  0.84765  0.58216  1.0000
  Fe  Fe55      1.0  0.17026  0.90496  0.58078  1.0000
  S   S107      1.0  0.15777  0.93570  0.57553  1.0000
  S   S108      1.0  0.18978  0.85162  0.58581  1.0000
  S   S109      1.0  0.20034  0.89516  0.58298  1.0000
  Fe  Fe56      1.0  0.15523  0.83808  0.44472  1.0000
  S   S110      1.0  0.18422  0.82299  0.44039  1.0000
  S   S111      1.0  0.12845  0.82629  0.44336  1.0000
  Fe  Fe57      1.0  0.16796  0.87206  0.45812  1.0000
  S   S112      1.0  0.19737  0.85878  0.45545  1.0000
  S   S113      1.0  0.16242  0.89906  0.47145  1.0000
  Fe  Fe58      1.0  0.19234  0.85148  0.42826  1.0000
  C   C328      1.0  0.13776  0.63567  0.56453  1.0000
  Fe  Fe59      1.0  0.18660  0.83197  0.46787  1.0000
  S   S114      1.0  0.20047  0.81361  0.49055  1.0000
  S   S115      1.0  0.16309  0.86623  0.43003  1.0000
  S   S116      1.0  0.15741  0.84551  0.47310  1.0000
  H   H582      1.0  0.06800  0.87896  0.45531  1.0000
  H   H583      1.0  0.10059  0.92797  0.46485  1.0000
  H   H584      1.0  0.22204  0.93375  0.38060  1.0000
  C   C329      1.0  0.03373  0.51678  0.39590  1.0000
  C   C330      1.0  0.21400  0.85203  0.52879  1.0000
  C   C331      1.0  0.22410  0.83420  0.52802  1.0000
  C   C332      1.0  0.21947  0.82209  0.51677  1.0000
  C   C333      1.0  0.20509  0.82802  0.50590  1.0000
  C   C334      1.0  0.19478  0.84570  0.50695  1.0000
  C   C335      1.0  0.19906  0.85759  0.51862  1.0000
  H   H585      1.0  0.11932  0.78560  0.64906  1.0000
  H   H586      1.0  0.00726  0.64865  0.38023  1.0000
  H   H587      1.0  0.18352  0.85028  0.49875  1.0000
  H   H588      1.0  0.19112  0.87130  0.51926  1.0000
  C   C336      1.0  0.16191  0.95557  0.45927  1.0000
  C   C337      1.0  0.16268  0.93709  0.46863  1.0000
  C   C338      1.0  0.16300  0.92183  0.45880  1.0000
  C   C339      1.0  0.16266  0.92520  0.43946  1.0000
  C   C340      1.0  0.16127  0.94373  0.43021  1.0000
  H   H589      1.0  0.16264  0.93461  0.48363  1.0000
  H   H590      1.0  0.16286  0.91359  0.43173  1.0000
  H   H591      1.0  0.17807  0.72413  0.35478  1.0000
  C   C341      1.0  0.17808  0.98561  0.59501  1.0000
  C   C342      1.0  0.18630  0.96714  0.60008  1.0000
  C   C343      1.0  0.18010  0.95173  0.59443  1.0000
  C   C344      1.0  0.16542  0.95461  0.58381  1.0000
  C   C345      1.0  0.15710  0.97307  0.57885  1.0000
  H   H592      1.0  0.10110  0.86757  0.62639  1.0000
  H   H593      1.0  0.19753  0.96472  0.60847  1.0000
  H   H594      1.0  0.18663  0.93764  0.59838  1.0000
  H   H595      1.0  0.14568  0.97546  0.57070  1.0000
  H   H596      1.0  0.18011  0.83251  0.63015  1.0000
  H   H597      1.0  0.09221  0.66037  0.59519  1.0000
  C   C346      1.0  0.99670  0.72169  0.59528  1.0000
  H   H598      1.0  0.14058  0.62486  0.59417  1.0000
  C   C347      1.0  0.20226  0.99073  0.38631  1.0000
  H   H599      1.0  0.22326  0.98873  0.41579  1.0000
  C   C348      1.0  0.00155  0.72399  0.57587  1.0000
  H   H600      1.0  0.00714  0.57789  0.64790  1.0000
  H   H601      1.0  0.15941  0.65515  0.58114  1.0000
  S   S117      1.0  0.07448  0.54496  0.32962  1.0000
  H   H602      1.0  0.03674  0.67801  0.53529  1.0000
  C   C349      1.0  0.20270  0.91574  0.52418  1.0000
  H   H603      1.0  0.10796  0.73406  0.36916  1.0000
  H   H604      1.0  0.15402  0.69837  0.36021  1.0000
  H   H605      1.0  0.03555  0.60563  0.36889  1.0000
  C   C350      1.0  0.12246  0.76615  0.43355  1.0000
  C   C351      1.0  0.10695  0.77857  0.43930  1.0000
  C   C352      1.0  0.10904  0.79683  0.44237  1.0000
  C   C353      1.0  0.12663  0.80285  0.44000  1.0000
  C   C354      1.0  0.14216  0.79029  0.43461  1.0000
  C   C355      1.0  0.14006  0.77215  0.43128  1.0000
  H   H606      1.0  0.09333  0.77423  0.44105  1.0000
  H   H607      1.0  0.09691  0.80638  0.44650  1.0000
  H   H608      1.0  0.15578  0.79466  0.43266  1.0000
  H   H609      1.0  0.15217  0.76273  0.42685  1.0000
  C   C356      1.0  0.09238  0.64976  0.39441  1.0000
  C   C357      1.0  0.09465  0.64299  0.37702  1.0000
  C   C358      1.0  0.09393  0.62391  0.37594  1.0000
  C   C359      1.0  0.09124  0.61129  0.39232  1.0000
  C   C360      1.0  0.08913  0.61804  0.40970  1.0000
  C   C361      1.0  0.08950  0.63718  0.41077  1.0000
  H   H610      1.0  0.16040  0.94627  0.41535  1.0000
  H   H611      1.0  0.09568  0.61892  0.36247  1.0000
  H   H612      1.0  0.08716  0.60838  0.42245  1.0000
  H   H613      1.0  0.08784  0.64213  0.42425  1.0000
  C   C362      1.0  0.01451  0.71258  0.43068  1.0000
  H   H614      1.0  0.01566  0.63370  0.36276  1.0000
  H   H615      1.0  0.07724  0.50128  0.33060  1.0000
  H   H616      1.0  0.99496  0.52346  0.40750  1.0000
  S   S118      1.0  0.09647  0.50157  0.36277  1.0000
  H   H617      1.0  0.01865  0.71566  0.47631  1.0000
  H   H618      1.0  0.22499  0.84056  0.65682  1.0000
  H   H619      1.0  0.15582  0.72870  0.34757  1.0000
  C   C363      1.0  0.03254  0.69285  0.53762  1.0000
  H   H620      1.0  0.19316  0.94250  0.55603  1.0000
  C   C364      1.0  0.13238  0.78462  0.60003  1.0000
  C   C365      1.0  0.14931  0.79154  0.59950  1.0000
  C   C366      1.0  0.15112  0.81063  0.59345  1.0000
  C   C367      1.0  0.13591  0.82311  0.58806  1.0000
  C   C368      1.0  0.11914  0.81608  0.58806  1.0000
  C   C369      1.0  0.11740  0.79694  0.59387  1.0000
  H   H621      1.0  0.16100  0.78212  0.60418  1.0000
  H   H622      1.0  0.16417  0.81574  0.59336  1.0000
  H   H623      1.0  0.10729  0.82559  0.58388  1.0000
  H   H624      1.0  0.10428  0.79185  0.59425  1.0000
  C   C370      1.0  0.10260  0.65164  0.63665  1.0000
  C   C371      1.0  0.08350  0.65316  0.63650  1.0000
  H   H625      1.0  0.03747  0.70341  0.41074  1.0000
  H   H626      1.0  0.19707  0.90292  0.52232  1.0000
  S   S119      1.0  0.15830  0.98210  0.42794  1.0000
  H   H627      1.0  0.20176  0.93971  0.44386  1.0000
  H   H628      1.0  0.07602  0.66640  0.63122  1.0000
  C   C372      1.0  0.99635  0.71019  0.43867  1.0000
  H   H629      1.0  0.19258  0.94545  0.48906  1.0000
  H   H630      1.0  0.19298  0.97054  0.48484  1.0000
  C   C373      1.0  0.02657  0.72989  0.59940  1.0000
  C   C374      1.0  0.00908  0.72485  0.60699  1.0000
  H   H631      1.0  0.14217  0.80236  0.65667  1.0000
  H   H632      1.0  0.13582  0.64991  0.52632  1.0000
  C   C375      1.0  0.01907  0.72898  0.56829  1.0000
  C   C376      1.0  0.03165  0.73168  0.58001  1.0000
  H   H633      1.0  0.00514  0.72331  0.62199  1.0000
  H   H634      1.0  0.10820  0.70935  0.37454  1.0000
  H   H635      1.0  0.02287  0.73103  0.55331  1.0000
  H   H636      1.0  0.04506  0.73569  0.57403  1.0000
  C   C377      1.0  0.10244  0.71193  0.52909  1.0000
  C   C378      1.0  0.08967  0.69956  0.53687  1.0000
  C   C379      1.0  0.08263  0.68940  0.52527  1.0000
  C   C380      1.0  0.08773  0.69222  0.50584  1.0000
  C   C381      1.0  0.10003  0.70504  0.49805  1.0000
  C   C382      1.0  0.10756  0.71468  0.50969  1.0000
  H   H637      1.0  0.08556  0.69754  0.55181  1.0000
  H   H638      1.0  0.07319  0.67941  0.53132  1.0000
  H   H639      1.0  0.10405  0.70727  0.48307  1.0000
  H   H640      1.0  0.11744  0.72425  0.50362  1.0000
  H   H641      1.0  0.03761  0.52852  0.35797  1.0000
  C   C383      1.0  0.01796  0.68004  0.48386  1.0000
  H   H642      1.0  0.03828  0.67806  0.50207  1.0000
  N   N24       1.0  0.02911  0.62669  0.38787  1.0000
  C   C384      1.0  0.01480  0.55880  0.33814  1.0000
  H   H643      1.0  0.22739  0.80838  0.51600  1.0000
  H   H644      1.0  0.19233  0.97749  0.55276  1.0000
  S   S120      1.0  0.20187  0.86256  0.63192  1.0000
  H   H645      1.0  0.20824  0.97166  0.51002  1.0000
  H   H646      1.0  0.21341  0.89442  0.46058  1.0000
  C   C385      1.0  0.13414  0.80988  0.64539  1.0000
  H   H647      1.0  0.02838  0.58007  0.65674  1.0000
  H   H648      1.0  0.21766  0.92482  0.40529  1.0000
  H   H649      1.0  0.21248  0.96514  0.56163  1.0000
  C   C386      1.0  0.00766  0.51939  0.37854  1.0000
  H   H650      1.0  0.02934  0.74519  0.47427  1.0000
  C   C387      1.0  0.16348  0.98852  0.58427  1.0000
  H   H651      1.0  0.17230  0.69731  0.37376  1.0000
  C   C388      1.0  0.15010  0.83748  0.63404  1.0000
  C   C389      1.0  0.20147  0.94949  0.54364  1.0000
  H   H652      1.0  0.01221  0.74399  0.49440  1.0000
  H   H653      1.0  0.12687  0.63289  0.64350  1.0000
  N   N25       1.0  0.13263  0.83091  0.64502  1.0000
  H   H654      1.0  0.14501  0.66935  0.54688  1.0000
  H   H655      1.0  0.14930  0.97700  0.51751  1.0000
  H   H656      1.0  0.13055  0.68503  0.37952  1.0000
  C   C390      1.0  0.10251  0.61870  0.65045  1.0000
  H   H657      1.0  0.22873  0.83856  0.59777  1.0000
  H   H658      1.0  0.02093  0.68079  0.39985  1.0000
  H   H659      1.0  0.05402  0.62894  0.35407  1.0000
  C   C391      1.0  0.01406  0.68886  0.41078  1.0000
  N   N26       1.0  0.14506  0.70548  0.38815  1.0000
  C   C392      1.0  0.13713  0.68708  0.39169  1.0000
  C   C393      1.0  0.15413  0.70694  0.40497  1.0000
  H   H660      1.0  0.17694  0.92782  0.53850  1.0000
  C   C394      1.0  0.15080  0.66912  0.39555  1.0000
  C   C395      1.0  0.16371  0.72450  0.40424  1.0000
  C   C396      1.0  0.10758  0.86659  0.49359  1.0000
  H   H661      1.0  0.12591  0.68704  0.40375  1.0000
  C   C397      1.0  0.03745  0.60733  0.38338  1.0000
  H   H662      1.0  0.14381  0.70625  0.41786  1.0000
  H   H663      1.0  0.16513  0.69497  0.40742  1.0000
  H   H664      1.0  0.12249  0.68174  0.55083  1.0000
  C   C398      1.0  0.04313  0.64014  0.38075  1.0000
  H   H665      1.0  0.16321  0.66841  0.38490  1.0000
  H   H666      1.0  0.15487  0.66754  0.40979  1.0000
  H   H667      1.0  0.14370  0.65676  0.39515  1.0000
  H   H668      1.0  0.15438  0.73778  0.40179  1.0000
  H   H669      1.0  0.17628  0.72439  0.39374  1.0000
  H   H670      1.0  0.16834  0.72440  0.41806  1.0000
  C   C399      1.0  0.17507  0.96525  0.52818  1.0000
  H   H671      1.0  0.11529  0.86385  0.50588  1.0000
  H   H672      1.0  0.04141  0.71144  0.48171  1.0000
  C   C400      1.0  0.11728  0.72059  0.37088  1.0000
  C   C401      1.0  0.20059  0.95682  0.49003  1.0000
  H   H673      1.0  0.15061  0.83643  0.61891  1.0000
  H   H674      1.0  0.01625  0.64153  0.41107  1.0000
  C   C402      1.0  0.18665  0.93187  0.52573  1.0000
  H   H675      1.0  0.01567  0.67581  0.51399  1.0000
  H   H676      1.0  0.14204  0.80558  0.63219  1.0000
  C   C403      1.0  0.15985  0.96450  0.51609  1.0000
  H   H677      1.0  0.01418  0.61738  0.41500  1.0000
  H   H678      1.0  0.12663  0.86696  0.45034  1.0000
  C   C404      1.0  0.11458  0.88345  0.48048  1.0000
  H   H679      1.0  0.19854  0.97174  0.42186  1.0000
  C   C405      1.0  0.23807  0.84137  0.58448  1.0000
  H   H680      1.0  0.16502  0.96483  0.50108  1.0000
  H   H681      1.0  0.15995  0.73671  0.36860  1.0000
  C   C406      1.0  0.11666  0.84065  0.63498  1.0000
  H   H682      1.0  0.09278  0.86972  0.49916  1.0000
  H   H683      1.0  0.22809  0.85601  0.47775  1.0000
  C   C407      1.0  0.02347  0.68427  0.50224  1.0000
  H   H684      1.0  0.00378  0.68626  0.48149  1.0000
  H   H685      1.0  0.99750  0.70100  0.52656  1.0000
  H   H686      1.0  0.09292  0.88373  0.42980  1.0000
  S   S121      1.0  0.07377  0.58704  0.34258  1.0000
  H   H687      1.0  0.05663  0.51619  0.41151  1.0000
  C   C408      1.0  0.00162  0.71084  0.51390  1.0000
  H   H688      1.0  0.17885  0.97976  0.52523  1.0000
  H   H689      1.0  0.21435  0.97584  0.53781  1.0000
  H   H690      1.0  0.10346  0.64013  0.56026  1.0000
  C   C409      1.0  0.03395  0.70642  0.51912  1.0000
  C   C410      1.0  0.99620  0.55669  0.34371  1.0000
  H   H691      1.0  0.19796  0.95081  0.41331  1.0000
  H   H692      1.0  0.09697  0.65258  0.36427  1.0000
  H   H693      1.0  0.03428  0.53213  0.39184  1.0000
  N   N27       1.0  0.19212  0.95092  0.52632  1.0000
  H   H694      1.0  0.00198  0.51526  0.36677  1.0000
  C   C411      1.0  0.08336  0.62032  0.65061  1.0000
  H   H695      1.0  0.04862  0.70440  0.51251  1.0000
  C   C412      1.0  0.02390  0.62751  0.40857  1.0000
  H   H696      1.0  0.15252  0.95203  0.52112  1.0000
  H   H697      1.0  0.23492  0.99413  0.45776  1.0000
  H   H698      1.0  0.23131  0.88186  0.60836  1.0000
  H   H699      1.0  0.04717  0.63672  0.41878  1.0000
  H   H700      1.0  0.11829  0.83658  0.62067  1.0000
  H   H701      1.0  0.04220  0.69616  0.54660  1.0000
  C   C413      1.0  0.02343  0.70168  0.41694  1.0000
  C   C414      1.0  0.23320  0.97830  0.40847  1.0000
  S   S122      1.0  0.21439  0.86010  0.40495  1.0000
  C   C415      1.0  0.12608  0.66209  0.53069  1.0000
  H   H702      1.0  0.20501  0.90544  0.48100  1.0000
  H   H703      1.0  0.05601  0.63555  0.38726  1.0000
  C   C416      1.0  0.02615  0.73774  0.48862  1.0000
  N   N28       1.0  0.02111  0.70459  0.50542  1.0000
  H   H704      1.0  0.15048  0.85256  0.63487  1.0000
  C   C417      1.0  0.04022  0.62394  0.42018  1.0000
  H   H705      1.0  0.18975  0.98969  0.39676  1.0000
  H   H706      1.0  0.03605  0.57741  0.39015  1.0000
  N   N29       1.0  0.14805  0.79178  0.53235  1.0000
  C   C418      1.0  0.15010  0.77689  0.54904  1.0000
  C   C419      1.0  0.16520  0.80152  0.52867  1.0000
  C   C420      1.0  0.14637  0.78211  0.51579  1.0000
  C   C421      1.0  0.13082  0.80512  0.53709  1.0000
  C   C422      1.0  0.13446  0.76433  0.55446  1.0000
  C   C423      1.0  0.16902  0.81145  0.54469  1.0000
  C   C424      1.0  0.15403  0.79115  0.49610  1.0000
  C   C425      1.0  0.12721  0.82263  0.52276  1.0000
  H   H707      1.0  0.16339  0.76746  0.54672  1.0000
  H   H708      1.0  0.15066  0.78324  0.56182  1.0000
  H   H709      1.0  0.16488  0.81239  0.51624  1.0000
  H   H710      1.0  0.17768  0.79131  0.52520  1.0000
  H   H711      1.0  0.15390  0.76757  0.51708  1.0000
  H   H712      1.0  0.13169  0.78032  0.51540  1.0000
  H   H713      1.0  0.11828  0.79788  0.53895  1.0000
  H   H714      1.0  0.13098  0.81003  0.55075  1.0000
  H   H715      1.0  0.13831  0.75310  0.56587  1.0000
  H   H716      1.0  0.12128  0.77227  0.56011  1.0000
  H   H717      1.0  0.13216  0.75726  0.54275  1.0000
  H   H718      1.0  0.15741  0.82218  0.54888  1.0000
  H   H719      1.0  0.17257  0.80139  0.55702  1.0000
  H   H720      1.0  0.18124  0.81897  0.53980  1.0000
  H   H721      1.0  0.16940  0.78925  0.49411  1.0000
  H   H722      1.0  0.14900  0.80622  0.49306  1.0000
  H   H723      1.0  0.14972  0.78400  0.48535  1.0000
  H   H724      1.0  0.13857  0.83147  0.52036  1.0000
  H   H725      1.0  0.11454  0.83144  0.52835  1.0000
  H   H726      1.0  0.12454  0.81889  0.50937  1.0000
  H   H727      1.0  0.21349  0.95426  0.48025  1.0000
  H   H728      1.0  0.02784  0.68479  0.47160  1.0000
  H   H729      1.0  0.12809  0.67404  0.51942  1.0000
  H   H730      1.0  0.99836  0.60897  0.37856  1.0000
  H   H731      1.0  0.99439  0.75014  0.41038  1.0000
  C   C426      1.0  0.16084  0.95901  0.44005  1.0000
  H   H732      1.0  0.21318  0.91873  0.51192  1.0000
  H   H733      1.0  0.11167  0.65920  0.53126  1.0000
  H   H734      1.0  0.01515  0.59102  0.39846  1.0000
  H   H735      1.0  0.06072  0.88517  0.47802  1.0000
  H   H736      1.0  0.01869  0.66461  0.48432  1.0000
  H   H737      1.0  0.20681  0.88066  0.48287  1.0000
  C   C427      1.0  0.11598  0.80115  0.64753  1.0000
  H   H738      1.0  0.03163  0.72079  0.52320  1.0000
  S   S123      1.0  0.07061  0.60115  0.65912  1.0000
  H   H739      1.0  0.03676  0.74046  0.49679  1.0000
  H   H740      1.0  0.20617  0.96199  0.38182  1.0000
  C   C428      1.0  0.01227  0.63377  0.37813  1.0000
  H   H741      1.0  0.10173  0.63602  0.59719  1.0000
  H   H742      1.0  0.21969  0.94889  0.51042  1.0000
  C   C429      1.0  0.07318  0.88036  0.46848  1.0000
  H   H743      1.0  0.08311  0.90398  0.47677  1.0000
  H   H744      1.0  0.08252  0.90504  0.45235  1.0000
  C   C430      1.0  0.20529  0.96819  0.54897  1.0000
  H   H745      1.0  0.21504  0.94044  0.54230  1.0000
  H   H746      1.0  0.15251  0.63801  0.56081  1.0000
  C   C431      1.0  0.13010  0.66754  0.54920  1.0000
  C   C432      1.0  0.21366  0.89290  0.47589  1.0000
  C   C433      1.0  0.08650  0.89546  0.46496  1.0000
  H   H747      1.0  0.14959  0.67199  0.59646  1.0000
  C   C434      1.0  0.16308  0.72500  0.36015  1.0000
  C   C435      1.0  0.99579  0.68673  0.41844  1.0000
  H   H748      1.0  0.07878  0.86638  0.47504  1.0000
  C   C436      1.0  0.21283  0.94832  0.43717  1.0000
  C   C437      1.0  0.09470  0.64759  0.58809  1.0000
  H   H749      1.0  0.12597  0.65327  0.59635  1.0000
  H   H750      1.0  0.08087  0.64381  0.58708  1.0000
  H   H751      1.0  0.12280  0.61568  0.58479  1.0000
  H   H752      1.0  0.22556  0.93824  0.43588  1.0000
  C   C438      1.0  0.16854  0.82708  0.64007  1.0000
  H   H753      1.0  0.11932  0.72013  0.39999  1.0000
  C   C439      1.0  0.11518  0.92237  0.46054  1.0000
  C   C440      1.0  0.11207  0.63428  0.64353  1.0000
  C   C441      1.0  0.03036  0.59039  0.39645  1.0000
  H   H754      1.0  0.21412  0.95850  0.44663  1.0000
  C   C442      1.0  0.02697  0.71666  0.48742  1.0000
  N   N30       1.0  0.10698  0.88866  0.46205  1.0000
  H   H755      1.0  0.11186  0.90914  0.43739  1.0000
  H   H756      1.0  0.11149  0.89532  0.48890  1.0000
  H   H757      1.0  0.12307  0.92016  0.47265  1.0000
  H   H758      1.0  0.12135  0.93347  0.45034  1.0000
  H   H759      1.0  0.02874  0.50204  0.64447  1.0000
  C   C443      1.0  0.15890  0.70559  0.37061  1.0000
  H   H760      1.0  0.11935  0.67580  0.58450  1.0000
  H   H761      1.0  0.17870  0.93184  0.51403  1.0000
  H   H762      1.0  0.23574  0.85663  0.58003  1.0000
  C   C444      1.0  0.11696  0.90442  0.45114  1.0000
  C   C445      1.0  0.12898  0.66259  0.58308  1.0000
  C   C446      1.0  0.13666  0.62039  0.58161  1.0000
  H   H763      1.0  0.09718  0.66437  0.56169  1.0000
  H   H764      1.0  0.14662  0.60790  0.57835  1.0000
  H   H765      1.0  0.20932  0.91226  0.53716  1.0000
  H   H766      1.0  0.06138  0.65067  0.35639  1.0000
  H   H767      1.0  0.05061  0.61211  0.41607  1.0000
  C   C447      1.0  0.20572  0.95704  0.50970  1.0000
  H   H768      1.0  0.16803  0.96380  0.54283  1.0000
  H   H769      1.0  0.13447  0.62925  0.55274  1.0000
  C   C448      1.0  0.12896  0.72085  0.38666  1.0000
  H   H770      1.0  0.13319  0.73503  0.38501  1.0000
  C   C449      1.0  0.10697  0.87607  0.43079  1.0000
  H   H771      1.0  0.10482  0.85995  0.45794  1.0000
  H   H772      1.0  0.11024  0.85349  0.48704  1.0000
  C   C450      1.0  0.10529  0.65150  0.56820  1.0000
  C   C451      1.0  0.14869  0.66740  0.58280  1.0000
  H   H773      1.0  0.00056  0.72442  0.51953  1.0000
  H   H774      1.0  0.02418  0.51535  0.40919  1.0000
  H   H775      1.0  0.05274  0.60522  0.38339  1.0000
  C   C452      1.0  0.11163  0.87223  0.45105  1.0000
  H   H776      1.0  0.13203  0.89952  0.44784  1.0000
  H   H777      1.0  0.12994  0.88039  0.47803  1.0000
  H   H778      1.0  0.11736  0.88390  0.42141  1.0000
  H   H779      1.0  0.00842  0.53474  0.37498  1.0000
  C   C453      1.0  0.07398  0.63756  0.64336  1.0000
  N   N31       1.0  0.12554  0.65400  0.56658  1.0000
  H   H780      1.0  0.15180  0.67938  0.57198  1.0000
  H   H781      1.0  0.10761  0.86247  0.42537  1.0000
  C   C454      1.0  0.04939  0.64258  0.35944  1.0000
  H   H782      1.0  0.03842  0.65081  0.35162  1.0000
  H   H783      1.0  0.23234  0.88973  0.49654  1.0000
  H   H784      1.0  0.22591  0.97378  0.37357  1.0000
  H   H785      1.0  0.03496  0.62060  0.43523  1.0000
  N   N32       1.0  0.02668  0.50884  0.38080  1.0000
  H   H786      1.0  0.01857  0.69448  0.54574  1.0000
  H   H787      1.0  0.17013  0.81178  0.63949  1.0000
  C   C455      1.0  0.03874  0.51309  0.36241  1.0000
  C   C456      1.0  0.22592  0.86116  0.63230  1.0000
  C   C457      1.0  0.23368  0.84893  0.64659  1.0000
  H   H788      1.0  0.23758  0.90586  0.47658  1.0000
  H   H789      1.0  0.10993  0.60535  0.65543  1.0000
  H   H790      1.0  0.23981  0.98653  0.39567  1.0000
  C   C458      1.0  0.23339  0.89170  0.48095  1.0000
  H   H791      1.0  0.05363  0.50910  0.36352  1.0000
  H   H792      1.0  0.23890  0.85746  0.49750  1.0000
  C   C459      1.0  0.03476  0.50385  0.34598  1.0000
  H   H793      1.0  0.05919  0.63894  0.64320  1.0000
  C   C460      1.0  0.99556  0.62277  0.38384  1.0000
  H   H794      1.0  0.04346  0.50918  0.33304  1.0000
  H   H795      1.0  0.10904  0.80517  0.63475  1.0000
  C   C461      1.0  0.05279  0.50793  0.40141  1.0000
  H   H796      1.0  0.02027  0.50716  0.34310  1.0000
  C   C462      1.0  0.23664  0.94650  0.39886  1.0000
  H   H797      1.0  0.23924  0.91816  0.39180  1.0000
  C   C463      1.0  0.11391  0.86226  0.63285  1.0000
  H   H798      1.0  0.10327  0.83617  0.64175  1.0000
  C   C464      1.0  0.21483  0.97172  0.38565  1.0000
  C   C465      1.0  0.22812  0.93007  0.39388  1.0000
  H   H799      1.0  0.02106  0.55769  0.65762  1.0000
  H   H800      1.0  0.06403  0.50824  0.38954  1.0000
  N   N33       1.0  0.22318  0.96355  0.40327  1.0000
  H   H801      1.0  0.23363  0.83384  0.57413  1.0000
  H   H802      1.0  0.11220  0.86768  0.64647  1.0000
  H   H803      1.0  0.17050  0.82978  0.65414  1.0000
  H   H804      1.0  0.23649  0.87193  0.44830  1.0000
  C   C466      1.0  0.99244  0.51702  0.39547  1.0000
  C   C467      1.0  0.01598  0.57265  0.65907  1.0000
  H   H805      1.0  0.21596  0.98970  0.65483  1.0000
  H   H806      1.0  0.23857  0.99357  0.48826  1.0000
  H   H807      1.0  0.99081  0.62123  0.39907  1.0000
  H   H808      1.0  0.99019  0.50217  0.39985  1.0000
  Fe  Fe60      1.0  0.09660  0.55409  0.71194  1.0000
  S   S124      1.0  0.11805  0.55521  0.73049  1.0000
  S   S125      1.0  0.08176  0.52885  0.71541  1.0000
  Fe  Fe61      1.0  0.07536  0.51806  0.85982  1.0000
  S   S126      1.0  0.08666  0.52179  0.82950  1.0000
  S   S127      1.0  0.04751  0.50629  0.86568  1.0000
  Fe  Fe62      1.0  0.11385  0.52336  0.87087  1.0000
  S   S128      1.0  0.12684  0.52744  0.84077  1.0000
  S   S129      1.0  0.13111  0.51843  0.89547  1.0000
  Fe  Fe63      1.0  0.09983  0.54530  0.83571  1.0000
  S   S130      1.0  0.09435  0.57073  0.81444  1.0000
  H   H809      1.0  0.99411  0.56450  0.68014  1.0000
  N   N34       1.0  0.04803  0.53399  0.78654  1.0000
  S   S131      1.0  0.08730  0.54294  0.86612  1.0000
  S   S132      1.0  0.23057  0.50559  0.94416  1.0000
  S   S133      1.0  0.21002  0.54169  0.90299  1.0000
  H   H810      1.0  0.05418  0.56155  0.78958  1.0000
  C   C468      1.0  0.18476  0.54922  0.95327  1.0000
  H   H811      1.0  0.13351  0.58564  0.95921  1.0000
  C   C469      1.0  0.15345  0.52446  0.89675  1.0000
  C   C470      1.0  0.16203  0.53732  0.88320  1.0000
  C   C471      1.0  0.17945  0.54211  0.88519  1.0000
  C   C472      1.0  0.18877  0.53388  0.90051  1.0000
  C   C473      1.0  0.18043  0.52060  0.91378  1.0000
  C   C474      1.0  0.16279  0.51618  0.91205  1.0000
  H   H812      1.0  0.15509  0.54388  0.87136  1.0000
  H   H813      1.0  0.18570  0.55241  0.87482  1.0000
  H   H814      1.0  0.18739  0.51402  0.92559  1.0000
  H   H815      1.0  0.01469  0.56651  0.68891  1.0000
  C   C475      1.0  0.13372  0.64308  0.68669  1.0000
  C   C476      1.0  0.11369  0.83158  0.67804  1.0000
  C   C477      1.0  0.01917  0.53641  0.86256  1.0000
  C   C478      1.0  0.02443  0.51705  0.86313  1.0000
  C   C479      1.0  0.01079  0.50560  0.86247  1.0000
  C   C480      1.0  0.15289  0.55153  0.94645  1.0000
  H   H816      1.0  0.06804  0.54301  0.80096  1.0000
  H   H817      1.0  0.99651  0.55903  0.86185  1.0000
  H   H818      1.0  0.08627  0.61973  0.73957  1.0000
  H   H819      1.0  0.01058  0.56329  0.76874  1.0000
  C   C481      1.0  0.11039  0.55856  0.75396  1.0000
  C   C482      1.0  0.12136  0.55002  0.76778  1.0000
  C   C483      1.0  0.11613  0.55322  0.78647  1.0000
  C   C484      1.0  0.10040  0.56573  0.79127  1.0000
  C   C485      1.0  0.08952  0.57446  0.77741  1.0000
  C   C486      1.0  0.09417  0.57044  0.75889  1.0000
  H   H820      1.0  0.13930  0.60457  0.74534  1.0000
  H   H821      1.0  0.12462  0.54646  0.79707  1.0000
  H   H822      1.0  0.07740  0.58424  0.78107  1.0000
  H   H823      1.0  0.08560  0.57706  0.74836  1.0000
  S   S134      1.0  0.02954  0.54596  0.72781  1.0000
  H   H824      1.0  0.11681  0.59825  0.74527  1.0000
  C   C487      1.0  0.14648  0.59092  0.96058  1.0000
  C   C488      1.0  0.01140  0.60614  0.67977  1.0000
  H   H825      1.0  0.04627  0.56118  0.82278  1.0000
  H   H826      1.0  0.14525  0.63322  0.68073  1.0000
  C   C489      1.0  0.02916  0.52408  0.70105  1.0000
  H   H827      1.0  0.03644  0.58674  0.68589  1.0000
  H   H828      1.0  0.10544  0.64489  0.69932  1.0000
  C   C490      1.0  0.11629  0.63359  0.69462  1.0000
  H   H829      1.0  0.18563  0.50618  0.84589  1.0000
  H   H830      1.0  0.02938  0.54543  0.86320  1.0000
  H   H831      1.0  0.01819  0.53764  0.79435  1.0000
  H   H832      1.0  0.03449  0.56483  0.76099  1.0000
  Fe  Fe64      1.0  0.23751  0.52244  0.96484  1.0000
  Fe  Fe65      1.0  0.08744  0.53066  0.68416  1.0000
  H   H833      1.0  0.12071  0.58850  0.68705  1.0000
  C   C491      1.0  0.19031  0.58531  0.92903  1.0000
  H   H834      1.0  0.18315  0.50098  0.87993  1.0000
  H   H835      1.0  0.15740  0.56612  0.97706  1.0000
  H   H836      1.0  0.13391  0.54083  0.76406  1.0000
  H   H837      1.0  0.11892  0.61684  0.75748  1.0000
  H   H838      1.0  0.15032  0.60133  0.94838  1.0000
  H   H839      1.0  0.15879  0.53747  0.94250  1.0000
  H   H840      1.0  0.06256  0.54816  0.76152  1.0000
  N   N35       1.0  0.99701  0.59291  0.68352  1.0000
  C   C492      1.0  0.06117  0.53365  0.76853  1.0000
  H   H841      1.0  0.99968  0.58205  0.71254  1.0000
  H   H842      1.0  0.14295  0.82820  0.67158  1.0000
  C   C493      1.0  0.99213  0.51331  0.86152  1.0000
  C   C494      1.0  0.13975  0.55967  0.93174  1.0000
  H   H843      1.0  0.02409  0.57062  0.78393  1.0000
  S   S135      1.0  0.10457  0.55460  0.68086  1.0000
  S   S136      1.0  0.23580  0.54946  0.94546  1.0000
  H   H844      1.0  0.05361  0.49735  0.77465  1.0000
  C   C495      1.0  0.00177  0.52169  0.68751  1.0000
  H   H845      1.0  0.20768  0.50696  0.85255  1.0000
  H   H846      1.0  0.01641  0.60888  0.66454  1.0000
  H   H847      1.0  0.11141  0.84090  0.68913  1.0000
  H   H848      1.0  0.08110  0.63429  0.71798  1.0000
  Fe  Fe66      1.0  0.07801  0.57418  0.67865  1.0000
  H   H849      1.0  0.14351  0.59856  0.97300  1.0000
  C   C496      1.0  0.05371  0.54741  0.79778  1.0000
  C   C497      1.0  0.99919  0.53618  0.71593  1.0000
  S   S137      1.0  0.06155  0.55032  0.67905  1.0000
  C   C498      1.0  0.18147  0.53478  0.97092  1.0000
  C   C499      1.0  0.02448  0.56098  0.77344  1.0000
  H   H850      1.0  0.11119  0.62914  0.68265  1.0000
  C   C500      1.0  0.13116  0.83592  0.66452  1.0000
  H   H851      1.0  0.00531  0.62016  0.68375  1.0000
  C   C501      1.0  0.02865  0.54024  0.78184  1.0000
  H   H852      1.0  0.20350  0.57577  0.92960  1.0000
  H   H853      1.0  0.04369  0.53695  0.82697  1.0000
  H   H854      1.0  0.17904  0.54152  0.98388  1.0000
  H   H855      1.0  0.13326  0.57418  0.93318  1.0000
  H   H856      1.0  0.13025  0.65417  0.67501  1.0000
  Fe  Fe67      1.0  0.05699  0.54978  0.71032  1.0000
  C   C502      1.0  0.16219  0.57479  0.96378  1.0000
  S   S138      1.0  0.07121  0.57502  0.70970  1.0000
  H   H857      1.0  0.11526  0.81675  0.68474  1.0000
  C   C503      1.0  0.08416  0.61970  0.72484  1.0000
  C   C504      1.0  0.04171  0.54979  0.81673  1.0000
  H   H858      1.0  0.19192  0.59439  0.91534  1.0000
  H   H859      1.0  0.02549  0.53186  0.77144  1.0000
  C   C505      1.0  0.01845  0.53392  0.71471  1.0000
  C   C506      1.0  0.17380  0.57434  0.92982  1.0000
  H   H860      1.0  0.02680  0.55371  0.81548  1.0000
  H   H861      1.0  0.13290  0.85088  0.66444  1.0000
  H   H862      1.0  0.05569  0.52685  0.75822  1.0000
  H   H863      1.0  0.13840  0.65012  0.69723  1.0000
  H   H864      1.0  0.18828  0.59459  0.94007  1.0000
  Fe  Fe68      1.0  0.23118  0.53203  0.92385  1.0000
  H   H865      1.0  0.17006  0.52658  0.97059  1.0000
  H   H866      1.0  0.15632  0.50623  0.92266  1.0000
  H   H867      1.0  0.04396  0.52180  0.70069  1.0000
  H   H868      1.0  0.08156  0.50857  0.77485  1.0000
  H   H869      1.0  0.19419  0.52453  0.97185  1.0000
  C   C507      1.0  0.02841  0.59985  0.69023  1.0000
  H   H870      1.0  0.99549  0.51810  0.75694  1.0000
  C   C508      1.0  0.00046  0.54409  0.86183  1.0000
  C   C509      1.0  0.02092  0.51815  0.68731  1.0000
  H   H871      1.0  0.03837  0.51501  0.81076  1.0000
  H   H872      1.0  0.19077  0.54124  0.94143  1.0000
  H   H873      1.0  0.14414  0.54857  0.96014  1.0000
  C   C510      1.0  0.00517  0.57363  0.67881  1.0000
  H   H874      1.0  0.03779  0.61084  0.68674  1.0000
  S   S139      1.0  0.10047  0.49827  0.86763  1.0000
  H   H875      1.0  0.13491  0.60569  0.67405  1.0000
  H   H876      1.0  0.02461  0.59806  0.70563  1.0000
  H   H877      1.0  0.10086  0.83466  0.67144  1.0000
  C   C511      1.0  0.13353  0.59489  0.68646  1.0000
  C   C512      1.0  0.12453  0.61025  0.74467  1.0000
  H   H878      1.0  0.10288  0.59428  0.72176  1.0000
  H   H879      1.0  0.07166  0.61273  0.72530  1.0000
  C   C513      1.0  0.10079  0.60865  0.71401  1.0000
  C   C514      1.0  0.13431  0.60281  0.70470  1.0000
  C   C515      1.0  0.12243  0.62488  0.72710  1.0000
  H   H880      1.0  0.13502  0.59052  0.71588  1.0000
  H   H881      1.0  0.13562  0.63109  0.72400  1.0000
  H   H882      1.0  0.09619  0.60653  0.70071  1.0000
  H   H883      1.0  0.99076  0.54375  0.72655  1.0000
  N   N36       1.0  0.11849  0.61747  0.71013  1.0000
  H   H884      1.0  0.14785  0.60817  0.70353  1.0000
  H   H885      1.0  0.11195  0.63685  0.73095  1.0000
  H   H886      1.0  0.19593  0.55679  0.95588  1.0000
  H   H887      1.0  0.14706  0.55917  0.91731  1.0000
  H   H888      1.0  0.14528  0.58356  0.68447  1.0000
  H   H889      1.0  0.08788  0.53004  0.78002  1.0000
  H   H890      1.0  0.12844  0.55079  0.93326  1.0000
  N   N37       1.0  0.16811  0.56279  0.94825  1.0000
  H   H891      1.0  0.17413  0.58098  0.96686  1.0000
  H   H892      1.0  0.17751  0.56517  0.91858  1.0000
  C   C516      1.0  0.99085  0.53000  0.70231  1.0000
  H   H893      1.0  0.16221  0.58475  0.92527  1.0000
  C   C517      1.0  0.08105  0.52387  0.77036  1.0000
  H   H894      1.0  0.99284  0.51056  0.78208  1.0000
  C   C518      1.0  0.04418  0.49912  0.78778  1.0000
  H   H895      1.0  0.06040  0.49870  0.68671  1.0000
  C   C519      1.0  0.04859  0.51480  0.79786  1.0000
  H   H896      1.0  0.06224  0.51029  0.80300  1.0000
  H   H897      1.0  0.02949  0.51162  0.67608  1.0000
  S   S140      1.0  0.99189  0.51702  0.66855  1.0000
  Fe  Fe69      1.0  0.11208  0.50356  0.83754  1.0000
  S   S141      1.0  0.09834  0.50349  0.67172  1.0000
  H   H898      1.0  0.02965  0.50156  0.78483  1.0000
  C   C520      1.0  0.19724  0.49745  0.85243  1.0000
  H   H899      1.0  0.08962  0.52567  0.75646  1.0000
  H   H900      1.0  0.10626  0.80473  0.65994  1.0000
  Fe  Fe70      1.0  0.45798  0.13118  0.08812  1.0000
  S   S142      1.0  0.45252  0.10337  0.08198  1.0000
  Fe  Fe71      1.0  0.41956  0.14117  0.10702  1.0000
  S   S143      1.0  0.41038  0.11424  0.10266  1.0000
  S   S144      1.0  0.40076  0.16348  0.12137  1.0000
  Fe  Fe72      1.0  0.43774  0.10059  0.11181  1.0000
  S   S145      1.0  0.44369  0.07338  0.13172  1.0000
  Fe  Fe73      1.0  0.42586  0.11936  0.07345  1.0000
  S   S146      1.0  0.41219  0.12088  0.04712  1.0000
  S   S147      1.0  0.44556  0.12734  0.11817  1.0000
  S   S148      1.0  0.43276  0.14729  0.07752  1.0000
  Fe  Fe74      1.0  0.46482  0.27735  0.06902  1.0000
  S   S149      1.0  0.45974  0.24728  0.07469  1.0000
  N   N38       1.0  0.40678  0.31991  0.00201  1.0000
  Fe  Fe75      1.0  0.42212  0.29156  0.07216  1.0000
  S   S150      1.0  0.41468  0.26218  0.07804  1.0000
  S   S151      1.0  0.40104  0.31780  0.06609  1.0000
  Fe  Fe76      1.0  0.43708  0.25672  0.09655  1.0000
  S   S152      1.0  0.43305  0.23873  0.12429  1.0000
  Fe  Fe77      1.0  0.43810  0.25545  0.05563  1.0000
  S   S153      1.0  0.43826  0.23756  0.03310  1.0000
  S   S154      1.0  0.44332  0.28662  0.09254  1.0000
  S   S155      1.0  0.44435  0.28496  0.04823  1.0000
  Fe  Fe78      1.0  0.43253  0.03843  0.24437  1.0000
  S   S156      1.0  0.43859  0.05464  0.26606  1.0000
  S   S157      1.0  0.42054  0.05850  0.22048  1.0000
  S   S158      1.0  0.45097  0.01542  0.29138  1.0000
  Fe  Fe79      1.0  0.42449  0.03432  0.28793  1.0000
  H   H901      1.0  0.24955  0.41975  0.10559  1.0000
  Fe  Fe80      1.0  0.46440  0.03428  0.26774  1.0000
  H   H902      1.0  0.35983  0.04146  0.29544  1.0000
  S   S159      1.0  0.45945  0.01920  0.24473  1.0000
  H   H903      1.0  0.35721  0.18502  0.06771  1.0000
  Fe  Fe81      1.0  0.28907  0.35566  0.07885  1.0000
  S   S160      1.0  0.26494  0.34048  0.07753  1.0000
  S   S161      1.0  0.31319  0.33520  0.09002  1.0000
  Fe  Fe82      1.0  0.26712  0.39343  0.06519  1.0000
  H   H904      1.0  0.47073  0.13451  0.02387  1.0000
  C   C521      1.0  0.29891  0.31367  0.13881  1.0000
  Fe  Fe83      1.0  0.26243  0.35846  0.04999  1.0000
  S   S162      1.0  0.26169  0.34547  0.02396  1.0000
  S   S163      1.0  0.27058  0.37809  0.09396  1.0000
  S   S164      1.0  0.28748  0.37239  0.05038  1.0000
  H   H905      1.0  0.27073  0.43659  0.11815  1.0000
  H   H906      1.0  0.37764  0.22526  0.10347  1.0000
  C   C522      1.0  0.39163  0.08573  0.25633  1.0000
  C   C523      1.0  0.45601  0.08019  0.29875  1.0000
  H   H907      1.0  0.43514  0.29046  0.00892  1.0000
  H   H908      1.0  0.48572  0.10542  0.09726  1.0000
  H   H909      1.0  0.39782  0.19734  0.03023  1.0000
  H   H910      1.0  0.38232  0.21712  0.02190  1.0000
  C   C524      1.0  0.37521  0.06167  0.27677  1.0000
  H   H911      1.0  0.27091  0.36443  0.13854  1.0000
  C   C525      1.0  0.29550  0.46600  0.07329  1.0000
  C   C526      1.0  0.30142  0.44666  0.07644  1.0000
  C   C527      1.0  0.29147  0.43376  0.07107  1.0000
  C   C528      1.0  0.27579  0.44023  0.06216  1.0000
  C   C529      1.0  0.42614  0.16735  0.99949  1.0000
  C   C530      1.0  0.27983  0.47243  0.06437  1.0000
  H   H912      1.0  0.31360  0.44162  0.08327  1.0000
  H   H913      1.0  0.29598  0.41885  0.07373  1.0000
  H   H914      1.0  0.42308  0.20129  0.04528  1.0000
  C   C531      1.0  0.44940  0.06453  0.31385  1.0000
  H   H915      1.0  0.36770  0.30322  0.02950  1.0000
  H   H916      1.0  0.30614  0.32415  0.12869  1.0000
  C   C532      1.0  0.28534  0.46539  0.12618  1.0000
  H   H917      1.0  0.43817  0.33808  0.99918  1.0000
  C   C533      1.0  0.37652  0.32209  0.07263  1.0000
  C   C534      1.0  0.36664  0.30923  0.08489  1.0000
  C   C535      1.0  0.34732  0.31344  0.08985  1.0000
  C   C536      1.0  0.33747  0.33036  0.08237  1.0000
  C   C537      1.0  0.34729  0.34307  0.06981  1.0000
  C   C538      1.0  0.36667  0.33904  0.06516  1.0000
  H   H918      1.0  0.37393  0.29617  0.09081  1.0000
  H   H919      1.0  0.34000  0.30348  0.09961  1.0000
  H   H920      1.0  0.34003  0.35622  0.06407  1.0000
  H   H921      1.0  0.37412  0.34919  0.05578  1.0000
  C   C539      1.0  0.41825  0.24361  0.02226  1.0000
  H   H922      1.0  0.37921  0.32199  0.03312  1.0000
  C   C540      1.0  0.47782  0.09723  0.15196  1.0000
  H   H923      1.0  0.37009  0.07204  0.21379  1.0000
  C   C541      1.0  0.38702  0.25965  0.02155  1.0000
  C   C542      1.0  0.40255  0.25382  0.03091  1.0000
  S   S165      1.0  0.41633  0.01931  0.26624  1.0000
  C   C543      1.0  0.37542  0.31483  0.02223  1.0000
  H   H924      1.0  0.37505  0.26792  0.02811  1.0000
  H   H925      1.0  0.40241  0.25752  0.04468  1.0000
  C   C544      1.0  0.43746  0.06969  0.15646  1.0000
  C   C545      1.0  0.44347  0.05231  0.16657  1.0000
  C   C546      1.0  0.43894  0.04879  0.18620  1.0000
  C   C547      1.0  0.42793  0.06252  0.19594  1.0000
  C   C548      1.0  0.42189  0.07987  0.18584  1.0000
  C   C549      1.0  0.42676  0.08352  0.16627  1.0000
  H   H926      1.0  0.45163  0.04145  0.15912  1.0000
  H   H927      1.0  0.44354  0.03530  0.19369  1.0000
  H   H928      1.0  0.41335  0.09061  0.19315  1.0000
  H   H929      1.0  0.42199  0.09694  0.15873  1.0000
  C   C550      1.0  0.42309  0.11510  0.02495  1.0000
  C   C551      1.0  0.41253  0.11785  0.01001  1.0000
  C   C552      1.0  0.24550  0.35628  0.00899  1.0000
  H   H930      1.0  0.47329  0.04884  0.20519  1.0000
  C   C553      1.0  0.35155  0.09721  0.28285  1.0000
  C   C554      1.0  0.44187  0.10809  0.02177  1.0000
  H   H931      1.0  0.39798  0.12316  0.01234  1.0000
  C   C555      1.0  0.30628  0.33225  0.99792  1.0000
  H   H932      1.0  0.39931  0.21741  0.09129  1.0000
  H   H933      1.0  0.45009  0.10577  0.03318  1.0000
  C   C556      1.0  0.42427  0.21785  0.12299  1.0000
  C   C557      1.0  0.43243  0.20609  0.10964  1.0000
  C   C558      1.0  0.42591  0.18888  0.10959  1.0000
  C   C559      1.0  0.41050  0.18396  0.12216  1.0000
  C   C560      1.0  0.40211  0.19599  0.13514  1.0000
  C   C561      1.0  0.40923  0.21265  0.13584  1.0000
  H   H934      1.0  0.44391  0.21016  0.09957  1.0000
  H   H935      1.0  0.43260  0.17958  0.09966  1.0000
  H   H936      1.0  0.39023  0.19227  0.14490  1.0000
  H   H937      1.0  0.40291  0.22166  0.14620  1.0000
  H   H938      1.0  0.28383  0.48449  0.99828  1.0000
  C   C562      1.0  0.27616  0.34986  0.14418  1.0000
  H   H939      1.0  0.38429  0.05582  0.24174  1.0000
  S   S166      1.0  0.48427  0.14386  0.08049  1.0000
  H   H940      1.0  0.39783  0.08545  0.28521  1.0000
  H   H941      1.0  0.26993  0.47814  0.10413  1.0000
  H   H942      1.0  0.25847  0.44386  0.14886  1.0000
  H   H943      1.0  0.25716  0.33903  0.13069  1.0000
  C   C563      1.0  0.41820  0.23867  0.00450  1.0000
  H   H944      1.0  0.42931  0.19869  0.06800  1.0000
  C   C564      1.0  0.47590  0.07800  0.19188  1.0000
  H   H945      1.0  0.39897  0.29425  0.01855  1.0000
  H   H946      1.0  0.34488  0.08634  0.25945  1.0000
  C   C565      1.0  0.35726  0.09147  0.26298  1.0000
  H   H947      1.0  0.32456  0.29465  0.13981  1.0000
  H   H948      1.0  0.27015  0.31639  0.16614  1.0000
  H   H949      1.0  0.47809  0.19752  0.11929  1.0000
  H   H950      1.0  0.43625  0.07104  0.32118  1.0000
  H   H951      1.0  0.47125  0.27971  0.00681  1.0000
  H   H952      1.0  0.29289  0.47689  0.12818  1.0000
  H   H953      1.0  0.36679  0.16732  0.09745  1.0000
  H   H954      1.0  0.40650  0.18117  0.08110  1.0000
  S   S167      1.0  0.26267  0.42469  0.05550  1.0000
  H   H955      1.0  0.46882  0.07543  0.28974  1.0000
  H   H956      1.0  0.43610  0.34058  0.02328  1.0000
  H   H957      1.0  0.43823  0.18876  0.01059  1.0000
  H   H958      1.0  0.47453  0.09173  0.19731  1.0000
  C   C566      1.0  0.47397  0.06281  0.20913  1.0000
  C   C567      1.0  0.42999  0.29066  0.99542  1.0000
  H   H959      1.0  0.41052  0.09978  0.26752  1.0000
  C   C568      1.0  0.27578  0.30582  0.12067  1.0000
  H   H960      1.0  0.41185  0.17230  0.00575  1.0000
  H   H961      1.0  0.33282  0.31856  0.00883  1.0000
  H   H962      1.0  0.29401  0.45699  0.11580  1.0000
  H   H963      1.0  0.24741  0.29867  0.12989  1.0000
  H   H964      1.0  0.24185  0.42300  0.12944  1.0000
  N   N39       1.0  0.27861  0.31581  0.13650  1.0000
  H   H965      1.0  0.38628  0.08523  0.21946  1.0000
  C   C569      1.0  0.48480  0.20550  0.10643  1.0000
  H   H966      1.0  0.25797  0.46465  0.05178  1.0000
  C   C570      1.0  0.26721  0.30932  0.15464  1.0000
  H   H967      1.0  0.46046  0.26080  0.00223  1.0000
  H   H968      1.0  0.31265  0.29253  0.12094  1.0000
  H   H969      1.0  0.29272  0.32664  0.00095  1.0000
  H   H970      1.0  0.47984  0.11021  0.14208  1.0000
  H   H971      1.0  0.25989  0.45680  0.99848  1.0000
  C   C571      1.0  0.25794  0.44465  0.11317  1.0000
  N   N40       1.0  0.25156  0.46148  0.12332  1.0000
  H   H972      1.0  0.43034  0.23077  0.99781  1.0000
  H   H973      1.0  0.38662  0.34491  0.00208  1.0000
  C   C572      1.0  0.43484  0.33076  0.01342  1.0000
  H   H974      1.0  0.45384  0.16731  0.00757  1.0000
  C   C573      1.0  0.37222  0.17985  0.06779  1.0000
  H   H975      1.0  0.28341  0.31189  0.10726  1.0000
  C   C574      1.0  0.39264  0.30671  0.00977  1.0000
  H   H976      1.0  0.39134  0.09682  0.24404  1.0000
  H   H977      1.0  0.44521  0.08478  0.28934  1.0000
  C   C575      1.0  0.40286  0.24491  0.99495  1.0000
  C   C576      1.0  0.25550  0.30598  0.11761  1.0000
  H   H978      1.0  0.37365  0.19538  0.02997  1.0000
  H   H979      1.0  0.38544  0.22325  0.05188  1.0000
  H   H980      1.0  0.26214  0.48766  0.12479  1.0000
  H   H981      1.0  0.47071  0.25833  0.02312  1.0000
  C   C577      1.0  0.38441  0.22085  0.08987  1.0000
  H   H982      1.0  0.36082  0.20736  0.08809  1.0000
  C   C578      1.0  0.37384  0.16337  0.08379  1.0000
  H   H983      1.0  0.37905  0.19287  0.09868  1.0000
  H   H984      1.0  0.36690  0.15184  0.08076  1.0000
  C   C579      1.0  0.26665  0.47396  0.11941  1.0000
  S   S168      1.0  0.40437  0.04721  0.31105  1.0000
  N   N41       1.0  0.38298  0.19586  0.06833  1.0000
  H   H985      1.0  0.29116  0.34957  0.14465  1.0000
  H   H986      1.0  0.25214  0.31383  0.15415  1.0000
  H   H987      1.0  0.26204  0.44907  0.09806  1.0000
  H   H988      1.0  0.38841  0.15741  0.08504  1.0000
  H   H989      1.0  0.44565  0.31866  0.01616  1.0000
  H   H990      1.0  0.34582  0.11231  0.28158  1.0000
  H   H991      1.0  0.43532  0.16772  0.02633  1.0000
  H   H992      1.0  0.30066  0.31675  0.15288  1.0000
  H   H993      1.0  0.42702  0.15181  0.00212  1.0000
  C   C580      1.0  0.27230  0.33641  0.13118  1.0000
  H   H994      1.0  0.46341  0.07847  0.18492  1.0000
  C   C581      1.0  0.39666  0.09515  0.27205  1.0000
  H   H995      1.0  0.40605  0.33538  0.02536  1.0000
  C   C582      1.0  0.31056  0.29463  0.13592  1.0000
  H   H996      1.0  0.46072  0.06661  0.21804  1.0000
  C   C583      1.0  0.41727  0.20246  0.06007  1.0000
  H   H997      1.0  0.24611  0.48397  0.08828  1.0000
  H   H998      1.0  0.38692  0.10797  0.27450  1.0000
  H   H999      1.0  0.40358  0.07505  0.25263  1.0000
  H   H1000     1.0  0.48490  0.14652  0.03437  1.0000
  C   C584      1.0  0.37614  0.20360  0.08656  1.0000
  H   H1001     1.0  0.46434  0.09796  0.00163  1.0000
  H   H1002     1.0  0.36348  0.21610  0.05397  1.0000
  C   C585      1.0  0.24438  0.47031  0.15681  1.0000
  Fe  Fe84      1.0  0.24632  0.36384  0.09062  1.0000
  C   C586      1.0  0.38348  0.20452  0.03258  1.0000
  H   H1003     1.0  0.47480  0.21839  0.10388  1.0000
  H   H1004     1.0  0.27888  0.34133  0.11685  1.0000
  H   H1005     1.0  0.27526  0.48730  0.06172  1.0000
  H   H1006     1.0  0.48585  0.08293  0.31448  1.0000
  H   H1007     1.0  0.36581  0.32457  0.01385  1.0000
  H   H1008     1.0  0.48647  0.24676  0.11063  1.0000
  C   C587      1.0  0.27846  0.49067  0.01134  1.0000
  H   H1009     1.0  0.38764  0.30114  0.99829  1.0000
  C   C588      1.0  0.43927  0.17330  0.01142  1.0000
  C   C589      1.0  0.38751  0.25590  0.00325  1.0000
  C   C590      1.0  0.41534  0.32446  0.01803  1.0000
  H   H1010     1.0  0.28165  0.28472  0.17039  1.0000
  C   C591      1.0  0.24743  0.45486  0.14395  1.0000
  H   H1011     1.0  0.25720  0.28428  0.17069  1.0000
  H   H1012     1.0  0.31256  0.48821  0.02470  1.0000
  C   C592      1.0  0.24393  0.43051  0.11502  1.0000
  H   H1013     1.0  0.47257  0.23719  0.13117  1.0000
  H   H1014     1.0  0.45762  0.09274  0.30495  1.0000
  C   C593      1.0  0.47966  0.04575  0.31703  1.0000
  C   C594      1.0  0.44989  0.10365  0.00390  1.0000
  H   H1015     1.0  0.36056  0.03926  0.27134  1.0000
  H   H1016     1.0  0.38827  0.05191  0.27454  1.0000
  C   C595      1.0  0.35919  0.04963  0.28132  1.0000
  H   H1017     1.0  0.37611  0.06731  0.28979  1.0000
  C   C596      1.0  0.37853  0.21071  0.05224  1.0000
  H   H1018     1.0  0.34546  0.05824  0.28147  1.0000
  H   H1019     1.0  0.30308  0.34717  0.00047  1.0000
  H   H1020     1.0  0.41207  0.21725  0.06158  1.0000
  H   H1021     1.0  0.40661  0.17733  0.05763  1.0000
  H   H1022     1.0  0.28390  0.45655  0.13991  1.0000
  C   C597      1.0  0.37272  0.06747  0.24348  1.0000
  H   H1023     1.0  0.35922  0.10449  0.25306  1.0000
  H   H1024     1.0  0.37682  0.17336  0.05472  1.0000
  H   H1025     1.0  0.36278  0.09550  0.29163  1.0000
  C   C598      1.0  0.27010  0.45958  0.05868  1.0000
  C   C599      1.0  0.40326  0.18831  0.06718  1.0000
  C   C600      1.0  0.37267  0.08029  0.22454  1.0000
  N   N42       1.0  0.37396  0.07687  0.26028  1.0000
  C   C601      1.0  0.31781  0.32152  0.01319  1.0000
  H   H1026     1.0  0.41682  0.31185  0.02870  1.0000
  H   H1027     1.0  0.35981  0.06083  0.24540  1.0000
  H   H1028     1.0  0.34006  0.08963  0.29047  1.0000
  H   H1029     1.0  0.38200  0.23313  0.07911  1.0000
  Fe  Fe85      1.0  0.44395  0.00147  0.26830  1.0000
  H   H1030     1.0  0.47161  0.19001  0.09002  1.0000
  S   S169      1.0  0.30775  0.48177  0.08090  1.0000
  H   H1031     1.0  0.30462  0.28261  0.14461  1.0000
  H   H1032     1.0  0.28394  0.48164  0.02343  1.0000
  H   H1033     1.0  0.31601  0.32994  0.02500  1.0000
  H   H1034     1.0  0.42037  0.28003  0.99689  1.0000
  C   C602      1.0  0.27005  0.28818  0.16184  1.0000
  H   H1035     1.0  0.36164  0.09243  0.22501  1.0000
  H   H1036     1.0  0.27237  0.27913  0.15063  1.0000
  H   H1037     1.0  0.46401  0.09996  0.16019  1.0000
  H   H1038     1.0  0.47944  0.05879  0.16361  1.0000
  H   H1039     1.0  0.47792  0.08594  0.14329  1.0000
  C   C603      1.0  0.48543  0.19435  0.08990  1.0000
  H   H1040     1.0  0.31228  0.30820  0.01928  1.0000
  H   H1041     1.0  0.48881  0.24051  0.99746  1.0000
  H   H1042     1.0  0.28172  0.29085  0.12241  1.0000
  H   H1043     1.0  0.26876  0.34713  0.15851  1.0000
  H   H1044     1.0  0.48707  0.05550  0.30639  1.0000
  H   H1045     1.0  0.25710  0.47684  0.15651  1.0000
  H   H1046     1.0  0.47689  0.12492  0.04640  1.0000
  S   S170      1.0  0.24186  0.38049  0.06280  1.0000
  H   H1047     1.0  0.25285  0.42834  0.00848  1.0000
  H   H1048     1.0  0.24838  0.32032  0.11403  1.0000
  H   H1049     1.0  0.48507  0.06184  0.21805  1.0000
  H   H1050     1.0  0.25530  0.29839  0.10555  1.0000
  C   C604      1.0  0.47236  0.26422  0.00815  1.0000
  H   H1051     1.0  0.26323  0.49054  0.01357  1.0000
  C   C605      1.0  0.48213  0.13236  0.03264  1.0000
  C   C606      1.0  0.48693  0.23946  0.12503  1.0000
  H   H1052     1.0  0.34223  0.34588  0.99455  1.0000
  H   H1053     1.0  0.44549  0.05367  0.30649  1.0000
  H   H1054     1.0  0.47570  0.03570  0.30871  1.0000
  H   H1055     1.0  0.48872  0.20307  0.07628  1.0000
  H   H1056     1.0  0.30305  0.29597  0.99280  1.0000
  H   H1057     1.0  0.24048  0.46405  0.17148  1.0000
  Fe  Fe86      1.0  0.35327  0.03269  0.63208  1.0000
  N   N43       1.0  0.31069  0.07048  0.54289  1.0000
  H   H1058     1.0  0.26557  0.02484  0.61517  1.0000
  Fe  Fe87      1.0  0.34344  0.02301  0.59467  1.0000
  S   S171      1.0  0.31318  0.02836  0.60482  1.0000
  S   S172      1.0  0.34886  0.00855  0.56829  1.0000
  Fe  Fe88      1.0  0.31943  0.05346  0.61539  1.0000
  S   S173      1.0  0.29982  0.07868  0.60558  1.0000
  H   H1059     1.0  0.29674  0.02912  0.56992  1.0000
  S   S174      1.0  0.34969  0.04947  0.60359  1.0000
  H   H1060     1.0  0.43059  0.03541  0.36285  1.0000
  Fe  Fe89      1.0  0.35835  0.02077  0.41910  1.0000
  S   S175      1.0  0.32942  0.01332  0.42145  1.0000
  S   S176      1.0  0.38047  0.01133  0.39544  1.0000
  Fe  Fe90      1.0  0.35155  0.03206  0.45922  1.0000
  S   S177      1.0  0.32249  0.02561  0.46413  1.0000
  S   S178      1.0  0.36265  0.04290  0.48241  1.0000
  H   H1061     1.0  0.37747  0.06046  0.34053  1.0000
  Fe  Fe91      1.0  0.32040  0.03959  0.43486  1.0000
  S   S179      1.0  0.29357  0.05883  0.43264  1.0000
  C   C607      1.0  0.25123  0.02254  0.61409  1.0000
  S   S180      1.0  0.34902  0.04839  0.43054  1.0000
  H   H1062     1.0  0.28576  0.04243  0.55108  1.0000
  C   C608      1.0  0.24144  0.05193  0.42638  1.0000
  C   C609      1.0  0.27743  0.03443  0.41657  1.0000
  C   C610      1.0  0.27477  0.05010  0.42612  1.0000
  C   C611      1.0  0.26196  0.02158  0.65335  1.0000
  H   H1063     1.0  0.25678  0.02671  0.58375  1.0000
  H   H1064     1.0  0.34358  0.09062  0.56097  1.0000
  H   H1065     1.0  0.29126  0.02769  0.41266  1.0000
  S   S181      1.0  0.35005  0.00591  0.62178  1.0000
  C   C612      1.0  0.29924  0.03812  0.55630  1.0000
  C   C613      1.0  0.27635  0.07584  0.61233  1.0000
  C   C614      1.0  0.26391  0.08004  0.59906  1.0000
  H   H1066     1.0  0.45440  0.07983  0.34220  1.0000
  C   C615      1.0  0.26981  0.07009  0.63102  1.0000
  H   H1067     1.0  0.26884  0.08477  0.58467  1.0000
  H   H1068     1.0  0.36765  0.04020  0.54920  1.0000
  H   H1069     1.0  0.32289  0.04808  0.56246  1.0000
  C   C616      1.0  0.35143  0.01945  0.54478  1.0000
  C   C617      1.0  0.34416  0.01186  0.53129  1.0000
  C   C618      1.0  0.34732  0.01899  0.51217  1.0000
  C   C619      1.0  0.35798  0.03371  0.50633  1.0000
  C   C620      1.0  0.36502  0.04147  0.51985  1.0000
  H   H1070     1.0  0.31647  0.06956  0.49423  1.0000
  C   C621      1.0  0.25759  0.04457  0.47992  1.0000
  H   H1071     1.0  0.34166  0.01303  0.50193  1.0000
  H   H1072     1.0  0.33062  0.08105  0.50516  1.0000
  C   C622      1.0  0.39721  0.03651  0.33413  1.0000
  C   C623      1.0  0.37818  0.03909  0.36455  1.0000
  C   C624      1.0  0.38628  0.02136  0.37180  1.0000
  C   C625      1.0  0.39978  0.01122  0.36003  1.0000
  C   C626      1.0  0.40518  0.01869  0.34130  1.0000
  H   H1073     1.0  0.36783  0.04710  0.37341  1.0000
  H   H1074     1.0  0.27929  0.06705  0.64136  1.0000
  H   H1075     1.0  0.27483  0.01481  0.50719  1.0000
  C   C627      1.0  0.26894  0.02640  0.47402  1.0000
  H   H1076     1.0  0.24582  0.06508  0.65105  1.0000
  H   H1077     1.0  0.30827  0.02914  0.54667  1.0000
  H   H1078     1.0  0.27489  0.07607  0.52940  1.0000
  C   C628      1.0  0.38367  0.04662  0.34586  1.0000
  C   C629      1.0  0.31274  0.06279  0.52450  1.0000
  H   H1079     1.0  0.30180  0.06030  0.57202  1.0000
  H   H1080     1.0  0.27096  0.06995  0.55472  1.0000
  C   C630      1.0  0.27544  0.08063  0.54309  1.0000
  C   C631      1.0  0.31661  0.07672  0.50662  1.0000
  H   H1081     1.0  0.33609  0.00035  0.53568  1.0000
  H   H1082     1.0  0.25459  0.07101  0.43828  1.0000
  H   H1083     1.0  0.26503  0.09329  0.54420  1.0000
  H   H1084     1.0  0.30595  0.08918  0.50584  1.0000
  C   C632      1.0  0.32999  0.08538  0.56220  1.0000
  H   H1085     1.0  0.32979  0.07377  0.57393  1.0000
  C   C633      1.0  0.36172  0.03442  0.53900  1.0000
  C   C634      1.0  0.26384  0.00685  0.50469  1.0000
  H   H1086     1.0  0.37329  0.05285  0.51546  1.0000
  C   C635      1.0  0.25229  0.01554  0.59496  1.0000
  H   H1087     1.0  0.32924  0.09151  0.53276  1.0000
  C   C636      1.0  0.24296  0.01985  0.64782  1.0000
  C   C637      1.0  0.32806  0.07893  0.54346  1.0000
  H   H1088     1.0  0.34054  0.06881  0.53997  1.0000
  C   C638      1.0  0.29454  0.08578  0.54476  1.0000
  H   H1089     1.0  0.29696  0.09822  0.53422  1.0000
  Fe  Fe92      1.0  0.32009  0.01252  0.63207  1.0000
  S   S182      1.0  0.37839  0.03010  0.64781  1.0000
  H   H1090     1.0  0.28350  0.02703  0.47596  1.0000
  H   H1091     1.0  0.26927  0.02729  0.45867  1.0000
  C   C639      1.0  0.26217  0.02793  0.41139  1.0000
  N   N44       1.0  0.24339  0.00998  0.63097  1.0000
  H   H1092     1.0  0.32428  0.05106  0.52403  1.0000
  H   H1093     1.0  0.43823  0.05759  0.36246  1.0000
  S   S183      1.0  0.32325  0.03826  0.64425  1.0000
  H   H1094     1.0  0.30032  0.05657  0.52293  1.0000
  C   C640      1.0  0.25673  0.05883  0.43097  1.0000
  C   C641      1.0  0.46700  0.06979  0.33872  1.0000
  C   C642      1.0  0.24507  0.07819  0.60439  1.0000
  H   H1095     1.0  0.31925  0.09710  0.56587  1.0000
  N   N45       1.0  0.46264  0.05558  0.32750  1.0000
  H   H1096     1.0  0.26346  0.05669  0.47109  1.0000
  C   C643      1.0  0.30896  0.05475  0.55902  1.0000
  C   C644      1.0  0.25086  0.06902  0.63648  1.0000
  H   H1097     1.0  0.26436  0.01618  0.40350  1.0000
  H   H1098     1.0  0.29309  0.09090  0.55859  1.0000
  S   S184      1.0  0.36314  0.00523  0.44762  1.0000
  C   C645      1.0  0.24594  0.01322  0.51730  1.0000
  H   H1099     1.0  0.26953  0.00764  0.65774  1.0000
  C   C646      1.0  0.43560  0.04763  0.35339  1.0000
  H   H1100     1.0  0.40621  0.99753  0.36549  1.0000
  H   H1101     1.0  0.42409  0.05399  0.34542  1.0000
  H   H1102     1.0  0.46269  0.03261  0.35039  1.0000
  H   H1103     1.0  0.44947  0.03015  0.33268  1.0000
  H   H1104     1.0  0.24298  0.03672  0.61314  1.0000
  H   H1105     1.0  0.26275  0.00299  0.59362  1.0000
  H   H1106     1.0  0.25868  0.04612  0.49456  1.0000
  H   H1107     1.0  0.24911  0.01318  0.53172  1.0000
  H   H1108     1.0  0.27083  0.02941  0.64218  1.0000
  H   H1109     1.0  0.47100  0.06258  0.35240  1.0000
  Fe  Fe93      1.0  0.33363  0.00015  0.45053  1.0000
  C   C647      1.0  0.48288  0.08141  0.32989  1.0000
  H   H1110     1.0  0.41569  0.01077  0.33251  1.0000
  H   H1111     1.0  0.24296  0.04586  0.47755  1.0000
  C   C648      1.0  0.45323  0.04065  0.34065  1.0000
  H   H1112     1.0  0.25429  0.00658  0.44946  1.0000
  N   N46       1.0  0.26274  0.00819  0.48391  1.0000
  C   C649      1.0  0.24415  0.03665  0.41630  1.0000
  C   C650      1.0  0.24361  0.00643  0.48005  1.0000
  C   C651      1.0  0.24132  0.00659  0.45929  1.0000
  H   H1113     1.0  0.47929  0.09586  0.33370  1.0000
  H   H1114     1.0  0.28046  0.99557  0.46101  1.0000
  Fe  Fe94      1.0  0.44180  0.03003  0.76058  1.0000
  S   S185      1.0  0.42694  0.05921  0.75435  1.0000
  S   S186      1.0  0.47153  0.01825  0.75266  1.0000
  H   H1115     1.0  0.33058  0.31170  0.95979  1.0000
  S   S187      1.0  0.39067  0.04304  0.77935  1.0000
  H   H1116     1.0  0.39109  0.15758  0.96633  1.0000
  Fe  Fe95      1.0  0.40336  0.04485  0.74908  1.0000
  S   S188      1.0  0.38196  0.05277  0.72858  1.0000
  Fe  Fe96      1.0  0.41545  0.05496  0.78501  1.0000
  S   S189      1.0  0.41349  0.07925  0.80209  1.0000
  S   S190      1.0  0.41944  0.01627  0.75256  1.0000
  S   S191      1.0  0.43168  0.02663  0.79134  1.0000
  Fe  Fe97      1.0  0.38247  0.27589  0.96106  1.0000
  S   S192      1.0  0.38624  0.30621  0.95439  1.0000
  H   H1117     1.0  0.26376  0.41605  0.90915  1.0000
  Fe  Fe98      1.0  0.39765  0.26783  0.92230  1.0000
  S   S193      1.0  0.40246  0.29778  0.91229  1.0000
  S   S194      1.0  0.40702  0.24631  0.90248  1.0000
  Fe  Fe99      1.0  0.41413  0.29615  0.93930  1.0000
  S   S195      1.0  0.43932  0.30946  0.94288  1.0000
  Fe  Fe100     1.0  0.37424  0.30519  0.92822  1.0000
  S   S196      1.0  0.35384  0.33038  0.91897  1.0000
  S   S197      1.0  0.41119  0.26579  0.94819  1.0000
  S   S198      1.0  0.36852  0.27536  0.93596  1.0000
  Fe  Fe101     1.0  0.42551  0.10283  0.90263  1.0000
  S   S199      1.0  0.42486  0.13295  0.88947  1.0000
  S   S200      1.0  0.42339  0.07785  0.88770  1.0000
  Fe  Fe102     1.0  0.43783  0.11099  0.93944  1.0000
  S   S201      1.0  0.43857  0.14127  0.92838  1.0000
  S   S202      1.0  0.44994  0.10052  0.96675  1.0000
  Fe  Fe103     1.0  0.41184  0.13982  0.91811  1.0000
  S   S203      1.0  0.38889  0.16275  0.92564  1.0000
  Fe  Fe104     1.0  0.45152  0.13175  0.90113  1.0000
  C   C652      1.0  0.40877  0.35212  0.98128  1.0000
  S   S204      1.0  0.41014  0.10967  0.93069  1.0000
  S   S205      1.0  0.45301  0.10146  0.91269  1.0000
  C   C653      1.0  0.43930  0.10642  0.98897  1.0000
  C   C654      1.0  0.26403  0.46009  0.91964  1.0000
  S   S206      1.0  0.26781  0.33260  0.91464  1.0000
  C   C655      1.0  0.29869  0.33532  0.96596  1.0000
  H   H1118     1.0  0.39332  0.16114  0.98941  1.0000
  H   H1119     1.0  0.48105  0.04404  0.91887  1.0000
  H   H1120     1.0  0.45088  0.17533  0.95535  1.0000
  H   H1121     1.0  0.27597  0.35617  0.95775  1.0000
  H   H1122     1.0  0.34577  0.08006  0.81420  1.0000
  H   H1123     1.0  0.24600  0.48453  0.90977  1.0000
  H   H1124     1.0  0.48906  0.04921  0.80085  1.0000
  H   H1125     1.0  0.35366  0.32894  0.97898  1.0000
  H   H1126     1.0  0.46379  0.05937  0.82665  1.0000
  C   C656      1.0  0.26196  0.40343  0.97515  1.0000
  H   H1127     1.0  0.28047  0.43350  0.92641  1.0000
  H   H1128     1.0  0.25977  0.02947  0.66556  1.0000
  H   H1129     1.0  0.45681  0.09926  0.86179  1.0000
  C   C657      1.0  0.26002  0.42506  0.97316  1.0000
  H   H1130     1.0  0.28411  0.36028  0.97849  1.0000
  H   H1131     1.0  0.48278  0.06685  0.90633  1.0000
  H   H1132     1.0  0.45758  0.18031  0.97587  1.0000
  C   C658      1.0  0.32992  0.33067  0.91805  1.0000
  C   C659      1.0  0.31900  0.34796  0.91388  1.0000
  C   C660      1.0  0.29993  0.34885  0.91295  1.0000
  C   C661      1.0  0.29166  0.33238  0.91589  1.0000
  C   C662      1.0  0.30262  0.31506  0.91998  1.0000
  C   C663      1.0  0.32161  0.31420  0.92128  1.0000
  H   H1133     1.0  0.32531  0.36077  0.91133  1.0000
  H   H1134     1.0  0.29167  0.36225  0.90973  1.0000
  H   H1135     1.0  0.29631  0.30226  0.92235  1.0000
  H   H1136     1.0  0.32980  0.30082  0.92468  1.0000
  C   C664      1.0  0.40245  0.22305  0.91000  1.0000
  C   C665      1.0  0.41348  0.20841  0.90153  1.0000
  C   C666      1.0  0.40971  0.18981  0.90662  1.0000
  C   C667      1.0  0.39448  0.18583  0.91980  1.0000
  C   C668      1.0  0.38344  0.20046  0.92834  1.0000
  C   C669      1.0  0.38761  0.21900  0.92370  1.0000
  H   H1137     1.0  0.42497  0.21146  0.89092  1.0000
  H   H1138     1.0  0.41827  0.17862  0.89995  1.0000
  H   H1139     1.0  0.37169  0.19742  0.93859  1.0000
  H   H1140     1.0  0.37912  0.23017  0.93043  1.0000
  C   C670      1.0  0.41785  0.07870  0.82546  1.0000
  C   C671      1.0  0.41389  0.09538  0.83367  1.0000
  C   C672      1.0  0.41604  0.09547  0.85253  1.0000
  C   C673      1.0  0.42204  0.07880  0.86347  1.0000
  C   C674      1.0  0.42639  0.06217  0.85515  1.0000
  C   C675      1.0  0.42439  0.06212  0.83622  1.0000
  H   H1141     1.0  0.40884  0.10830  0.82546  1.0000
  H   H1142     1.0  0.41263  0.10836  0.85872  1.0000
  H   H1143     1.0  0.43108  0.04920  0.86349  1.0000
  H   H1144     1.0  0.42762  0.04921  0.83006  1.0000
  C   C676      1.0  0.38133  0.04592  0.70627  1.0000
  C   C677      1.0  0.36464  0.04991  0.69845  1.0000
  C   C678      1.0  0.36345  0.04507  0.68070  1.0000
  C   C679      1.0  0.45881  0.15062  0.97353  1.0000
  C   C680      1.0  0.39576  0.03228  0.67822  1.0000
  C   C681      1.0  0.39689  0.03692  0.69609  1.0000
  H   H1145     1.0  0.35254  0.05694  0.70614  1.0000
  S   S207      1.0  0.47786  0.14059  0.88496  1.0000
  H   H1146     1.0  0.48771  0.16489  0.94106  1.0000
  H   H1147     1.0  0.40987  0.03391  0.70181  1.0000
  H   H1148     1.0  0.36907  0.07912  0.80231  1.0000
  H   H1149     1.0  0.46900  0.16115  0.91670  1.0000
  H   H1150     1.0  0.36162  0.08460  0.83777  1.0000
  H   H1151     1.0  0.25154  0.39835  0.96838  1.0000
  H   H1152     1.0  0.48097  0.09129  0.85956  1.0000
  H   H1153     1.0  0.45523  0.27159  0.93548  1.0000
  S   S208      1.0  0.36977  0.26649  0.99026  1.0000
  H   H1154     1.0  0.27575  0.39817  0.96806  1.0000
  H   H1155     1.0  0.43132  0.20278  0.98259  1.0000
  H   H1156     1.0  0.46939  0.05819  0.75410  1.0000
  C   C682      1.0  0.35980  0.07195  0.81377  1.0000
  H   H1157     1.0  0.39093  0.18095  0.97097  1.0000
  S   S209      1.0  0.27528  0.47201  0.93286  1.0000
  C   C683      1.0  0.41839  0.16380  0.96880  1.0000
  H   H1158     1.0  0.47377  0.32108  0.94754  1.0000
  H   H1159     1.0  0.38246  0.07255  0.82906  1.0000
  H   H1160     1.0  0.44190  0.28637  0.98499  1.0000
  H   H1161     1.0  0.39972  0.36332  0.97360  1.0000
  C   C684      1.0  0.37012  0.03604  0.84009  1.0000
  C   C685      1.0  0.48133  0.08733  0.80216  1.0000
  H   H1162     1.0  0.40794  0.02562  0.67034  1.0000
  H   H1163     1.0  0.48757  0.25580  0.93297  1.0000
  C   C686      1.0  0.37580  0.05526  0.86255  1.0000
  C   C687      1.0  0.42255  0.19509  0.97615  1.0000
  H   H1164     1.0  0.24401  0.45951  0.96164  1.0000
  C   C688      1.0  0.34421  0.05627  0.85591  1.0000
  N   N47       1.0  0.42910  0.17431  0.97882  1.0000
  H   H1165     1.0  0.45359  0.14240  0.98677  1.0000
  H   H1166     1.0  0.27166  0.42862  0.97947  1.0000
  H   H1167     1.0  0.30374  0.33248  0.95144  1.0000
  H   H1168     1.0  0.46894  0.10765  0.82925  1.0000
  H   H1169     1.0  0.43202  0.31863  0.98195  1.0000
  H   H1170     1.0  0.41353  0.19852  0.94814  1.0000
  C   C689      1.0  0.47851  0.06033  0.82764  1.0000
  H   H1171     1.0  0.35535  0.00372  0.73739  1.0000
  H   H1172     1.0  0.26961  0.46359  0.97468  1.0000
  N   N48       1.0  0.36425  0.05473  0.84727  1.0000
  H   H1173     1.0  0.43669  0.20404  0.94784  1.0000
  H   H1174     1.0  0.46427  0.07490  0.86143  1.0000
  H   H1175     1.0  0.48417  0.10219  0.79891  1.0000
  H   H1176     1.0  0.45133  0.09618  0.80134  1.0000
  C   C690      1.0  0.31167  0.29579  0.97898  1.0000
  C   C691      1.0  0.46281  0.08640  0.79513  1.0000
  H   H1177     1.0  0.29720  0.36554  0.95549  1.0000
  H   H1178     1.0  0.33185  0.34530  0.95531  1.0000
  H   H1179     1.0  0.39440  0.04402  0.82024  1.0000
  C   C692      1.0  0.46624  0.27891  0.93779  1.0000
  H   H1180     1.0  0.41223  0.11561  0.98082  1.0000
  H   H1181     1.0  0.41405  0.30845  0.97594  1.0000
  H   H1182     1.0  0.36777  0.02438  0.85165  1.0000
  H   H1183     1.0  0.41703  0.21964  0.95567  1.0000
  C   C693      1.0  0.42259  0.20456  0.95573  1.0000
  H   H1184     1.0  0.33871  0.07110  0.85773  1.0000
  H   H1185     1.0  0.28780  0.32603  0.97120  1.0000
  H   H1186     1.0  0.45895  0.07199  0.79748  1.0000
  H   H1187     1.0  0.33120  0.05525  0.83062  1.0000
  C   C694      1.0  0.32403  0.31165  0.97462  1.0000
  H   H1188     1.0  0.37471  0.04273  0.87337  1.0000
  C   C695      1.0  0.48310  0.05157  0.75656  1.0000
  C   C696      1.0  0.48463  0.26998  0.93638  1.0000
  C   C697      1.0  0.37138  0.07277  0.87286  1.0000
  H   H1189     1.0  0.45367  0.09049  0.83157  1.0000
  H   H1190     1.0  0.40295  0.24138  0.98111  1.0000
  H   H1191     1.0  0.42318  0.14849  0.97110  1.0000
  C   C698      1.0  0.48341  0.15533  0.91572  1.0000
  H   H1192     1.0  0.38055  0.07112  0.88393  1.0000
  C   C699      1.0  0.33056  0.04910  0.84546  1.0000
  H   H1193     1.0  0.36164  0.03388  0.82951  1.0000
  H   H1194     1.0  0.42107  0.16770  0.95339  1.0000
  H   H1195     1.0  0.48034  0.05512  0.84247  1.0000
  N   N49       1.0  0.48242  0.08038  0.82260  1.0000
  C   C700      1.0  0.39046  0.03245  0.83117  1.0000
  C   C701      1.0  0.32756  0.34518  0.97068  1.0000
  Fe  Fe105     1.0  0.40810  0.01504  0.78292  1.0000
  C   C702      1.0  0.24172  0.45546  0.97706  1.0000
  H   H1196     1.0  0.35424  0.35336  0.97227  1.0000
  H   H1197     1.0  0.38875  0.33342  0.98182  1.0000
  C   C703      1.0  0.44921  0.17109  0.97077  1.0000
  H   H1198     1.0  0.25138  0.47871  0.98666  1.0000
  C   C704      1.0  0.46220  0.29742  0.94170  1.0000
  H   H1199     1.0  0.33278  0.03355  0.84650  1.0000
  C   C705      1.0  0.25967  0.43090  0.90949  1.0000
  C   C706      1.0  0.42073  0.31022  0.98807  1.0000
  H   H1200     1.0  0.39067  0.05464  0.85691  1.0000
  H   H1201     1.0  0.40011  0.02987  0.84182  1.0000
  C   C707      1.0  0.25662  0.46391  0.98465  1.0000
  H   H1202     1.0  0.35052  0.04834  0.67489  1.0000
  H   H1203     1.0  0.34280  0.04826  0.87025  1.0000
  C   C708      1.0  0.36754  0.07116  0.83240  1.0000
  C   C709      1.0  0.26917  0.44081  0.91920  1.0000
  H   H1204     1.0  0.48005  0.08877  0.93874  1.0000
  Fe  Fe106     1.0  0.24540  0.35795  0.91315  1.0000
  H   H1205     1.0  0.40831  0.19828  0.98353  1.0000
  N   N50       1.0  0.35861  0.28385  0.87162  1.0000
  C   C710      1.0  0.36537  0.26745  0.88537  1.0000
  C   C711      1.0  0.37527  0.28904  0.85816  1.0000
  C   C712      1.0  0.34525  0.27719  0.86114  1.0000
  C   C713      1.0  0.34919  0.29957  0.88242  1.0000
  C   C714      1.0  0.35034  0.25811  0.89918  1.0000
  C   C715      1.0  0.39083  0.29492  0.86703  1.0000
  C   C716      1.0  0.33698  0.29144  0.84575  1.0000
  C   C717      1.0  0.34762  0.31973  0.87171  1.0000
  H   H1206     1.0  0.37404  0.25618  0.87795  1.0000
  H   H1207     1.0  0.37454  0.27184  0.89421  1.0000
  H   H1208     1.0  0.37164  0.30058  0.84708  1.0000
  H   H1209     1.0  0.38156  0.27703  0.85044  1.0000
  H   H1210     1.0  0.35196  0.26454  0.85460  1.0000
  H   H1211     1.0  0.33304  0.27281  0.87083  1.0000
  H   H1212     1.0  0.33495  0.29683  0.88866  1.0000
  H   H1213     1.0  0.35662  0.30007  0.89450  1.0000
  H   H1214     1.0  0.34042  0.26841  0.90660  1.0000
  H   H1215     1.0  0.34288  0.24962  0.89217  1.0000
  H   H1216     1.0  0.35714  0.24816  0.90998  1.0000
  H   H1217     1.0  0.38557  0.30575  0.87637  1.0000
  H   H1218     1.0  0.39853  0.28266  0.87483  1.0000
  H   H1219     1.0  0.40104  0.30096  0.85580  1.0000
  H   H1220     1.0  0.32822  0.28429  0.83872  1.0000
  H   H1221     1.0  0.34761  0.29686  0.83468  1.0000
  H   H1222     1.0  0.32767  0.30310  0.85176  1.0000
  H   H1223     1.0  0.33377  0.32729  0.87617  1.0000
  H   H1224     1.0  0.34915  0.32083  0.85633  1.0000
  H   H1225     1.0  0.35766  0.32782  0.87580  1.0000
  C   C718      1.0  0.46775  0.08905  0.85531  1.0000
  C   C719      1.0  0.48768  0.03218  0.75665  1.0000
  H   H1226     1.0  0.26290  0.43046  0.95806  1.0000
  H   H1227     1.0  0.35694  0.07456  0.87991  1.0000
  H   H1228     1.0  0.47131  0.06386  0.93025  1.0000
  H   H1229     1.0  0.31622  0.05301  0.85219  1.0000
  C   C720      1.0  0.46775  0.09248  0.83386  1.0000
  H   H1230     1.0  0.36714  0.01500  0.75117  1.0000
  C   C721      1.0  0.39726  0.16624  0.97443  1.0000
  H   H1231     1.0  0.37442  0.08572  0.86342  1.0000
  C   C722      1.0  0.47674  0.30673  0.94458  1.0000
  H   H1232     1.0  0.35950  0.05815  0.80941  1.0000
  N   N51       1.0  0.24183  0.43453  0.98176  1.0000
  H   H1233     1.0  0.46420  0.09081  0.77978  1.0000
  H   H1234     1.0  0.41957  0.34642  0.97055  1.0000
  C   C723      1.0  0.37905  0.03634  0.67038  1.0000
  H   H1235     1.0  0.47378  0.15057  0.97412  1.0000
  C   C724      1.0  0.28859  0.35557  0.96456  1.0000
  H   H1236     1.0  0.25664  0.33868  0.98769  1.0000
  C   C725      1.0  0.24980  0.46958  0.90980  1.0000
  H   H1237     1.0  0.45732  0.14306  0.96183  1.0000
  C   C726      1.0  0.48317  0.05851  0.92034  1.0000
  H   H1238     1.0  0.39245  0.01954  0.82428  1.0000
  C   C727      1.0  0.42059  0.11363  0.99210  1.0000
  H   H1239     1.0  0.41482  0.35907  0.99096  1.0000
  C   C728      1.0  0.24533  0.44034  0.89977  1.0000
  H   H1240     1.0  0.26117  0.39701  0.99000  1.0000
  H   H1241     1.0  0.32061  0.28204  0.97919  1.0000
  S   S210      1.0  0.24434  0.38419  0.92630  1.0000
  H   H1242     1.0  0.37192  0.00696  0.70393  1.0000
  H   H1243     1.0  0.32076  0.35959  0.97263  1.0000
  H   H1244     1.0  0.30268  0.29654  0.96792  1.0000
  H   H1245     1.0  0.38968  0.00495  0.72661  1.0000
  N   N52       1.0  0.31434  0.33095  0.97777  1.0000
  C   C729      1.0  0.34535  0.34284  0.97988  1.0000
  C   C730      1.0  0.24068  0.45976  0.89964  1.0000
  C   C731      1.0  0.36606  0.00118  0.74694  1.0000
  H   H1246     1.0  0.33570  0.30711  0.98286  1.0000
  H   H1247     1.0  0.48547  0.03197  0.82061  1.0000
  C   C732      1.0  0.24640  0.35020  0.99153  1.0000
  C   C733      1.0  0.39681  0.33732  0.99204  1.0000
  H   H1248     1.0  0.41127  0.99543  0.70190  1.0000
  H   H1249     1.0  0.31323  0.49099  0.99248  1.0000
  Fe  Fe107     1.0  0.43128  0.62499  0.11281  1.0000
  S   S211      1.0  0.44081  0.59391  0.11475  1.0000
  S   S212      1.0  0.42091  0.63791  0.13906  1.0000
  Fe  Fe108     1.0  0.43554  0.63030  0.07101  1.0000
  S   S213      1.0  0.44567  0.60003  0.06967  1.0000
  S   S214      1.0  0.43321  0.64920  0.04386  1.0000
  Fe  Fe109     1.0  0.42225  0.59441  0.09268  1.0000
  S   S215      1.0  0.40531  0.57102  0.09009  1.0000
  Fe  Fe110     1.0  0.46321  0.60245  0.09170  1.0000
  H   H1250     1.0  0.32022  0.62704  0.05148  1.0000
  S   S216      1.0  0.41118  0.62489  0.09260  1.0000
  S   S217      1.0  0.45467  0.63347  0.09116  1.0000
  Fe  Fe111     1.0  0.42572  0.74599  0.12189  1.0000
  S   S218      1.0  0.40429  0.76919  0.11243  1.0000
  S   S219      1.0  0.41470  0.72451  0.14460  1.0000
  Fe  Fe112     1.0  0.45642  0.76394  0.09664  1.0000
  S   S220      1.0  0.43732  0.78892  0.08586  1.0000
  H   H1251     1.0  0.42290  0.53982  0.02888  1.0000
  Fe  Fe113     1.0  0.42450  0.78828  0.11631  1.0000
  S   S221      1.0  0.41373  0.81275  0.13333  1.0000
  Fe  Fe114     1.0  0.41929  0.76730  0.08331  1.0000
  S   S222      1.0  0.40690  0.76066  0.05864  1.0000
  S   S223      1.0  0.44527  0.76495  0.12697  1.0000
  S   S224      1.0  0.43909  0.74246  0.09293  1.0000
  H   H1252     1.0  0.45728  0.52871  0.04504  1.0000
  Fe  Fe115     1.0  0.44966  0.85027  0.26490  1.0000
  S   S225      1.0  0.44962  0.86102  0.23446  1.0000
  H   H1253     1.0  0.47629  0.64678  0.03927  1.0000
  C   C734      1.0  0.32993  0.56962  0.04426  1.0000
  S   S226      1.0  0.40432  0.86537  0.24315  1.0000
  Fe  Fe116     1.0  0.42739  0.84262  0.23550  1.0000
  S   S227      1.0  0.43417  0.82226  0.21341  1.0000
  Fe  Fe117     1.0  0.42673  0.88266  0.24444  1.0000
  S   S228      1.0  0.42172  0.91301  0.23203  1.0000
  S   S229      1.0  0.42840  0.83088  0.26592  1.0000
  H   H1254     1.0  0.27585  0.51868  0.99747  1.0000
  H   H1255     1.0  0.47119  0.76339  0.00034  1.0000
  S   S230      1.0  0.45024  0.97003  0.27487  1.0000
  Fe  Fe118     1.0  0.29846  0.54773  0.09734  1.0000
  S   S231      1.0  0.30131  0.53631  0.07007  1.0000
  S   S232      1.0  0.31745  0.56899  0.10093  1.0000
  Fe  Fe119     1.0  0.29241  0.50999  0.08675  1.0000
  Fe  Fe120     1.0  0.27097  0.54585  0.07061  1.0000
  C   C735      1.0  0.44425  0.59443  0.01388  1.0000
  S   S233      1.0  0.29167  0.52039  0.11438  1.0000
  H   H1256     1.0  0.42520  0.92362  0.29707  1.0000
  H   H1257     1.0  0.43285  0.80619  0.00775  1.0000
  C   C736      1.0  0.42625  0.55849  0.00277  1.0000
  C   C737      1.0  0.33512  0.59541  0.01805  1.0000
  H   H1258     1.0  0.38267  0.89978  0.26847  1.0000
  C   C738      1.0  0.33737  0.59946  0.05036  1.0000
  S   S234      1.0  0.47600  0.83841  0.27696  1.0000
  H   H1259     1.0  0.43621  0.59269  0.00281  1.0000
  C   C739      1.0  0.43020  0.92895  0.24336  1.0000
  C   C740      1.0  0.42430  0.94824  0.23952  1.0000
  C   C741      1.0  0.43056  0.96112  0.24887  1.0000
  C   C742      1.0  0.44283  0.95470  0.26199  1.0000
  C   C743      1.0  0.44888  0.93545  0.26563  1.0000
  C   C744      1.0  0.44257  0.92260  0.25637  1.0000
  H   H1260     1.0  0.41476  0.95321  0.22940  1.0000
  H   H1261     1.0  0.42585  0.97596  0.24600  1.0000
  H   H1262     1.0  0.45846  0.93044  0.27570  1.0000
  H   H1263     1.0  0.44743  0.90780  0.25922  1.0000
  C   C745      1.0  0.42839  0.82061  0.19092  1.0000
  C   C746      1.0  0.41213  0.83003  0.18444  1.0000
  C   C747      1.0  0.40798  0.82766  0.16672  1.0000
  C   C748      1.0  0.41987  0.81569  0.15534  1.0000
  C   C749      1.0  0.43627  0.80653  0.16173  1.0000
  C   C750      1.0  0.44043  0.80893  0.17940  1.0000
  H   H1264     1.0  0.40261  0.83889  0.19319  1.0000
  H   H1265     1.0  0.39530  0.83489  0.16191  1.0000
  H   H1266     1.0  0.44576  0.79757  0.15304  1.0000
  H   H1267     1.0  0.45313  0.80167  0.18416  1.0000
  C   C751      1.0  0.41478  0.72204  0.19484  1.0000
  H   H1268     1.0  0.47853  0.82905  0.22205  1.0000
  H   H1269     1.0  0.42639  0.92377  0.17150  1.0000
  N   N53       1.0  0.30239  0.51411  0.00817  1.0000
  S   S235      1.0  0.38111  0.85711  0.29475  1.0000
  H   H1270     1.0  0.25927  0.56799  0.00450  1.0000
  H   H1271     1.0  0.45181  0.76221  0.01745  1.0000
  C   C752      1.0  0.41328  0.77001  0.03500  1.0000
  C   C753      1.0  0.40970  0.76078  0.02059  1.0000
  H   H1272     1.0  0.43379  0.90237  0.32491  1.0000
  C   C754      1.0  0.25150  0.55073  0.03040  1.0000
  C   C755      1.0  0.42646  0.79344  0.01128  1.0000
  C   C756      1.0  0.42168  0.78641  0.03025  1.0000
  H   H1273     1.0  0.40303  0.74821  0.02411  1.0000
  H   H1274     1.0  0.33331  0.59469  0.06544  1.0000
  H   H1275     1.0  0.27424  0.51704  0.02213  1.0000
  H   H1276     1.0  0.42431  0.79379  0.04118  1.0000
  C   C757      1.0  0.38081  0.57073  0.09340  1.0000
  C   C758      1.0  0.36823  0.58649  0.09736  1.0000
  C   C759      1.0  0.34899  0.58559  0.09974  1.0000
  C   C760      1.0  0.34196  0.56903  0.09804  1.0000
  C   C761      1.0  0.35453  0.55333  0.09386  1.0000
  C   C762      1.0  0.37379  0.55419  0.09161  1.0000
  H   H1277     1.0  0.37332  0.59931  0.09882  1.0000
  H   H1278     1.0  0.33945  0.59782  0.10303  1.0000
  H   H1279     1.0  0.34943  0.54046  0.09260  1.0000
  H   H1280     1.0  0.38333  0.54184  0.08870  1.0000
  C   C763      1.0  0.41594  0.64291  0.03280  1.0000
  C   C764      1.0  0.40505  0.62913  0.04175  1.0000
  C   C765      1.0  0.39133  0.62416  0.03281  1.0000
  H   H1281     1.0  0.33557  0.56893  0.00649  1.0000
  C   C766      1.0  0.41316  0.65159  0.01481  1.0000
  H   H1282     1.0  0.40719  0.62220  0.05554  1.0000
  C   C767      1.0  0.41110  0.74057  0.20348  1.0000
  C   C768      1.0  0.39819  0.56668  0.04448  1.0000
  S   S236      1.0  0.26372  0.56205  0.04329  1.0000
  C   C769      1.0  0.42028  0.66201  0.13980  1.0000
  C   C770      1.0  0.40764  0.67008  0.15355  1.0000
  C   C771      1.0  0.40624  0.68923  0.15474  1.0000
  C   C772      1.0  0.41751  0.70056  0.14222  1.0000
  C   C773      1.0  0.43052  0.69257  0.12857  1.0000
  C   C774      1.0  0.43191  0.67321  0.12736  1.0000
  H   H1283     1.0  0.39878  0.66145  0.16330  1.0000
  H   H1284     1.0  0.39629  0.69526  0.16539  1.0000
  H   H1285     1.0  0.43961  0.70122  0.11919  1.0000
  H   H1286     1.0  0.44214  0.66685  0.11715  1.0000
  H   H1287     1.0  0.45946  0.53503  0.06716  1.0000
  C   C775      1.0  0.43833  0.55356  0.05319  1.0000
  H   H1288     1.0  0.46437  0.78120  0.04844  1.0000
  N   N54       1.0  0.43363  0.56435  0.03474  1.0000
  H   H1289     1.0  0.39375  0.97250  0.28957  1.0000
  C   C776      1.0  0.46479  0.75381  0.01210  1.0000
  H   H1290     1.0  0.48519  0.58394  0.04826  1.0000
  C   C777      1.0  0.45503  0.72592  0.04657  1.0000
  H   H1291     1.0  0.43833  0.56334  0.06353  1.0000
  H   H1292     1.0  0.42774  0.54431  0.05965  1.0000
  H   H1293     1.0  0.39527  0.96035  0.31261  1.0000
  C   C778      1.0  0.43217  0.55035  0.02199  1.0000
  H   H1294     1.0  0.36735  0.90600  0.28848  1.0000
  C   C779      1.0  0.33479  0.62108  0.04760  1.0000
  N   N55       1.0  0.39560  0.92335  0.30211  1.0000
  H   H1295     1.0  0.41303  0.70160  0.04443  1.0000
  C   C780      1.0  0.44914  0.57592  0.02663  1.0000
  H   H1296     1.0  0.34997  0.54485  0.04007  1.0000
  H   H1297     1.0  0.45719  0.59983  0.00679  1.0000
  H   H1298     1.0  0.44389  0.73722  0.00707  1.0000
  H   H1299     1.0  0.46242  0.78800  0.02368  1.0000
  H   H1300     1.0  0.32486  0.52310  0.03573  1.0000
  C   C781      1.0  0.45714  0.54087  0.05258  1.0000
  H   H1301     1.0  0.46605  0.72355  0.00789  1.0000
  C   C782      1.0  0.41479  0.76762  0.00163  1.0000
  H   H1302     1.0  0.39822  0.68812  0.03655  1.0000
  C   C783      1.0  0.45901  0.73767  0.00355  1.0000
  H   H1303     1.0  0.44601  0.76766  0.19063  1.0000
  H   H1304     1.0  0.24115  0.53157  0.05379  1.0000
  H   H1305     1.0  0.37648  0.94674  0.29108  1.0000
  H   H1306     1.0  0.38289  0.61359  0.03987  1.0000
  S   S237      1.0  0.26810  0.55884  0.09710  1.0000
  H   H1307     1.0  0.39109  0.79086  0.22110  1.0000
  H   H1308     1.0  0.42223  0.74039  0.21226  1.0000
  H   H1309     1.0  0.39468  0.56078  0.03252  1.0000
  H   H1310     1.0  0.44815  0.74253  0.19033  1.0000
  H   H1311     1.0  0.37994  0.75703  0.19065  1.0000
  S   S238      1.0  0.48584  0.76068  0.08294  1.0000
  Fe  Fe121     1.0  0.26145  0.53045  0.11173  1.0000
  N   N56       1.0  0.47711  0.74858  0.02728  1.0000
  H   H1312     1.0  0.35869  0.56576  0.02933  1.0000
  H   H1313     1.0  0.40320  0.72004  0.18759  1.0000
  C   C784      1.0  0.39163  0.94271  0.29130  1.0000
  H   H1314     1.0  0.33067  0.61042  0.01305  1.0000
  N   N57       1.0  0.32735  0.59048  0.03828  1.0000
  H   H1315     1.0  0.37600  0.92403  0.27052  1.0000
  C   C785      1.0  0.30973  0.50354  0.02561  1.0000
  H   H1316     1.0  0.44574  0.54168  0.01887  1.0000
  S   S239      1.0  0.42905  0.87374  0.27485  1.0000
  H   H1317     1.0  0.38642  0.76712  0.22371  1.0000
  H   H1318     1.0  0.46895  0.54861  0.04650  1.0000
  H   H1319     1.0  0.40816  0.85677  0.32038  1.0000
  C   C786      1.0  0.47209  0.78321  0.03417  1.0000
  H   H1320     1.0  0.29951  0.58973  0.03248  1.0000
  H   H1321     1.0  0.42787  0.72082  0.18511  1.0000
  H   H1322     1.0  0.34317  0.62591  0.05693  1.0000
  N   N58       1.0  0.40943  0.75838  0.18989  1.0000
  H   H1323     1.0  0.46313  0.71340  0.04111  1.0000
  C   C787      1.0  0.40819  0.77480  0.20060  1.0000
  C   C788      1.0  0.42601  0.75888  0.17506  1.0000
  C   C789      1.0  0.39249  0.75926  0.18041  1.0000
  H   H1324     1.0  0.29915  0.50506  0.03817  1.0000
  H   H1325     1.0  0.33915  0.50854  0.01953  1.0000
  C   C790      1.0  0.38813  0.77707  0.16647  1.0000
  H   H1326     1.0  0.31636  0.53832  0.00915  1.0000
  H   H1327     1.0  0.41639  0.58532  0.05008  1.0000
  H   H1328     1.0  0.41073  0.78782  0.19105  1.0000
  C   C791      1.0  0.39982  0.64619  0.00560  1.0000
  C   C792      1.0  0.35004  0.55972  0.04187  1.0000
  H   H1329     1.0  0.45591  0.75766  0.16996  1.0000
  H   H1330     1.0  0.46058  0.56747  0.01853  1.0000
  H   H1331     1.0  0.41611  0.71009  0.20622  1.0000
  H   H1332     1.0  0.35254  0.59491  0.04786  1.0000
  C   C793      1.0  0.24381  0.54648  0.00018  1.0000
  H   H1333     1.0  0.33180  0.49901  0.04296  1.0000
  H   H1334     1.0  0.41226  0.58729  0.02674  1.0000
  H   H1335     1.0  0.39587  0.77552  0.15239  1.0000
  H   H1336     1.0  0.39131  0.79001  0.17080  1.0000
  H   H1337     1.0  0.37307  0.77953  0.16543  1.0000
  N   N59       1.0  0.39712  0.69586  0.08310  1.0000
  C   C794      1.0  0.39485  0.68625  0.06683  1.0000
  C   C795      1.0  0.39398  0.68233  0.10082  1.0000
  C   C796      1.0  0.41627  0.70133  0.08126  1.0000
  C   C797      1.0  0.38347  0.71346  0.08353  1.0000
  C   C798      1.0  0.29672  0.59541  0.06067  1.0000
  C   C799      1.0  0.37381  0.67877  0.10749  1.0000
  C   C800      1.0  0.43233  0.68558  0.07751  1.0000
  C   C801      1.0  0.38373  0.72490  0.09969  1.0000
  H   H1338     1.0  0.40370  0.67240  0.06701  1.0000
  H   H1339     1.0  0.38047  0.68293  0.06795  1.0000
  H   H1340     1.0  0.39910  0.68693  0.11268  1.0000
  H   H1341     1.0  0.40210  0.66833  0.09930  1.0000
  H   H1342     1.0  0.41815  0.71338  0.07004  1.0000
  H   H1343     1.0  0.41831  0.70669  0.09419  1.0000
  H   H1344     1.0  0.38621  0.72340  0.07053  1.0000
  H   H1345     1.0  0.36908  0.71066  0.08330  1.0000
  C   C802      1.0  0.41418  0.92106  0.30906  1.0000
  C   C803      1.0  0.38980  0.77926  0.21326  1.0000
  H   H1346     1.0  0.42135  0.66243  0.00803  1.0000
  H   H1347     1.0  0.37363  0.66776  0.11988  1.0000
  H   H1348     1.0  0.36509  0.69147  0.11209  1.0000
  H   H1349     1.0  0.36759  0.67354  0.09672  1.0000
  H   H1350     1.0  0.43068  0.67248  0.08716  1.0000
  H   H1351     1.0  0.44549  0.69014  0.07957  1.0000
  H   H1352     1.0  0.43387  0.68244  0.06292  1.0000
  H   H1353     1.0  0.39366  0.73534  0.09546  1.0000
  H   H1354     1.0  0.38739  0.71623  0.11275  1.0000
  H   H1355     1.0  0.36970  0.73243  0.10339  1.0000
  C   C804      1.0  0.39664  0.90918  0.28876  1.0000
  H   H1356     1.0  0.33981  0.62694  0.03310  1.0000
  H   H1357     1.0  0.47551  0.73853  0.05688  1.0000
  H   H1358     1.0  0.45572  0.75392  0.05053  1.0000
  H   H1359     1.0  0.41448  0.95782  0.29434  1.0000
  C   C805      1.0  0.37919  0.86332  0.31768  1.0000
  C   C806      1.0  0.25206  0.55630  0.01111  1.0000
  H   H1360     1.0  0.48629  0.63468  0.00319  1.0000
  C   C807      1.0  0.37953  0.91012  0.27865  1.0000
  H   H1361     1.0  0.42582  0.92666  0.14732  1.0000
  H   H1362     1.0  0.35048  0.59427  0.01623  1.0000
  C   C808      1.0  0.42326  0.78398  0.99688  1.0000
  H   H1363     1.0  0.39821  0.73977  0.21353  1.0000
  H   H1364     1.0  0.39947  0.55548  0.05645  1.0000
  H   H1365     1.0  0.39865  0.89462  0.29611  1.0000
  H   H1366     1.0  0.30422  0.61241  0.03446  1.0000
  H   H1367     1.0  0.44251  0.73050  0.03948  1.0000
  C   C809      1.0  0.38024  0.91942  0.31778  1.0000
  H   H1368     1.0  0.35681  0.56016  0.05435  1.0000
  H   H1369     1.0  0.44996  0.72135  0.06140  1.0000
  H   H1370     1.0  0.38628  0.57706  0.04888  1.0000
  H   H1371     1.0  0.29308  0.54045  0.01919  1.0000
  H   H1372     1.0  0.48230  0.74280  0.12137  1.0000
  H   H1373     1.0  0.43649  0.60535  0.02222  1.0000
  H   H1374     1.0  0.36660  0.92203  0.31249  1.0000
  N   N60       1.0  0.44003  0.88541  0.17553  1.0000
  C   C810      1.0  0.43979  0.86547  0.17217  1.0000
  C   C811      1.0  0.42506  0.88932  0.19151  1.0000
  C   C812      1.0  0.45880  0.88665  0.18086  1.0000
  C   C813      1.0  0.43675  0.89813  0.15767  1.0000
  C   C814      1.0  0.45547  0.85758  0.15776  1.0000
  C   C815      1.0  0.40510  0.88847  0.18811  1.0000
  C   C816      1.0  0.46019  0.90244  0.19231  1.0000
  C   C817      1.0  0.43424  0.91946  0.15837  1.0000
  H   H1375     1.0  0.44044  0.85579  0.18551  1.0000
  H   H1376     1.0  0.42668  0.86390  0.16712  1.0000
  H   H1377     1.0  0.42499  0.90331  0.19569  1.0000
  H   H1378     1.0  0.42771  0.87931  0.20426  1.0000
  H   H1379     1.0  0.46388  0.87343  0.18955  1.0000
  H   H1380     1.0  0.46926  0.88810  0.16817  1.0000
  H   H1381     1.0  0.44857  0.89557  0.14654  1.0000
  H   H1382     1.0  0.42481  0.89476  0.15168  1.0000
  H   H1383     1.0  0.46936  0.85717  0.16196  1.0000
  H   H1384     1.0  0.45488  0.86530  0.14350  1.0000
  H   H1385     1.0  0.45372  0.84285  0.15685  1.0000
  H   H1386     1.0  0.40276  0.87405  0.18683  1.0000
  H   H1387     1.0  0.39547  0.89277  0.20044  1.0000
  H   H1388     1.0  0.40118  0.89830  0.17575  1.0000
  C   C818      1.0  0.28234  0.51115  0.00972  1.0000
  H   H1389     1.0  0.45371  0.89927  0.20699  1.0000
  H   H1390     1.0  0.45402  0.91642  0.18633  1.0000
  H   H1391     1.0  0.44782  0.92490  0.15580  1.0000
  H   H1392     1.0  0.28200  0.60149  0.06040  1.0000
  H   H1393     1.0  0.45554  0.58011  0.03793  1.0000
  C   C819      1.0  0.38891  0.63245  0.01461  1.0000
  Fe  Fe122     1.0  0.40750  0.85549  0.27358  1.0000
  H   H1394     1.0  0.30244  0.60300  0.07007  1.0000
  H   H1395     1.0  0.42486  0.77234  0.16554  1.0000
  H   H1396     1.0  0.48857  0.71946  0.02459  1.0000
  H   H1397     1.0  0.42653  0.74805  0.16575  1.0000
  H   H1398     1.0  0.39394  0.74743  0.17205  1.0000
  H   H1399     1.0  0.32498  0.56647  0.05944  1.0000
  H   H1400     1.0  0.32109  0.56226  0.03748  1.0000
  C   C820      1.0  0.39918  0.95910  0.29760  1.0000
  H   H1401     1.0  0.47683  0.87828  0.26428  1.0000
  H   H1402     1.0  0.38193  0.90432  0.32367  1.0000
  H   H1403     1.0  0.39775  0.94285  0.27631  1.0000
  H   H1404     1.0  0.31453  0.58513  0.00434  1.0000
  H   H1405     1.0  0.37817  0.78426  0.20498  1.0000
  H   H1406     1.0  0.38856  0.70981  0.04479  1.0000
  S   S240      1.0  0.26220  0.51841  0.08494  1.0000
  C   C821      1.0  0.41555  0.57679  0.03885  1.0000
  C   C822      1.0  0.30690  0.59741  0.04050  1.0000
  H   H1407     1.0  0.29659  0.58052  0.06678  1.0000
  C   C823      1.0  0.32744  0.50911  0.03088  1.0000
  C   C824      1.0  0.44496  0.75651  0.18220  1.0000
  H   H1408     1.0  0.41930  0.77263  0.20978  1.0000
  C   C825      1.0  0.46619  0.74236  0.04583  1.0000
  C   C826      1.0  0.39898  0.69732  0.04719  1.0000
  H   H1409     1.0  0.40873  0.91060  0.27770  1.0000
  H   H1410     1.0  0.48010  0.61540  0.03845  1.0000
  H   H1411     1.0  0.47500  0.90328  0.19292  1.0000
  S   S241      1.0  0.37256  0.62517  0.00311  1.0000
  C   C827      1.0  0.30267  0.53495  0.00733  1.0000
  H   H1412     1.0  0.41476  0.93164  0.31834  1.0000
  H   H1413     1.0  0.42263  0.89032  0.31142  1.0000
  C   C828      1.0  0.42029  0.90187  0.32013  1.0000
  C   C829      1.0  0.32972  0.58391  0.00407  1.0000
  H   H1414     1.0  0.48022  0.79492  0.03401  1.0000
  H   H1415     1.0  0.41586  0.57105  0.00335  1.0000
  C   C830      1.0  0.48561  0.76568  0.02946  1.0000
  H   H1416     1.0  0.34965  0.87107  0.31956  1.0000
  H   H1417     1.0  0.41941  0.54810  0.99754  1.0000
  C   C831      1.0  0.24195  0.53574  0.03888  1.0000
  S   S242      1.0  0.24061  0.52202  0.13745  1.0000
  C   C832      1.0  0.48956  0.87252  0.26988  1.0000
  H   H1418     1.0  0.38226  0.90426  0.60366  1.0000
  C   C833      1.0  0.25960  0.83148  0.42661  1.0000
  S   S243      1.0  0.32471  0.97300  0.46512  1.0000
  Fe  Fe123     1.0  0.33470  0.87953  0.44307  1.0000
  S   S244      1.0  0.30472  0.88151  0.43997  1.0000
  S   S245      1.0  0.34327  0.88769  0.46925  1.0000
  Fe  Fe124     1.0  0.34658  0.87695  0.40035  1.0000
  S   S246      1.0  0.31721  0.87955  0.39443  1.0000
  S   S247      1.0  0.37262  0.87520  0.37888  1.0000
  Fe  Fe125     1.0  0.31109  0.90136  0.41406  1.0000
  S   S248      1.0  0.29382  0.92956  0.41080  1.0000
  Fe  Fe126     1.0  0.31338  0.85951  0.42101  1.0000
  S   S249      1.0  0.29611  0.83591  0.42475  1.0000
  S   S250      1.0  0.34070  0.90063  0.41771  1.0000
  S   S251      1.0  0.34323  0.85543  0.42608  1.0000
  Fe  Fe127     1.0  0.30901  0.86994  0.61735  1.0000
  S   S252      1.0  0.33494  0.85106  0.60898  1.0000
  H   H1419     1.0  0.36761  0.81060  0.36027  1.0000
  Fe  Fe128     1.0  0.32417  0.90372  0.59485  1.0000
  S   S253      1.0  0.35118  0.88744  0.58484  1.0000
  S   S254      1.0  0.31980  0.93381  0.58278  1.0000
  Fe  Fe129     1.0  0.33334  0.86662  0.57992  1.0000
  S   S255      1.0  0.33330  0.85110  0.55499  1.0000
  S   S256      1.0  0.30645  0.88397  0.58824  1.0000
  C   C834      1.0  0.27343  0.84282  0.41920  1.0000
  C   C835      1.0  0.26897  0.85960  0.40763  1.0000
  H   H1420     1.0  0.33068  0.96852  0.50919  1.0000
  C   C836      1.0  0.30238  0.95488  0.63168  1.0000
  H   H1421     1.0  0.27132  0.88710  0.55922  1.0000
  H   H1422     1.0  0.26054  0.86750  0.44680  1.0000
  H   H1423     1.0  0.27949  0.86848  0.40187  1.0000
  H   H1424     1.0  0.33067  0.85095  0.35547  1.0000
  H   H1425     1.0  0.24458  0.94045  0.41057  1.0000
  C   C837      1.0  0.33892  0.87757  0.49303  1.0000
  C   C838      1.0  0.34169  0.88773  0.50706  1.0000
  C   C839      1.0  0.33951  0.88006  0.52609  1.0000
  C   C840      1.0  0.33484  0.86189  0.53131  1.0000
  C   C841      1.0  0.33178  0.85177  0.51732  1.0000
  C   C842      1.0  0.33364  0.85962  0.49828  1.0000
  H   H1426     1.0  0.34576  0.90155  0.50309  1.0000
  H   H1427     1.0  0.34192  0.88799  0.53668  1.0000
  H   H1428     1.0  0.32833  0.83764  0.52116  1.0000
  H   H1429     1.0  0.33163  0.85154  0.48765  1.0000
  C   C843      1.0  0.26405  0.85828  0.63493  1.0000
  C   C844      1.0  0.25637  0.87080  0.62066  1.0000
  H   H1430     1.0  0.32972  0.94145  0.65939  1.0000
  C   C845      1.0  0.31447  0.96149  0.45083  1.0000
  C   C846      1.0  0.30572  0.97141  0.43589  1.0000
  C   C847      1.0  0.29868  0.96170  0.42390  1.0000
  C   C848      1.0  0.30041  0.94208  0.42689  1.0000
  C   C849      1.0  0.30852  0.93233  0.44229  1.0000
  C   C850      1.0  0.31545  0.94199  0.45428  1.0000
  H   H1431     1.0  0.27712  0.86834  0.47076  1.0000
  H   H1432     1.0  0.29264  0.96935  0.41191  1.0000
  H   H1433     1.0  0.30985  0.91727  0.44489  1.0000
  H   H1434     1.0  0.32213  0.93422  0.46586  1.0000
  H   H1435     1.0  0.38420  0.93538  0.49349  1.0000
  H   H1436     1.0  0.28634  0.85491  0.53540  1.0000
  H   H1437     1.0  0.31184  0.94331  0.50820  1.0000
  C   C851      1.0  0.31429  0.94871  0.59998  1.0000
  C   C852      1.0  0.31948  0.96665  0.59578  1.0000
  C   C853      1.0  0.31674  0.97841  0.60960  1.0000
  S   S257      1.0  0.37502  0.86872  0.63115  1.0000
  H   H1438     1.0  0.26797  0.83950  0.48412  1.0000
  H   H1439     1.0  0.32622  0.97136  0.58198  1.0000
  H   H1440     1.0  0.34426  0.95660  0.62983  1.0000
  H   H1441     1.0  0.37354  0.92063  0.58478  1.0000
  H   H1442     1.0  0.26650  0.87162  0.49374  1.0000
  C   C854      1.0  0.39231  0.86544  0.34585  1.0000
  C   C855      1.0  0.37471  0.87119  0.35518  1.0000
  C   C856      1.0  0.35940  0.87362  0.34544  1.0000
  C   C857      1.0  0.36334  0.92860  0.61252  1.0000
  H   H1443     1.0  0.31006  0.78916  0.38642  1.0000
  H   H1444     1.0  0.40428  0.86364  0.35319  1.0000
  H   H1445     1.0  0.34586  0.87854  0.35227  1.0000
  C   C858      1.0  0.37679  0.87134  0.65475  1.0000
  H   H1446     1.0  0.27686  0.83936  0.52384  1.0000
  H   H1447     1.0  0.33656  0.96607  0.54131  1.0000
  H   H1448     1.0  0.26118  0.97095  0.47132  1.0000
  S   S258      1.0  0.28774  0.85542  0.63753  1.0000
  H   H1449     1.0  0.36706  0.92572  0.34512  1.0000
  H   H1450     1.0  0.33033  0.82963  0.39633  1.0000
  C   C859      1.0  0.34723  0.95353  0.54028  1.0000
  C   C860      1.0  0.35625  0.81889  0.33460  1.0000
  H   H1451     1.0  0.24510  0.90880  0.44703  1.0000
  H   H1452     1.0  0.25378  0.87979  0.57765  1.0000
  H   H1453     1.0  0.39143  0.92605  0.59591  1.0000
  C   C861      1.0  0.34277  0.82882  0.38575  1.0000
  H   H1454     1.0  0.29587  0.95027  0.64559  1.0000
  H   H1455     1.0  0.37832  0.98266  0.48671  1.0000
  C   C862      1.0  0.26616  0.87743  0.47871  1.0000
  H   H1456     1.0  0.29811  0.82852  0.37097  1.0000
  N   N61       1.0  0.24744  0.87660  0.47308  1.0000
  H   H1457     1.0  0.34497  0.79239  0.37145  1.0000
  C   C863      1.0  0.35227  0.82593  0.65334  1.0000
  H   H1458     1.0  0.40504  0.85802  0.65320  1.0000
  C   C864      1.0  0.24857  0.87736  0.45214  1.0000
  C   C865      1.0  0.24881  0.97154  0.42073  1.0000
  N   N62       1.0  0.33913  0.82266  0.36795  1.0000
  C   C866      1.0  0.33279  0.80348  0.37103  1.0000
  C   C867      1.0  0.25086  0.86473  0.40315  1.0000
  H   H1459     1.0  0.25829  0.83934  0.46278  1.0000
  H   H1460     1.0  0.31083  0.81049  0.39500  1.0000
  N   N63       1.0  0.27338  0.83890  0.57244  1.0000
  C   C868      1.0  0.29052  0.82537  0.57606  1.0000
  C   C869      1.0  0.26841  0.83594  0.55392  1.0000
  C   C870      1.0  0.25813  0.83412  0.58801  1.0000
  C   C871      1.0  0.27781  0.85846  0.57243  1.0000
  C   C872      1.0  0.29706  0.82470  0.59532  1.0000
  C   C873      1.0  0.28278  0.84044  0.53670  1.0000
  H   H1461     1.0  0.37220  0.81943  0.38813  1.0000
  H   H1462     1.0  0.39445  0.91773  0.62954  1.0000
  H   H1463     1.0  0.28849  0.81079  0.57465  1.0000
  H   H1464     1.0  0.30254  0.82874  0.56553  1.0000
  C   C874      1.0  0.34114  0.93315  0.65120  1.0000
  H   H1465     1.0  0.26587  0.82115  0.55437  1.0000
  H   H1466     1.0  0.25862  0.81861  0.59159  1.0000
  H   H1467     1.0  0.26006  0.83932  0.60108  1.0000
  H   H1468     1.0  0.29159  0.86052  0.56429  1.0000
  H   H1469     1.0  0.31515  0.94487  0.53161  1.0000
  H   H1470     1.0  0.30079  0.83838  0.59734  1.0000
  H   H1471     1.0  0.28672  0.81995  0.60711  1.0000
  H   H1472     1.0  0.30982  0.81449  0.59609  1.0000
  H   H1473     1.0  0.30611  0.84443  0.38403  1.0000
  H   H1474     1.0  0.27220  0.90469  0.46235  1.0000
  C   C875      1.0  0.25261  0.84739  0.64781  1.0000
  C   C876      1.0  0.32241  0.94113  0.51794  1.0000
  H   H1475     1.0  0.34026  0.94129  0.54728  1.0000
  H   H1476     1.0  0.36786  0.96884  0.54864  1.0000
  H   H1477     1.0  0.29769  0.85277  0.36239  1.0000
  H   H1478     1.0  0.38276  0.96284  0.62782  1.0000
  H   H1479     1.0  0.32541  0.84082  0.65109  1.0000
  H   H1480     1.0  0.36188  0.97919  0.51897  1.0000
  C   C877      1.0  0.24133  0.83699  0.42276  1.0000
  C   C878      1.0  0.26374  0.87514  0.56573  1.0000
  C   C879      1.0  0.31964  0.79851  0.38923  1.0000
  C   C880      1.0  0.36162  0.86952  0.32686  1.0000
  H   H1481     1.0  0.26837  0.99228  0.51092  1.0000
  C   C881      1.0  0.30566  0.94276  0.61792  1.0000
  S   S259      1.0  0.30542  0.98770  0.64476  1.0000
  H   H1482     1.0  0.35740  0.80129  0.39648  1.0000
  C   C882      1.0  0.30811  0.97272  0.62754  1.0000
  C   C883      1.0  0.34382  0.97292  0.39476  1.0000
  S   S260      1.0  0.32400  0.89177  0.62512  1.0000
  C   C884      1.0  0.33756  0.95374  0.50978  1.0000
  H   H1483     1.0  0.32274  0.83340  0.34536  1.0000
  N   N64       1.0  0.36921  0.94886  0.40915  1.0000
  C   C885      1.0  0.35012  0.95977  0.41199  1.0000
  C   C886      1.0  0.37167  0.93565  0.42694  1.0000
  C   C887      1.0  0.37001  0.93798  0.39288  1.0000
  C   C888      1.0  0.38301  0.96275  0.40488  1.0000
  H   H1484     1.0  0.24741  0.95051  0.38704  1.0000
  C   C889      1.0  0.37199  0.94494  0.44450  1.0000
  C   C890      1.0  0.38452  0.92039  0.39179  1.0000
  C   C891      1.0  0.40367  0.95481  0.40373  1.0000
  H   H1485     1.0  0.33955  0.94999  0.41668  1.0000
  H   H1486     1.0  0.34892  0.96883  0.42321  1.0000
  H   H1487     1.0  0.38460  0.92573  0.42555  1.0000
  H   H1488     1.0  0.36043  0.92654  0.43031  1.0000
  H   H1489     1.0  0.35646  0.93292  0.39290  1.0000
  H   H1490     1.0  0.37241  0.94723  0.37933  1.0000
  H   H1491     1.0  0.38150  0.97148  0.39115  1.0000
  H   H1492     1.0  0.38014  0.97329  0.41490  1.0000
  H   H1493     1.0  0.28741  0.89502  0.47908  1.0000
  H   H1494     1.0  0.37308  0.94349  0.55298  1.0000
  H   H1495     1.0  0.38308  0.95406  0.44260  1.0000
  H   H1496     1.0  0.35847  0.95296  0.44891  1.0000
  H   H1497     1.0  0.38473  0.91510  0.37825  1.0000
  H   H1498     1.0  0.38076  0.90880  0.40285  1.0000
  H   H1499     1.0  0.39869  0.92314  0.39250  1.0000
  H   H1500     1.0  0.40937  0.95205  0.38928  1.0000
  H   H1501     1.0  0.40665  0.94205  0.41368  1.0000
  H   H1502     1.0  0.41138  0.96534  0.40761  1.0000
  H   H1503     1.0  0.35404  0.98256  0.48803  1.0000
  C   C892      1.0  0.35840  0.81646  0.39546  1.0000
  H   H1504     1.0  0.30139  0.92892  0.62113  1.0000
  C   C893      1.0  0.36189  0.95545  0.55268  1.0000
  H   H1505     1.0  0.37476  0.93375  0.45627  1.0000
  C   C894      1.0  0.37372  0.96619  0.60078  1.0000
  H   H1506     1.0  0.34645  0.84341  0.38292  1.0000
  H   H1507     1.0  0.39583  0.94769  0.61270  1.0000
  H   H1508     1.0  0.34348  0.96529  0.38280  1.0000
  H   H1509     1.0  0.25522  0.84442  0.55082  1.0000
  H   H1510     1.0  0.36975  0.96236  0.48195  1.0000
  C   C895      1.0  0.25501  0.84032  0.47792  1.0000
  H   H1511     1.0  0.35759  0.81982  0.40993  1.0000
  H   H1512     1.0  0.32594  0.80147  0.35902  1.0000
  H   H1513     1.0  0.26457  0.96957  0.49553  1.0000
  Fe  Fe130     1.0  0.34990  0.87389  0.61502  1.0000
  H   H1514     1.0  0.35495  0.95566  0.56727  1.0000
  H   H1515     1.0  0.25374  0.98400  0.42448  1.0000
  H   H1516     1.0  0.38100  0.97884  0.59730  1.0000
  H   H1517     1.0  0.36268  0.92742  0.49073  1.0000
  H   H1518     1.0  0.24756  0.87749  0.39387  1.0000
  H   H1519     1.0  0.32750  0.79020  0.40022  1.0000
  C   C896      1.0  0.27271  0.89691  0.47653  1.0000
  H   H1520     1.0  0.37448  0.91107  0.64381  1.0000
  H   H1521     1.0  0.29558  0.83026  0.53681  1.0000
  H   H1522     1.0  0.35757  0.95582  0.64801  1.0000
  H   H1523     1.0  0.32782  0.92603  0.51937  1.0000
  H   H1524     1.0  0.24430  0.96284  0.43393  1.0000
  H   H1525     1.0  0.25469  0.98401  0.62004  1.0000
  N   N65       1.0  0.35421  0.95131  0.52007  1.0000
  H   H1526     1.0  0.30453  0.98652  0.43341  1.0000
  H   H1527     1.0  0.24174  0.96784  0.64743  1.0000
  C   C897      1.0  0.36646  0.96634  0.51210  1.0000
  C   C898      1.0  0.36495  0.93198  0.51958  1.0000
  H   H1528     1.0  0.35319  0.93825  0.60457  1.0000
  H   H1529     1.0  0.26089  0.96381  0.41288  1.0000
  C   C899      1.0  0.32523  0.83721  0.35887  1.0000
  C   C900      1.0  0.37328  0.92667  0.50015  1.0000
  H   H1530     1.0  0.26535  0.89739  0.43417  1.0000
  C   C901      1.0  0.38134  0.95343  0.61755  1.0000
  H   H1531     1.0  0.34162  0.95129  0.49502  1.0000
  H   H1532     1.0  0.37997  0.91187  0.50179  1.0000
  C   C902      1.0  0.37861  0.91937  0.59854  1.0000
  H   H1533     1.0  0.38093  0.96171  0.51510  1.0000
  H   H1534     1.0  0.37680  0.93017  0.52770  1.0000
  C   C903      1.0  0.35716  0.82202  0.35487  1.0000
  H   H1535     1.0  0.26295  0.81848  0.43555  1.0000
  H   H1536     1.0  0.26502  0.87963  0.61095  1.0000
  C   C904      1.0  0.25064  0.89643  0.43993  1.0000
  H   H1537     1.0  0.35239  0.98451  0.39033  1.0000
  C   C905      1.0  0.36712  0.97360  0.49099  1.0000
  H   H1538     1.0  0.35623  0.92103  0.52654  1.0000
  H   H1539     1.0  0.35533  0.91711  0.61954  1.0000
  C   C906      1.0  0.27093  0.97285  0.48086  1.0000
  H   H1540     1.0  0.27944  0.86051  0.58681  1.0000
  H   H1541     1.0  0.36345  0.83515  0.35405  1.0000
  H   H1542     1.0  0.25605  0.87253  0.55476  1.0000
  H   H1543     1.0  0.35874  0.97111  0.60369  1.0000
  H   H1544     1.0  0.24842  0.82768  0.48433  1.0000
  H   H1545     1.0  0.37627  0.95894  0.58817  1.0000
  C   C907      1.0  0.30583  0.84067  0.36998  1.0000
  C   C908      1.0  0.37817  0.93077  0.33428  1.0000
  H   H1546     1.0  0.34907  0.80671  0.33400  1.0000
  H   H1547     1.0  0.25838  0.83777  0.65892  1.0000
  H   H1548     1.0  0.26481  0.90551  0.48714  1.0000
  H   H1549     1.0  0.28333  0.96235  0.47847  1.0000
  C   C909      1.0  0.24142  0.85798  0.48204  1.0000
  C   C910      1.0  0.27670  0.99278  0.47645  1.0000
  N   N66       1.0  0.37000  0.93805  0.62676  1.0000
  H   H1550     1.0  0.26480  0.96830  0.65259  1.0000
  C   C911      1.0  0.25165  0.97712  0.64965  1.0000
  H   H1551     1.0  0.33455  0.92517  0.64287  1.0000
  H   H1552     1.0  0.35862  0.83237  0.63952  1.0000
  C   C912      1.0  0.35342  0.94683  0.63872  1.0000
  H   H1553     1.0  0.39090  0.92876  0.34107  1.0000
  H   H1554     1.0  0.41043  0.89850  0.33283  1.0000
  H   H1555     1.0  0.39692  0.94176  0.65028  1.0000
  C   C913      1.0  0.38179  0.92346  0.63834  1.0000
  H   H1556     1.0  0.29008  0.99233  0.48199  1.0000
  H   H1557     1.0  0.32190  0.99165  0.60629  1.0000
  H   H1558     1.0  0.34757  0.81279  0.65095  1.0000
  H   H1559     1.0  0.32945  0.97961  0.39858  1.0000
  C   C914      1.0  0.25560  0.99139  0.63208  1.0000
  C   C915      1.0  0.39457  0.86158  0.32720  1.0000
  H   H1560     1.0  0.37387  0.94585  0.32998  1.0000
  H   H1561     1.0  0.24273  0.89765  0.42789  1.0000
  C   C916      1.0  0.38838  0.93018  0.65496  1.0000
  H   H1562     1.0  0.27047  0.99336  0.63036  1.0000
  H   H1563     1.0  0.34065  0.85377  0.65879  1.0000
  H   H1564     1.0  0.34969  0.83167  0.32649  1.0000
  H   H1565     1.0  0.37058  0.81612  0.32732  1.0000
  Fe  Fe131     1.0  0.44572  0.85723  0.74204  1.0000
  S   S261      1.0  0.44122  0.86625  0.77048  1.0000
  H   H1566     1.0  0.48399  0.92146  0.80123  1.0000
  Fe  Fe132     1.0  0.40529  0.86982  0.73510  1.0000
  S   S262      1.0  0.39802  0.87971  0.76369  1.0000
  S   S263      1.0  0.38179  0.87561  0.71650  1.0000
  Fe  Fe133     1.0  0.42495  0.89194  0.75701  1.0000
  S   S264      1.0  0.43462  0.91990  0.75733  1.0000
  Fe  Fe134     1.0  0.41518  0.85292  0.77489  1.0000
  S   S265      1.0  0.40842  0.83060  0.79997  1.0000
  S   S266      1.0  0.43116  0.88372  0.72806  1.0000
  S   S267      1.0  0.42054  0.84220  0.74682  1.0000
  Fe  Fe135     1.0  0.39802  0.63175  0.93384  1.0000
  S   S268      1.0  0.41097  0.60264  0.92865  1.0000
  S   S269      1.0  0.40240  0.65513  0.91014  1.0000
  Fe  Fe136     1.0  0.38563  0.61929  0.97445  1.0000
  S   S270      1.0  0.39779  0.58955  0.97234  1.0000
  N   N67       1.0  0.44919  0.67095  0.94961  1.0000
  Fe  Fe137     1.0  0.42258  0.60169  0.95560  1.0000
  S   S271      1.0  0.45129  0.59150  0.96426  1.0000
  Fe  Fe138     1.0  0.38479  0.59346  0.94586  1.0000
  S   S272      1.0  0.37023  0.57018  0.93879  1.0000
  S   S273      1.0  0.41100  0.63119  0.95971  1.0000
  S   S274      1.0  0.37111  0.62279  0.94896  1.0000
  Fe  Fe139     1.0  0.45278  0.75108  0.92375  1.0000
  S   S275      1.0  0.45243  0.78180  0.92442  1.0000
  H   H1567     1.0  0.36336  0.82258  0.66237  1.0000
  Fe  Fe140     1.0  0.41159  0.75469  0.92645  1.0000
  S   S276      1.0  0.40784  0.78583  0.92793  1.0000
  S   S277      1.0  0.38729  0.73845  0.92988  1.0000
  Fe  Fe141     1.0  0.43147  0.78641  0.90427  1.0000
  S   S278      1.0  0.43448  0.81154  0.88129  1.0000
  H   H1568     1.0  0.36011  0.59012  0.85935  1.0000
  S   S279      1.0  0.43380  0.75562  0.90160  1.0000
  Fe  Fe142     1.0  0.42909  0.77865  0.94788  1.0000
  Fe  Fe143     1.0  0.26661  0.54182  0.93757  1.0000
  C   C917      1.0  0.48535  0.81840  0.94531  1.0000
  S   S280      1.0  0.28418  0.56511  0.93887  1.0000
  H   H1569     1.0  0.47905  0.84195  0.77363  1.0000
  C   C918      1.0  0.38333  0.94017  0.74045  1.0000
  C   C919      1.0  0.31257  0.50653  0.99080  1.0000
  C   C920      1.0  0.45633  0.65057  0.95546  1.0000
  H   H1570     1.0  0.32455  0.81081  0.71594  1.0000
  C   C921      1.0  0.33730  0.84175  0.69442  1.0000
  H   H1571     1.0  0.29892  0.83921  0.67427  1.0000
  S   S281      1.0  0.26816  0.51571  0.95836  1.0000
  H   H1572     1.0  0.37478  0.96386  0.70837  1.0000
  S   S282      1.0  0.43053  0.79285  0.97327  1.0000
  H   H1573     1.0  0.36337  0.99314  0.68994  1.0000
  H   H1574     1.0  0.39706  0.77167  0.85761  1.0000
  C   C922      1.0  0.37736  0.76495  0.88307  1.0000
  H   H1575     1.0  0.30219  0.81258  0.70773  1.0000
  H   H1576     1.0  0.39236  0.74805  0.86229  1.0000
  H   H1577     1.0  0.47884  0.95502  0.79964  1.0000
  H   H1578     1.0  0.47166  0.82178  0.94024  1.0000
  C   C923      1.0  0.48446  0.96802  0.75851  1.0000
  H   H1579     1.0  0.42975  0.98283  0.77306  1.0000
  C   C924      1.0  0.33270  0.51069  0.98471  1.0000
  H   H1580     1.0  0.46686  0.75490  0.95391  1.0000
  H   H1581     1.0  0.34720  0.64229  0.90863  1.0000
  H   H1582     1.0  0.42265  0.70371  0.94403  1.0000
  H   H1583     1.0  0.33956  0.80570  0.68299  1.0000
  C   C925      1.0  0.34611  0.56829  0.94079  1.0000
  C   C926      1.0  0.34058  0.55202  0.93622  1.0000
  C   C927      1.0  0.32171  0.55051  0.93611  1.0000
  C   C928      1.0  0.30808  0.56539  0.94036  1.0000
  C   C929      1.0  0.31359  0.58148  0.94538  1.0000
  C   C930      1.0  0.33243  0.58288  0.94574  1.0000
  H   H1584     1.0  0.35100  0.54063  0.93235  1.0000
  H   H1585     1.0  0.31775  0.53806  0.93219  1.0000
  H   H1586     1.0  0.30319  0.59306  0.94876  1.0000
  H   H1587     1.0  0.33637  0.59548  0.94934  1.0000
  C   C931      1.0  0.39858  0.67808  0.91618  1.0000
  C   C932      1.0  0.38682  0.68244  0.93229  1.0000
  C   C933      1.0  0.38335  0.70103  0.93635  1.0000
  C   C934      1.0  0.39221  0.71518  0.92476  1.0000
  C   C935      1.0  0.40446  0.71068  0.90900  1.0000
  C   C936      1.0  0.40737  0.69224  0.90455  1.0000
  H   H1588     1.0  0.37998  0.67160  0.94134  1.0000
  H   H1589     1.0  0.37386  0.70444  0.94856  1.0000
  H   H1590     1.0  0.41129  0.72151  0.89995  1.0000
  H   H1591     1.0  0.41651  0.68892  0.89209  1.0000
  H   H1592     1.0  0.36121  0.60866  0.84038  1.0000
  S   S283      1.0  0.26197  0.52680  0.91397  1.0000
  C   C937      1.0  0.42403  0.69804  0.95875  1.0000
  C   C938      1.0  0.41697  0.82540  0.82199  1.0000
  C   C939      1.0  0.42199  0.83927  0.83086  1.0000
  C   C940      1.0  0.42747  0.83473  0.84890  1.0000
  C   C941      1.0  0.42801  0.81630  0.85832  1.0000
  C   C942      1.0  0.42356  0.80232  0.84923  1.0000
  C   C943      1.0  0.41778  0.80692  0.83132  1.0000
  H   H1593     1.0  0.42116  0.85360  0.82402  1.0000
  H   H1594     1.0  0.43094  0.84566  0.85576  1.0000
  H   H1595     1.0  0.42440  0.78801  0.85608  1.0000
  H   H1596     1.0  0.41395  0.79607  0.82459  1.0000
  C   C944      1.0  0.38076  0.87450  0.69238  1.0000
  C   C945      1.0  0.39552  0.86617  0.68068  1.0000
  H   H1597     1.0  0.41209  0.76030  0.99070  1.0000
  C   C946      1.0  0.46884  0.68513  0.96919  1.0000
  H   H1598     1.0  0.47139  0.91006  0.78820  1.0000
  C   C947      1.0  0.36417  0.88166  0.68495  1.0000
  H   H1599     1.0  0.40839  0.86062  0.68611  1.0000
  C   C948      1.0  0.43125  0.67690  0.96148  1.0000
  H   H1600     1.0  0.43934  0.64152  0.98186  1.0000
  H   H1601     1.0  0.35269  0.88827  0.69379  1.0000
  C   C949      1.0  0.40775  0.93654  0.78297  1.0000
  C   C950      1.0  0.42349  0.93821  0.76973  1.0000
  C   C951      1.0  0.43105  0.95510  0.76601  1.0000
  H   H1602     1.0  0.40188  0.92348  0.78597  1.0000
  H   H1603     1.0  0.44310  0.95651  0.75573  1.0000
  H   H1604     1.0  0.45580  0.66693  0.90154  1.0000
  H   H1605     1.0  0.44934  0.64110  0.94899  1.0000
  H   H1606     1.0  0.46422  0.61307  0.92836  1.0000
  H   H1607     1.0  0.42009  0.66917  0.95902  1.0000
  C   C952      1.0  0.38592  0.76282  0.86281  1.0000
  H   H1608     1.0  0.47093  0.88376  0.73960  1.0000
  C   C953      1.0  0.39354  0.86466  0.66201  1.0000
  C   C954      1.0  0.40710  0.96906  0.78814  1.0000
  C   C955      1.0  0.35359  0.79239  0.87615  1.0000
  H   H1609     1.0  0.45995  0.69783  0.94260  1.0000
  H   H1610     1.0  0.37210  0.79714  0.84862  1.0000
  H   H1611     1.0  0.33124  0.58538  0.90573  1.0000
  C   C956      1.0  0.48410  0.82328  0.90349  1.0000
  C   C957      1.0  0.46369  0.68342  0.94988  1.0000
  H   H1612     1.0  0.37380  0.77806  0.91632  1.0000
  H   H1613     1.0  0.39800  0.93500  0.73588  1.0000
  H   H1614     1.0  0.31123  0.87043  0.66220  1.0000
  H   H1615     1.0  0.45569  0.84446  0.80988  1.0000
  H   H1616     1.0  0.37518  0.76546  0.85328  1.0000
  H   H1617     1.0  0.45822  0.81573  0.82284  1.0000
  C   C958      1.0  0.48830  0.59296  0.96407  1.0000
  H   H1618     1.0  0.35632  0.79717  0.91181  1.0000
  S   S284      1.0  0.43078  0.74762  0.94829  1.0000
  C   C959      1.0  0.38479  0.79668  0.88350  1.0000
  H   H1619     1.0  0.47231  0.67499  0.91283  1.0000
  H   H1620     1.0  0.46423  0.94315  0.77864  1.0000
  H   H1621     1.0  0.37900  0.93074  0.75335  1.0000
  S   S285      1.0  0.39618  0.98914  0.79807  1.0000
  H   H1622     1.0  0.34513  0.78117  0.87526  1.0000
  C   C960      1.0  0.36344  0.61794  0.86685  1.0000
  H   H1623     1.0  0.35238  0.75534  0.91501  1.0000
  C   C961      1.0  0.35758  0.64522  0.89620  1.0000
  H   H1624     1.0  0.36581  0.96359  0.75085  1.0000
  H   H1625     1.0  0.34413  0.80309  0.88366  1.0000
  H   H1626     1.0  0.34800  0.80046  0.84735  1.0000
  C   C962      1.0  0.47309  0.59847  0.95406  1.0000
  H   H1627     1.0  0.35754  0.81775  0.85597  1.0000
  H   H1628     1.0  0.29045  0.87194  0.67806  1.0000
  H   H1629     1.0  0.37910  0.81592  0.90482  1.0000
  C   C963      1.0  0.47024  0.85682  0.82710  1.0000
  H   H1630     1.0  0.30069  0.84288  0.69743  1.0000
  H   H1631     1.0  0.46185  0.62888  0.97867  1.0000
  H   H1632     1.0  0.37465  0.93847  0.72985  1.0000
  C   C964      1.0  0.30543  0.86649  0.67695  1.0000
  C   C965      1.0  0.47575  0.60892  0.93631  1.0000
  C   C966      1.0  0.48136  0.82941  0.78421  1.0000
  H   H1633     1.0  0.31771  0.80994  0.67513  1.0000
  H   H1634     1.0  0.35887  0.81678  0.69631  1.0000
  C   C967      1.0  0.37968  0.81646  0.88946  1.0000
  H   H1635     1.0  0.24655  0.98356  0.66253  1.0000
  H   H1636     1.0  0.38853  0.96052  0.75691  1.0000
  C   C968      1.0  0.38064  0.96054  0.74510  1.0000
  H   H1637     1.0  0.34170  0.77225  0.92969  1.0000
  H   H1638     1.0  0.40610  0.95961  0.71026  1.0000
  H   H1639     1.0  0.36661  0.75532  0.88638  1.0000
  H   H1640     1.0  0.38709  0.95101  0.80209  1.0000
  C   C969      1.0  0.35854  0.80234  0.85604  1.0000
  C   C970      1.0  0.48861  0.81867  0.81670  1.0000
  H   H1641     1.0  0.30845  0.54407  0.97699  1.0000
  H   H1642     1.0  0.33506  0.77407  0.90687  1.0000
  H   H1643     1.0  0.45150  0.82590  0.79098  1.0000
  C   C971      1.0  0.41797  0.98461  0.71194  1.0000
  C   C972      1.0  0.39949  0.95206  0.79215  1.0000
  C   C973      1.0  0.37280  0.62833  0.89414  1.0000
  H   H1644     1.0  0.40197  0.60921  0.86485  1.0000
  H   H1645     1.0  0.44019  0.68743  0.92431  1.0000
  C   C974      1.0  0.42319  0.97025  0.77548  1.0000
  C   C975      1.0  0.29783  0.54709  0.98899  1.0000
  H   H1646     1.0  0.43298  0.70633  0.96419  1.0000
  H   H1647     1.0  0.39043  0.79875  0.86856  1.0000
  C   C976      1.0  0.36687  0.60271  0.85361  1.0000
  H   H1648     1.0  0.39068  0.82522  0.88292  1.0000
  H   H1649     1.0  0.30478  0.51138  0.97861  1.0000
  H   H1650     1.0  0.34881  0.62454  0.86670  1.0000
  C   C977      1.0  0.34699  0.77042  0.91490  1.0000
  H   H1651     1.0  0.38183  0.59825  0.84974  1.0000
  H   H1652     1.0  0.36643  0.82363  0.88498  1.0000
  S   S286      1.0  0.47988  0.73217  0.92452  1.0000
  C   C978      1.0  0.40586  0.96916  0.72089  1.0000
  H   H1653     1.0  0.47754  0.93218  0.75991  1.0000
  H   H1654     1.0  0.29747  0.56213  0.99043  1.0000
  C   C979      1.0  0.46488  0.81834  0.78542  1.0000
  H   H1655     1.0  0.43841  0.56193  0.99252  1.0000
  H   H1656     1.0  0.47687  0.67836  0.94153  1.0000
  C   C980      1.0  0.35052  0.60590  0.89927  1.0000
  H   H1657     1.0  0.33871  0.61735  0.89894  1.0000
  H   H1658     1.0  0.47016  0.81242  0.84297  1.0000
  H   H1659     1.0  0.24472  0.55062  0.98523  1.0000
  H   H1660     1.0  0.38064  0.58365  0.88253  1.0000
  H   H1661     1.0  0.45697  0.68502  0.98044  1.0000
  H   H1662     1.0  0.35329  0.60290  0.91410  1.0000
  H   H1663     1.0  0.38453  0.59094  0.90332  1.0000
  H   H1664     1.0  0.37669  0.93454  0.66553  1.0000
  H   H1665     1.0  0.32924  0.84153  0.70864  1.0000
  N   N68       1.0  0.36747  0.61186  0.88674  1.0000
  H   H1666     1.0  0.46735  0.80420  0.79346  1.0000
  H   H1667     1.0  0.39683  0.78967  0.89060  1.0000
  H   H1668     1.0  0.41002  0.70041  0.96681  1.0000
  H   H1669     1.0  0.46804  0.86221  0.79764  1.0000
  H   H1670     1.0  0.37763  0.62385  0.90806  1.0000
  H   H1671     1.0  0.33677  0.59198  0.88151  1.0000
  H   H1672     1.0  0.35318  0.57603  0.89490  1.0000
  H   H1673     1.0  0.43220  0.67337  0.97661  1.0000
  H   H1674     1.0  0.34927  0.88557  0.66094  1.0000
  S   S287      1.0  0.47519  0.84495  0.73337  1.0000
  C   C981      1.0  0.48176  0.75358  0.95158  1.0000
  C   C982      1.0  0.46112  0.66594  0.91516  1.0000
  H   H1675     1.0  0.38822  0.75895  0.89219  1.0000
  N   N69       1.0  0.36943  0.78450  0.88715  1.0000
  N   N70       1.0  0.38617  0.97536  0.72920  1.0000
  C   C983      1.0  0.30754  0.84501  0.68274  1.0000
  H   H1676     1.0  0.39769  0.65294  0.99169  1.0000
  H   H1677     1.0  0.47342  0.79486  0.82794  1.0000
  H   H1678     1.0  0.35839  0.97844  0.72194  1.0000
  C   C984      1.0  0.40241  0.60110  0.87894  1.0000
  C   C985      1.0  0.31712  0.80725  0.70511  1.0000
  C   C986      1.0  0.34287  0.58879  0.89477  1.0000
  H   H1679     1.0  0.41210  0.58798  0.87757  1.0000
  C   C987      1.0  0.36215  0.88006  0.66632  1.0000
  H   H1680     1.0  0.36157  0.99206  0.75995  1.0000
  N   N71       1.0  0.32708  0.83496  0.68090  1.0000
  H   H1681     1.0  0.48291  0.77378  0.96985  1.0000
  H   H1682     1.0  0.38470  0.63403  0.88491  1.0000
  C   C988      1.0  0.46921  0.84965  0.80848  1.0000
  H   H1683     1.0  0.35065  0.64951  0.88348  1.0000
  H   H1684     1.0  0.31811  0.79170  0.70681  1.0000
  H   H1685     1.0  0.37184  0.62914  0.85971  1.0000
  C   C989      1.0  0.32582  0.81420  0.68514  1.0000
  H   H1686     1.0  0.47131  0.64750  0.95019  1.0000
  H   H1687     1.0  0.48093  0.86635  0.82557  1.0000
  H   H1688     1.0  0.47264  0.81495  0.90967  1.0000
  H   H1689     1.0  0.31160  0.87380  0.68626  1.0000
  C   C990      1.0  0.36229  0.78314  0.90780  1.0000
  H   H1690     1.0  0.41386  0.96076  0.73183  1.0000
  H   H1691     1.0  0.40834  0.60929  0.88768  1.0000
  C   C991      1.0  0.44498  0.67267  0.92974  1.0000
  C   C992      1.0  0.35710  0.83210  0.69646  1.0000
  H   H1692     1.0  0.48646  0.58476  0.97773  1.0000
  H   H1693     1.0  0.43344  0.66457  0.92914  1.0000
  H   H1694     1.0  0.36397  0.65741  0.89860  1.0000
  C   C993      1.0  0.37296  0.97692  0.71500  1.0000
  H   H1695     1.0  0.46683  0.65106  0.91880  1.0000
  C   C994      1.0  0.38322  0.59611  0.88833  1.0000
  H   H1696     1.0  0.42213  0.99157  0.72287  1.0000
  H   H1697     1.0  0.33546  0.51281  0.96917  1.0000
  C   C995      1.0  0.48488  0.82519  0.88199  1.0000
  H   H1698     1.0  0.46332  0.81612  0.77102  1.0000
  H   H1699     1.0  0.36732  0.83855  0.68556  1.0000
  C   C996      1.0  0.47152  0.81030  0.82804  1.0000
  H   H1700     1.0  0.45922  0.65194  0.98513  1.0000
  H   H1701     1.0  0.36053  0.83388  0.71035  1.0000
  H   H1702     1.0  0.33866  0.85684  0.69029  1.0000
  C   C997      1.0  0.45401  0.64315  0.97654  1.0000
  C   C998      1.0  0.48319  0.96485  0.73833  1.0000
  H   H1703     1.0  0.47041  0.97400  0.76462  1.0000
  H   H1704     1.0  0.47377  0.69896  0.96858  1.0000
  H   H1705     1.0  0.47061  0.82943  0.87834  1.0000
  Fe  Fe144     1.0  0.26126  0.50128  0.93571  1.0000
  C   C999      1.0  0.33583  0.83974  0.66092  1.0000
  H   H1706     1.0  0.34263  0.49873  0.98999  1.0000
  H   H1707     1.0  0.38766  0.99144  0.68962  1.0000
  C   C1000     1.0  0.37433  0.99310  0.69885  1.0000
  H   H1708     1.0  0.39715  0.91831  0.66214  1.0000
  H   H1709     1.0  0.47829  0.97855  0.73041  1.0000
  C   C1001     1.0  0.48485  0.87747  0.74164  1.0000
  H   H1710     1.0  0.47917  0.83763  0.90727  1.0000
  H   H1711     1.0  0.45679  0.86520  0.83141  1.0000
  H   H1712     1.0  0.47259  0.84532  0.83864  1.0000
  H   H1713     1.0  0.47301  0.95530  0.73769  1.0000
  C   C1002     1.0  0.47845  0.93684  0.77352  1.0000
  H   H1714     1.0  0.48517  0.82699  0.95670  1.0000
  H   H1715     1.0  0.34874  0.92335  0.66146  1.0000
  C   C1003     1.0  0.38516  0.99341  0.73734  1.0000
  H   H1716     1.0  0.33556  0.58944  0.98967  1.0000
  H   H1717     1.0  0.33572  0.52368  0.98903  1.0000
  C   C1004     1.0  0.48287  0.91868  0.78696  1.0000
  N   N72       1.0  0.48504  0.83536  0.80208  1.0000
  H   H1718     1.0  0.46180  0.74034  0.98806  1.0000
  H   H1719     1.0  0.39487  0.99146  0.74797  1.0000
  H   H1720     1.0  0.43093  0.97808  0.70427  1.0000
  H   H1721     1.0  0.47999  0.67383  0.97318  1.0000
  H   H1722     1.0  0.28413  0.54555  0.98548  1.0000
  H   H1723     1.0  0.48718  0.80361  0.95185  1.0000
  H   H1724     1.0  0.48389  0.98700  0.78819  1.0000
  H   H1725     1.0  0.48969  0.78496  0.89462  1.0000
  H   H1726     1.0  0.65297  0.28735  0.17789  1.0000
  H   H1727     1.0  0.71937  0.38306  0.04559  1.0000
  Fe  Fe145     1.0  0.56753  0.10515  0.12380  1.0000
  S   S288      1.0  0.59483  0.08846  0.11521  1.0000
  S   S289      1.0  0.54104  0.09253  0.12832  1.0000
  Fe  Fe146     1.0  0.58455  0.14004  0.12580  1.0000
  S   S290      1.0  0.61324  0.12607  0.11786  1.0000
  S   S291      1.0  0.57577  0.17045  0.12950  1.0000
  Fe  Fe147     1.0  0.60098  0.11482  0.09596  1.0000
  S   S292      1.0  0.61190  0.12145  0.06506  1.0000
  Fe  Fe148     1.0  0.60418  0.10117  0.13800  1.0000
  S   S293      1.0  0.62214  0.08432  0.15926  1.0000
  S   S294      1.0  0.57296  0.13029  0.10297  1.0000
  S   S295      1.0  0.57636  0.11629  0.14746  1.0000
  Fe  Fe149     1.0  0.59273  0.28004  0.09539  1.0000
  S   S296      1.0  0.60687  0.25353  0.08468  1.0000
  S   S297      1.0  0.56147  0.28401  0.10416  1.0000
  Fe  Fe150     1.0  0.63027  0.29498  0.09498  1.0000
  S   S298      1.0  0.64669  0.26930  0.08462  1.0000
  S   S299      1.0  0.64405  0.32039  0.09760  1.0000
  Fe  Fe151     1.0  0.62514  0.27224  0.06552  1.0000
  S   S300      1.0  0.63418  0.27027  0.03518  1.0000
  Fe  Fe152     1.0  0.62680  0.25317  0.10495  1.0000
  S   S301      1.0  0.63635  0.22538  0.12119  1.0000
  S   S302      1.0  0.60963  0.29891  0.07446  1.0000
  S   S303      1.0  0.61184  0.27864  0.11722  1.0000
  C   C1005     1.0  0.49712  0.11125  0.10085  1.0000
  Fe  Fe153     1.0  0.60563  0.03693  0.26749  1.0000
  S   S304      1.0  0.59356  0.03681  0.29803  1.0000
  S   S305      1.0  0.59780  0.06310  0.24695  1.0000
  H   H1728     1.0  0.60294  0.17493  0.16853  1.0000
  C   C1006     1.0  0.60622  0.13457  0.17303  1.0000
  Fe  Fe154     1.0  0.62072  0.02042  0.30543  1.0000
  H   H1729     1.0  0.62233  0.10679  0.21317  1.0000
  S   S306      1.0  0.63341  0.02307  0.27504  1.0000
  S   S307      1.0  0.55767  0.99857  0.30535  1.0000
  H   H1730     1.0  0.53423  0.27967  0.04731  1.0000
  H   H1731     1.0  0.70204  0.28563  0.06111  1.0000
  C   C1007     1.0  0.66124  0.27573  0.17080  1.0000
  S   S308      1.0  0.59590  0.00977  0.26464  1.0000
  H   H1732     1.0  0.51330  0.22314  0.13049  1.0000
  C   C1008     1.0  0.65330  0.31646  0.04265  1.0000
  C   C1009     1.0  0.57307  0.16999  0.06570  1.0000
  C   C1010     1.0  0.51011  0.17729  0.12779  1.0000
  C   C1011     1.0  0.52680  0.03886  0.27425  1.0000
  C   C1012     1.0  0.54170  0.02844  0.28268  1.0000
  H   H1733     1.0  0.53711  0.09009  0.05795  1.0000
  H   H1734     1.0  0.55482  0.03389  0.28086  1.0000
  C   C1013     1.0  0.61775  0.26038  0.02625  1.0000
  H   H1735     1.0  0.63389  0.10864  0.18328  1.0000
  H   H1736     1.0  0.55283  0.30751  0.00070  1.0000
  H   H1737     1.0  0.72968  0.36150  0.03743  1.0000
  C   C1014     1.0  0.58688  0.25158  0.02884  1.0000
  C   C1015     1.0  0.60024  0.25876  0.03646  1.0000
  H   H1738     1.0  0.61021  0.17616  0.19107  1.0000
  H   H1739     1.0  0.72513  0.28598  0.04956  1.0000
  H   H1740     1.0  0.57317  0.25096  0.03647  1.0000
  H   H1741     1.0  0.59661  0.26396  0.04975  1.0000
  C   C1016     1.0  0.54336  0.28240  0.09117  1.0000
  C   C1017     1.0  0.54659  0.28073  0.07205  1.0000
  C   C1018     1.0  0.53162  0.28050  0.06215  1.0000
  C   C1019     1.0  0.67662  0.26756  0.18290  1.0000
  H   H1742     1.0  0.70341  0.27914  0.02940  1.0000
  C   C1020     1.0  0.52508  0.28323  0.10032  1.0000
  H   H1743     1.0  0.56057  0.27994  0.06487  1.0000
  H   H1744     1.0  0.54286  0.09917  0.02840  1.0000
  N   N73       1.0  0.49336  0.07534  0.17819  1.0000
  H   H1745     1.0  0.52242  0.28459  0.11508  1.0000
  C   C1021     1.0  0.61429  0.07670  0.18319  1.0000
  C   C1022     1.0  0.62666  0.06513  0.19427  1.0000
  C   C1023     1.0  0.62147  0.05993  0.21360  1.0000
  C   C1024     1.0  0.60393  0.06656  0.22220  1.0000
  C   C1025     1.0  0.59148  0.07796  0.21106  1.0000
  C   C1026     1.0  0.59652  0.08279  0.19166  1.0000
  H   H1746     1.0  0.64044  0.06029  0.18791  1.0000
  H   H1747     1.0  0.63128  0.05131  0.22197  1.0000
  H   H1748     1.0  0.57791  0.08324  0.21756  1.0000
  H   H1749     1.0  0.58676  0.09156  0.18338  1.0000
  C   C1027     1.0  0.60479  0.12313  0.02878  1.0000
  C   C1028     1.0  0.60115  0.11466  0.04740  1.0000
  C   C1029     1.0  0.58953  0.10064  0.05145  1.0000
  H   H1750     1.0  0.61385  0.13389  0.02547  1.0000
  H   H1751     1.0  0.58671  0.09392  0.06568  1.0000
  C   C1030     1.0  0.59294  0.18530  0.12723  1.0000
  C   C1031     1.0  0.61165  0.17817  0.12721  1.0000
  C   C1032     1.0  0.62496  0.19049  0.12564  1.0000
  C   C1033     1.0  0.61963  0.20996  0.12366  1.0000
  C   C1034     1.0  0.60094  0.21702  0.12355  1.0000
  C   C1035     1.0  0.58763  0.20472  0.12548  1.0000
  H   H1752     1.0  0.61585  0.16321  0.12850  1.0000
  H   H1753     1.0  0.63942  0.18497  0.12566  1.0000
  H   H1754     1.0  0.59665  0.23200  0.12234  1.0000
  H   H1755     1.0  0.57318  0.21033  0.12558  1.0000
  C   C1036     1.0  0.52459  0.10720  0.11615  1.0000
  H   H1756     1.0  0.49892  0.17097  0.12345  1.0000
  H   H1757     1.0  0.50554  0.18197  0.14169  1.0000
  C   C1037     1.0  0.52297  0.08622  0.06002  1.0000
  C   C1038     1.0  0.51415  0.13748  0.09951  1.0000
  C   C1039     1.0  0.52629  0.12622  0.11085  1.0000
  H   H1758     1.0  0.57437  0.22873  0.06780  1.0000
  H   H1759     1.0  0.62622  0.18344  0.04078  1.0000
  H   H1760     1.0  0.51589  0.15201  0.09492  1.0000
  H   H1761     1.0  0.53676  0.13233  0.11573  1.0000
  C   C1040     1.0  0.70586  0.32150  0.10059  1.0000
  C   C1041     1.0  0.69324  0.33788  0.10106  1.0000
  C   C1042     1.0  0.67447  0.33743  0.09953  1.0000
  C   C1043     1.0  0.66814  0.32070  0.09735  1.0000
  C   C1044     1.0  0.68092  0.30452  0.09603  1.0000
  C   C1045     1.0  0.69962  0.30491  0.09778  1.0000
  H   H1762     1.0  0.69779  0.35072  0.10333  1.0000
  H   H1763     1.0  0.66472  0.35005  0.10053  1.0000
  H   H1764     1.0  0.67631  0.29158  0.09417  1.0000
  H   H1765     1.0  0.70929  0.29218  0.09735  1.0000
  H   H1766     1.0  0.65447  0.33157  0.03846  1.0000
  H   H1767     1.0  0.53366  0.11944  0.06543  1.0000
  H   H1768     1.0  0.53224  0.22125  0.00309  1.0000
  N   N74       1.0  0.60286  0.18598  0.06272  1.0000
  C   C1046     1.0  0.51015  0.28257  0.09052  1.0000
  H   H1769     1.0  0.49381  0.21183  0.13885  1.0000
  C   C1047     1.0  0.67756  0.29938  0.14852  1.0000
  C   C1048     1.0  0.50970  0.03205  0.27651  1.0000
  H   H1770     1.0  0.56180  0.16680  0.07720  1.0000
  H   H1771     1.0  0.60709  0.12054  0.22865  1.0000
  C   C1049     1.0  0.51090  0.22250  0.09216  1.0000
  H   H1772     1.0  0.70409  0.30924  0.14825  1.0000
  H   H1773     1.0  0.58891  0.17644  0.03078  1.0000
  H   H1774     1.0  0.57640  0.15796  0.05747  1.0000
  C   C1050     1.0  0.50850  0.05357  0.15331  1.0000
  H   H1775     1.0  0.64072  0.17418  0.08829  1.0000
  H   H1776     1.0  0.68017  0.23911  0.13321  1.0000
  H   H1777     1.0  0.51367  0.06600  0.14474  1.0000
  H   H1778     1.0  0.57801  0.13302  0.18758  1.0000
  C   C1051     1.0  0.61729  0.18828  0.07457  1.0000
  H   H1779     1.0  0.58620  0.15459  0.18964  1.0000
  H   H1780     1.0  0.58751  0.32165  0.04749  1.0000
  H   H1781     1.0  0.70562  0.29060  0.13473  1.0000
  H   H1782     1.0  0.64557  0.31127  0.03303  1.0000
  C   C1052     1.0  0.64682  0.12232  0.15777  1.0000
  N   N75       1.0  0.50313  0.21047  0.10945  1.0000
  C   C1053     1.0  0.50825  0.10081  0.05093  1.0000
  H   H1783     1.0  0.60186  0.19591  0.02155  1.0000
  N   N76       1.0  0.68642  0.30626  0.02703  1.0000
  C   C1054     1.0  0.58157  0.21503  0.07357  1.0000
  H   H1784     1.0  0.58545  0.17693  0.08845  1.0000
  C   C1055     1.0  0.63821  0.12277  0.17837  1.0000
  H   H1785     1.0  0.64480  0.31520  0.05660  1.0000
  H   H1786     1.0  0.63625  0.12268  0.14842  1.0000
  H   H1787     1.0  0.56712  0.18252  0.05697  1.0000
  H   H1788     1.0  0.52241  0.27877  0.01129  1.0000
  C   C1056     1.0  0.67907  0.26717  0.14059  1.0000
  H   H1789     1.0  0.62324  0.15955  0.08926  1.0000
  C   C1057     1.0  0.71085  0.29353  0.04986  1.0000
  H   H1790     1.0  0.67542  0.30868  0.13521  1.0000
  C   C1058     1.0  0.67228  0.30460  0.04429  1.0000
  H   H1791     1.0  0.50989  0.13858  0.04844  1.0000
  H   H1792     1.0  0.49617  0.28344  0.09774  1.0000
  H   H1793     1.0  0.71592  0.29817  0.01981  1.0000
  H   H1794     1.0  0.68561  0.25543  0.17745  1.0000
  H   H1795     1.0  0.49385  0.10910  0.01830  1.0000
  H   H1796     1.0  0.53309  0.06917  0.16622  1.0000
  H   H1797     1.0  0.71292  0.40912  0.01619  1.0000
  H   H1798     1.0  0.70097  0.32675  0.00817  1.0000
  H   H1799     1.0  0.64104  0.27690  0.14388  1.0000
  H   H1800     1.0  0.70491  0.28731  0.99551  1.0000
  C   C1059     1.0  0.67887  0.29894  0.01181  1.0000
  H   H1801     1.0  0.73441  0.44077  0.99493  1.0000
  C   C1060     1.0  0.58668  0.14389  0.18034  1.0000
  N   N77       1.0  0.62226  0.13802  0.18209  1.0000
  H   H1802     1.0  0.52179  0.16584  0.12951  1.0000
  H   H1803     1.0  0.59046  0.21819  0.08332  1.0000
  H   H1804     1.0  0.67013  0.26232  0.19713  1.0000
  H   H1805     1.0  0.52843  0.09236  0.17333  1.0000
  H   H1806     1.0  0.65183  0.26487  0.17202  1.0000
  H   H1807     1.0  0.61101  0.17262  0.01734  1.0000
  C   C1061     1.0  0.50760  0.01457  0.28711  1.0000
  N   N78       1.0  0.50802  0.25728  0.00454  1.0000
  H   H1808     1.0  0.72867  0.40637  0.99551  1.0000
  H   H1809     1.0  0.62548  0.30862  0.13886  1.0000
  H   H1810     1.0  0.51874  0.08402  0.07539  1.0000
  C   C1062     1.0  0.69883  0.29575  0.14797  1.0000
  H   H1811     1.0  0.50013  0.23352  0.08671  1.0000
  H   H1812     1.0  0.66982  0.28969  0.04845  1.0000
  C   C1063     1.0  0.52851  0.07712  0.17820  1.0000
  H   H1813     1.0  0.65843  0.25291  0.13112  1.0000
  C   C1064     1.0  0.70440  0.47872  0.10974  1.0000
  C   C1065     1.0  0.59096  0.24634  0.01087  1.0000
  H   H1814     1.0  0.68875  0.33424  0.04874  1.0000
  H   H1815     1.0  0.57079  0.20670  0.08144  1.0000
  C   C1066     1.0  0.49036  0.25551  0.99729  1.0000
  H   H1816     1.0  0.52517  0.14093  0.02716  1.0000
  C   C1067     1.0  0.61283  0.17772  0.04554  1.0000
  C   C1068     1.0  0.60279  0.18100  0.02801  1.0000
  C   C1069     1.0  0.65008  0.28825  0.14109  1.0000
  C   C1070     1.0  0.59015  0.17289  0.07421  1.0000
  H   H1817     1.0  0.52380  0.24814  0.04625  1.0000
  H   H1818     1.0  0.57961  0.15096  0.16825  1.0000
  H   H1819     1.0  0.53575  0.11506  0.00951  1.0000
  H   H1820     1.0  0.59904  0.11562  0.20833  1.0000
  C   C1071     1.0  0.62191  0.25473  0.00847  1.0000
  H   H1821     1.0  0.61653  0.16224  0.04883  1.0000
  H   H1822     1.0  0.68369  0.27282  0.12582  1.0000
  H   H1823     1.0  0.60297  0.21479  0.04976  1.0000
  C   C1072     1.0  0.58578  0.10316  0.01831  1.0000
  C   C1073     1.0  0.50837  0.24577  0.02355  1.0000
  H   H1824     1.0  0.57362  0.08349  0.04019  1.0000
  H   H1825     1.0  0.66634  0.30820  0.00768  1.0000
  N   N79       1.0  0.66732  0.28247  0.15051  1.0000
  C   C1074     1.0  0.69535  0.33751  0.03420  1.0000
  C   C1075     1.0  0.52127  0.13084  0.03976  1.0000
  H   H1826     1.0  0.69200  0.26207  0.14685  1.0000
  C   C1076     1.0  0.62255  0.30867  0.99656  1.0000
  H   H1827     1.0  0.61072  0.19332  0.08795  1.0000
  H   H1828     1.0  0.51832  0.07833  0.02286  1.0000
  H   H1829     1.0  0.60858  0.13899  0.15766  1.0000
  H   H1830     1.0  0.64969  0.12367  0.18639  1.0000
  H   H1831     1.0  0.58311  0.20529  0.04719  1.0000
  H   H1832     1.0  0.60739  0.14884  0.20732  1.0000
  C   C1077     1.0  0.59289  0.20530  0.05730  1.0000
  N   N80       1.0  0.58764  0.31889  0.00624  1.0000
  C   C1078     1.0  0.60706  0.31617  0.01136  1.0000
  C   C1079     1.0  0.57488  0.32774  0.02162  1.0000
  H   H1833     1.0  0.71157  0.43719  0.99301  1.0000
  H   H1834     1.0  0.49815  0.09249  0.04720  1.0000
  H   H1835     1.0  0.69052  0.47786  0.10616  1.0000
  C   C1080     1.0  0.57608  0.31730  0.04156  1.0000
  H   H1836     1.0  0.49312  0.04545  0.17963  1.0000
  C   C1081     1.0  0.56224  0.29687  0.00839  1.0000
  H   H1837     1.0  0.61070  0.32955  0.01462  1.0000
  H   H1838     1.0  0.60821  0.30596  0.02430  1.0000
  H   H1839     1.0  0.56019  0.32936  0.01922  1.0000
  H   H1840     1.0  0.57772  0.34233  0.02182  1.0000
  H   H1841     1.0  0.49333  0.10537  0.17156  1.0000
  C   C1082     1.0  0.72589  0.37671  0.03292  1.0000
  C   C1083     1.0  0.49362  0.09294  0.16424  1.0000
  H   H1842     1.0  0.59047  0.28857  0.01201  1.0000
  H   H1843     1.0  0.63528  0.30355  0.00315  1.0000
  C   C1084     1.0  0.60853  0.24767  0.00082  1.0000
  C   C1085     1.0  0.50002  0.22069  0.12637  1.0000
  H   H1844     1.0  0.56308  0.32107  0.05088  1.0000
  H   H1845     1.0  0.57835  0.30184  0.04197  1.0000
  H   H1846     1.0  0.72304  0.41383  0.04445  1.0000
  H   H1847     1.0  0.52026  0.04422  0.15901  1.0000
  H   H1848     1.0  0.49448  0.00916  0.28890  1.0000
  H   H1849     1.0  0.53886  0.08027  0.00648  1.0000
  H   H1850     1.0  0.55753  0.29628  0.02360  1.0000
  H   H1851     1.0  0.51191  0.05806  0.19626  1.0000
  H   H1852     1.0  0.60001  0.12408  0.00004  1.0000
  H   H1853     1.0  0.62601  0.19919  0.06734  1.0000
  C   C1086     1.0  0.53945  0.01130  0.29380  1.0000
  H   H1854     1.0  0.50316  0.04633  0.14329  1.0000
  H   H1855     1.0  0.49831  0.28243  0.01769  1.0000
  H   H1856     1.0  0.71062  0.33554  0.03382  1.0000
  C   C1087     1.0  0.51692  0.19315  0.11294  1.0000
  H   H1857     1.0  0.67438  0.28486  0.01692  1.0000
  H   H1858     1.0  0.50686  0.08187  0.20041  1.0000
  H   H1859     1.0  0.56076  0.28294  0.00476  1.0000
  C   C1088     1.0  0.52751  0.23223  0.09433  1.0000
  H   H1860     1.0  0.65375  0.29055  0.12564  1.0000
  H   H1861     1.0  0.55020  0.11988  0.04408  1.0000
  H   H1862     1.0  0.59779  0.15860  0.07715  1.0000
  C   C1089     1.0  0.63755  0.30605  0.14678  1.0000
  H   H1863     1.0  0.71572  0.37778  0.02294  1.0000
  H   H1864     1.0  0.65540  0.13381  0.15269  1.0000
  C   C1090     1.0  0.63060  0.17045  0.08010  1.0000
  H   H1865     1.0  0.67719  0.30851  0.05659  1.0000
  C   C1091     1.0  0.66982  0.24966  0.13991  1.0000
  C   C1092     1.0  0.51332  0.28143  0.07132  1.0000
  C   C1093     1.0  0.50912  0.27739  0.00653  1.0000
  H   H1866     1.0  0.53724  0.25217  0.02392  1.0000
  C   C1094     1.0  0.61128  0.11895  0.21364  1.0000
  H   H1867     1.0  0.63869  0.16445  0.06781  1.0000
  H   H1868     1.0  0.63193  0.30449  0.16182  1.0000
  C   C1095     1.0  0.61796  0.13727  0.20307  1.0000
  H   H1869     1.0  0.70358  0.28578  0.15978  1.0000
  C   C1096     1.0  0.58212  0.09475  0.03694  1.0000
  C   C1097     1.0  0.52582  0.08825  0.01249  1.0000
  C   C1098     1.0  0.52671  0.24376  0.03206  1.0000
  H   H1870     1.0  0.52205  0.18685  0.09983  1.0000
  H   H1871     1.0  0.69071  0.35265  0.03028  1.0000
  H   H1872     1.0  0.52857  0.05233  0.26602  1.0000
  H   H1873     1.0  0.52951  0.19680  0.11752  1.0000
  H   H1874     1.0  0.71637  0.44187  0.01491  1.0000
  C   C1099     1.0  0.50983  0.09977  0.11136  1.0000
  H   H1875     1.0  0.64460  0.31881  0.14306  1.0000
  H   H1876     1.0  0.52348  0.24295  0.10400  1.0000
  C   C1100     1.0  0.49958  0.12996  0.09450  1.0000
  N   N81       1.0  0.51504  0.11396  0.03403  1.0000
  H   H1877     1.0  0.67194  0.30824  0.15979  1.0000
  H   H1878     1.0  0.62185  0.18682  0.16987  1.0000
  H   H1879     1.0  0.50501  0.23141  0.02320  1.0000
  S   S309      1.0  0.57357  0.23992  0.00032  1.0000
  H   H1880     1.0  0.68496  0.27844  0.18469  1.0000
  H   H1881     1.0  0.63265  0.15715  0.15836  1.0000
  H   H1882     1.0  0.60536  0.11926  0.17457  1.0000
  C   C1101     1.0  0.61491  0.17437  0.17623  1.0000
  H   H1883     1.0  0.64151  0.15827  0.17948  1.0000
  C   C1102     1.0  0.59699  0.11755  0.01432  1.0000
  S   S310      1.0  0.72886  0.32045  0.10561  1.0000
  C   C1103     1.0  0.49923  0.12100  0.02272  1.0000
  C   C1104     1.0  0.62877  0.15657  0.17375  1.0000
  H   H1884     1.0  0.65616  0.10892  0.15664  1.0000
  H   H1885     1.0  0.63040  0.13936  0.20909  1.0000
  Fe  Fe155     1.0  0.58540  0.00886  0.29520  1.0000
  H   H1886     1.0  0.51765  0.09350  0.00074  1.0000
  H   H1887     1.0  0.53928  0.07317  0.18773  1.0000
  H   H1888     1.0  0.50834  0.08511  0.11552  1.0000
  H   H1889     1.0  0.53917  0.22210  0.09913  1.0000
  H   H1890     1.0  0.53298  0.22885  0.03386  1.0000
  C   C1105     1.0  0.50967  0.07272  0.18907  1.0000
  H   H1891     1.0  0.73221  0.44103  0.04889  1.0000
  H   H1892     1.0  0.67764  0.33459  0.01398  1.0000
  C   C1106     1.0  0.49281  0.05821  0.16909  1.0000
  H   H1893     1.0  0.50659  0.09276  0.15438  1.0000
  C   C1107     1.0  0.53058  0.10463  0.02127  1.0000
  C   C1108     1.0  0.68971  0.32627  0.02017  1.0000
  C   C1109     1.0  0.52238  0.00435  0.29595  1.0000
  H   H1894     1.0  0.70411  0.47668  0.12515  1.0000
  C   C1110     1.0  0.53751  0.12713  0.05137  1.0000
  Fe  Fe156     1.0  0.62258  0.99594  0.27452  1.0000
  H   H1895     1.0  0.66474  0.24286  0.15401  1.0000
  H   H1896     1.0  0.49530  0.18130  0.09084  1.0000
  C   C1111     1.0  0.72623  0.41319  0.00851  1.0000
  C   C1112     1.0  0.72224  0.43450  0.00268  1.0000
  H   H1897     1.0  0.71380  0.46668  0.10449  1.0000
  S   S311      1.0  0.57613  0.09503  0.00062  1.0000
  H   H1898     1.0  0.50405  0.12989  0.00953  1.0000
  H   H1899     1.0  0.53270  0.23974  0.08055  1.0000
  C   C1113     1.0  0.58275  0.30013  0.00346  1.0000
  C   C1114     1.0  0.70435  0.29405  0.03063  1.0000
  H   H1900     1.0  0.56000  0.99670  0.24673  1.0000
  H   H1901     1.0  0.51559  0.21399  0.08045  1.0000
  H   H1902     1.0  0.71134  0.30759  0.05357  1.0000
  H   H1903     1.0  0.54105  0.14079  0.05382  1.0000
  H   H1904     1.0  0.52333  0.07231  0.05537  1.0000
  H   H1905     1.0  0.50045  0.10894  0.06202  1.0000
  S   S312      1.0  0.49495  0.28151  0.05809  1.0000
  H   H1906     1.0  0.73128  0.41689  0.12716  1.0000
  C   C1115     1.0  0.69213  0.29711  0.99342  1.0000
  H   H1907     1.0  0.49731  0.25183  0.03391  1.0000
  H   H1908     1.0  0.63543  0.25593  0.00056  1.0000
  H   H1909     1.0  0.73477  0.44059  0.14714  1.0000
  H   H1910     1.0  0.49173  0.24941  0.13281  1.0000
  S   S313      1.0  0.64089  0.02376  0.32571  1.0000
  C   C1116     1.0  0.73814  0.42899  0.12113  1.0000
  C   C1117     1.0  0.73791  0.41385  0.03866  1.0000
  C   C1118     1.0  0.73998  0.44247  0.13238  1.0000
  H   H1911     1.0  0.50775  0.03256  0.32038  1.0000
  S   S314      1.0  0.49099  0.04627  0.26689  1.0000
  H   H1912     1.0  0.53716  0.25482  0.99319  1.0000
  Fe  Fe157     1.0  0.66749  0.00780  0.43138  1.0000
  S   S315      1.0  0.69750  0.00462  0.41942  1.0000
  S   S316      1.0  0.64355  0.00924  0.41412  1.0000
  Fe  Fe158     1.0  0.70001  0.00474  0.62776  1.0000
  S   S317      1.0  0.70723  0.00612  0.46232  1.0000
  C   C1119     1.0  0.71166  0.04304  0.37750  1.0000
  Fe  Fe159     1.0  0.69994  0.02634  0.43736  1.0000
  S   S318      1.0  0.71530  0.05076  0.42527  1.0000
  C   C1120     1.0  0.65822  0.01251  0.35725  1.0000
  H   H1913     1.0  0.69767  0.09275  0.60427  1.0000
  S   S319      1.0  0.66958  0.03104  0.44807  1.0000
  C   C1121     1.0  0.72585  0.08934  0.59038  1.0000
  Fe  Fe160     1.0  0.68334  0.03513  0.59966  1.0000
  S   S320      1.0  0.71114  0.02930  0.60981  1.0000
  S   S321      1.0  0.68591  0.04569  0.56832  1.0000
  Fe  Fe161     1.0  0.66303  0.02663  0.64034  1.0000
  C   C1122     1.0  0.71368  0.07293  0.47397  1.0000
  H   H1914     1.0  0.49034  0.02056  0.33496  1.0000
  Fe  Fe162     1.0  0.69805  0.04527  0.63331  1.0000
  S   S322      1.0  0.70920  0.06847  0.64344  1.0000
  H   H1915     1.0  0.72997  0.08392  0.60445  1.0000
  C   C1123     1.0  0.64110  0.01753  0.35029  1.0000
  S   S323      1.0  0.67075  0.05308  0.62225  1.0000
  S   S324      1.0  0.67283  0.00940  0.61648  1.0000
  H   H1916     1.0  0.67083  0.01139  0.34752  1.0000
  H   H1917     1.0  0.71954  0.08368  0.47957  1.0000
  H   H1918     1.0  0.70902  0.03609  0.39204  1.0000
  H   H1919     1.0  0.70120  0.09834  0.36085  1.0000
  H   H1920     1.0  0.64144  0.05940  0.39680  1.0000
  H   H1921     1.0  0.71480  0.04359  0.47414  1.0000
  C   C1124     1.0  0.67180  0.05075  0.39486  1.0000
  C   C1125     1.0  0.67493  0.01616  0.55430  1.0000
  C   C1126     1.0  0.68171  0.03348  0.55034  1.0000
  C   C1127     1.0  0.68490  0.04168  0.53156  1.0000
  C   C1128     1.0  0.68093  0.03289  0.51693  1.0000
  H   H1922     1.0  0.71342  0.05037  0.49677  1.0000
  H   H1923     1.0  0.69902  0.09552  0.57952  1.0000
  H   H1924     1.0  0.68998  0.05515  0.52838  1.0000
  H   H1925     1.0  0.68275  0.03965  0.50264  1.0000
  H   H1926     1.0  0.68138  0.09701  0.34957  1.0000
  C   C1129     1.0  0.68351  0.07811  0.37592  1.0000
  H   H1927     1.0  0.67246  0.00531  0.38180  1.0000
  C   C1130     1.0  0.69434  0.04579  0.36743  1.0000
  H   H1928     1.0  0.71723  0.05639  0.37740  1.0000
  H   H1929     1.0  0.69004  0.03169  0.36777  1.0000
  C   C1131     1.0  0.70526  0.08711  0.59152  1.0000
  C   C1132     1.0  0.65921  0.00920  0.37670  1.0000
  C   C1133     1.0  0.64309  0.01135  0.38948  1.0000
  H   H1930     1.0  0.70270  0.07231  0.59305  1.0000
  C   C1134     1.0  0.73577  0.08955  0.55615  1.0000
  H   H1931     1.0  0.73206  0.10499  0.55600  1.0000
  C   C1135     1.0  0.67077  0.00747  0.53969  1.0000
  S   S325      1.0  0.68970  0.01994  0.65260  1.0000
  C   C1136     1.0  0.73803  0.05947  0.57824  1.0000
  C   C1137     1.0  0.49413  0.03471  0.32920  1.0000
  S   S326      1.0  0.66662  0.00518  0.50326  1.0000
  C   C1138     1.0  0.62492  0.01873  0.36308  1.0000
  H   H1932     1.0  0.61165  0.02265  0.35801  1.0000
  C   C1139     1.0  0.72083  0.08234  0.54732  1.0000
  H   H1933     1.0  0.69839  0.07551  0.47742  1.0000
  C   C1140     1.0  0.67361  0.01585  0.52095  1.0000
  H   H1934     1.0  0.69913  0.05013  0.35248  1.0000
  H   H1935     1.0  0.49581  0.07563  0.33597  1.0000
  C   C1141     1.0  0.62594  0.01571  0.38252  1.0000
  H   H1936     1.0  0.71670  0.07483  0.45845  1.0000
  H   H1937     1.0  0.68224  0.05103  0.40431  1.0000
  H   H1938     1.0  0.61335  0.01725  0.39224  1.0000
  H   H1939     1.0  0.69280  0.07755  0.38676  1.0000
  C   C1142     1.0  0.69223  0.08865  0.35752  1.0000
  H   H1940     1.0  0.72276  0.03364  0.37016  1.0000
  C   C1143     1.0  0.72056  0.05271  0.48220  1.0000
  H   H1941     1.0  0.71944  0.01745  0.49862  1.0000
  H   H1942     1.0  0.67116  0.08773  0.38088  1.0000
  H   H1943     1.0  0.65392  0.07506  0.40584  1.0000
  N   N82       1.0  0.67820  0.05907  0.37506  1.0000
  H   H1944     1.0  0.67250  0.00969  0.56865  1.0000
  H   H1945     1.0  0.65419  0.04871  0.36839  1.0000
  C   C1144     1.0  0.66231  0.06071  0.36375  1.0000
  H   H1946     1.0  0.65232  0.07347  0.36619  1.0000
  H   H1947     1.0  0.67027  0.03568  0.39546  1.0000
  Fe  Fe163     1.0  0.67674  0.00872  0.47187  1.0000
  C   C1145     1.0  0.65326  0.06029  0.40423  1.0000
  H   H1948     1.0  0.72437  0.05633  0.57596  1.0000
  H   H1949     1.0  0.71484  0.09386  0.53729  1.0000
  H   H1950     1.0  0.72627  0.10474  0.58858  1.0000
  H   H1951     1.0  0.70911  0.07756  0.55727  1.0000
  C   C1146     1.0  0.73940  0.04527  0.41950  1.0000
  H   H1952     1.0  0.65004  0.05274  0.41850  1.0000
  H   H1953     1.0  0.65399  0.06388  0.33598  1.0000
  H   H1954     1.0  0.67389  0.04719  0.33868  1.0000
  H   H1955     1.0  0.70157  0.07947  0.34842  1.0000
  C   C1147     1.0  0.66706  0.06107  0.34237  1.0000
  H   H1956     1.0  0.73905  0.04717  0.51166  1.0000
  C   C1148     1.0  0.73285  0.07042  0.64206  1.0000
  H   H1957     1.0  0.72721  0.09369  0.65800  1.0000
  H   H1958     1.0  0.49613  0.04209  0.34078  1.0000
  C   C1149     1.0  0.73780  0.08471  0.65038  1.0000
  H   H1959     1.0  0.73406  0.08014  0.50518  1.0000
  C   C1150     1.0  0.73464  0.01453  0.49858  1.0000
  H   H1960     1.0  0.72711  0.07094  0.53893  1.0000
  H   H1961     1.0  0.67567  0.07207  0.33574  1.0000
  H   H1962     1.0  0.73824  0.01644  0.51231  1.0000
  H   H1963     1.0  0.73861  0.99944  0.49701  1.0000
  H   H1964     1.0  0.73940  0.05351  0.59301  1.0000
  N   N83       1.0  0.73918  0.08025  0.57550  1.0000
  S   S327      1.0  0.63563  0.02308  0.65933  1.0000
  Fe  Fe164     1.0  0.57227  0.01384  0.79549  1.0000
  S   S328      1.0  0.57170  0.02515  0.76515  1.0000
  H   H1965     1.0  0.64598  0.11158  0.86080  1.0000
  Fe  Fe165     1.0  0.58120  0.05025  0.80645  1.0000
  S   S329      1.0  0.58146  0.06412  0.77655  1.0000
  S   S330      1.0  0.58470  0.07092  0.82622  1.0000
  Fe  Fe166     1.0  0.55603  0.05084  0.77640  1.0000
  S   S331      1.0  0.53086  0.06784  0.76542  1.0000
  Fe  Fe167     1.0  0.59723  0.03730  0.76757  1.0000
  S   S332      1.0  0.62247  0.03756  0.74501  1.0000
  S   S333      1.0  0.55454  0.03878  0.80656  1.0000
  S   S334      1.0  0.59920  0.02413  0.79753  1.0000
  S   S335      1.0  0.68803  0.31248  0.94218  1.0000
  C   C1151     1.0  0.50828  0.08896  0.91074  1.0000
  Fe  Fe168     1.0  0.57435  0.09802  0.93043  1.0000
  S   S336      1.0  0.57177  0.12826  0.91802  1.0000
  S   S337      1.0  0.57284  0.07347  0.91461  1.0000
  Fe  Fe169     1.0  0.57736  0.10781  0.97000  1.0000
  S   S338      1.0  0.57485  0.13876  0.96024  1.0000
  H   H1966     1.0  0.50092  0.09692  0.83159  1.0000
  Fe  Fe170     1.0  0.55280  0.13358  0.94433  1.0000
  S   S339      1.0  0.52551  0.15215  0.94588  1.0000
  Fe  Fe171     1.0  0.59404  0.13069  0.93497  1.0000
  S   S340      1.0  0.61778  0.14564  0.92019  1.0000
  S   S341      1.0  0.55367  0.10323  0.95580  1.0000
  S   S342      1.0  0.59834  0.09982  0.94566  1.0000
  Fe  Fe172     1.0  0.58673  0.28810  0.94448  1.0000
  S   S343      1.0  0.60250  0.25999  0.95229  1.0000
  S   S344      1.0  0.60100  0.31433  0.94232  1.0000
  Fe  Fe173     1.0  0.55108  0.27127  0.94122  1.0000
  S   S345      1.0  0.56515  0.24200  0.94872  1.0000
  S   S346      1.0  0.52209  0.26738  0.93630  1.0000
  Fe  Fe174     1.0  0.57619  0.25381  0.97055  1.0000
  H   H1967     1.0  0.62283  0.29779  0.88301  1.0000
  Fe  Fe175     1.0  0.58981  0.25089  0.92973  1.0000
  S   S347      1.0  0.60703  0.23454  0.90801  1.0000
  S   S348      1.0  0.56087  0.28262  0.96449  1.0000
  S   S349      1.0  0.57546  0.27945  0.92036  1.0000
  H   H1968     1.0  0.55704  0.05222  0.70658  1.0000
  H   H1969     1.0  0.58733  0.29728  0.98876  1.0000
  H   H1970     1.0  0.61675  0.99826  0.74357  1.0000
  C   C1152     1.0  0.49921  0.27937  0.93894  1.0000
  C   C1153     1.0  0.73960  0.41173  0.95675  1.0000
  H   H1971     1.0  0.53086  0.08023  0.81882  1.0000
  N   N84       1.0  0.50769  0.07642  0.92922  1.0000
  H   H1972     1.0  0.50624  0.30525  0.94500  1.0000
  C   C1154     1.0  0.49517  0.29777  0.94319  1.0000
  H   H1973     1.0  0.51249  0.04940  0.91889  1.0000
  C   C1155     1.0  0.61433  0.17034  0.91761  1.0000
  C   C1156     1.0  0.62422  0.18015  0.90229  1.0000
  C   C1157     1.0  0.62180  0.19980  0.89959  1.0000
  C   C1158     1.0  0.60973  0.20986  0.91236  1.0000
  C   C1159     1.0  0.60001  0.20012  0.92793  1.0000
  C   C1160     1.0  0.60223  0.18034  0.93050  1.0000
  H   H1974     1.0  0.63367  0.17253  0.89237  1.0000
  H   H1975     1.0  0.62936  0.20723  0.88756  1.0000
  H   H1976     1.0  0.59084  0.20778  0.93799  1.0000
  H   H1977     1.0  0.59485  0.17284  0.94258  1.0000
  C   C1161     1.0  0.51269  0.15002  0.92816  1.0000
  C   C1162     1.0  0.50554  0.02375  0.75962  1.0000
  C   C1163     1.0  0.55910  0.09422  0.70385  1.0000
  H   H1978     1.0  0.66770  0.25649  0.88171  1.0000
  C   C1164     1.0  0.51040  0.13919  0.89886  1.0000
  C   C1165     1.0  0.52092  0.14104  0.91277  1.0000
  H   H1979     1.0  0.54912  0.20674  0.88594  1.0000
  C   C1166     1.0  0.51801  0.08058  0.81247  1.0000
  C   C1167     1.0  0.58567  0.06635  0.68280  1.0000
  H   H1980     1.0  0.53530  0.13533  0.91159  1.0000
  C   C1168     1.0  0.49402  0.15756  0.92940  1.0000
  H   H1981     1.0  0.63914  0.99618  0.71541  1.0000
  H   H1982     1.0  0.61139  0.07316  0.91594  1.0000
  H   H1983     1.0  0.64145  0.08515  0.91018  1.0000
  H   H1984     1.0  0.56562  0.23406  0.88343  1.0000
  C   C1169     1.0  0.66341  0.31427  0.94454  1.0000
  C   C1170     1.0  0.65230  0.33076  0.93844  1.0000
  C   C1171     1.0  0.63314  0.33070  0.93831  1.0000
  C   C1172     1.0  0.62484  0.31421  0.94427  1.0000
  C   C1173     1.0  0.63578  0.29800  0.95126  1.0000
  C   C1174     1.0  0.65492  0.29801  0.95126  1.0000
  H   H1985     1.0  0.65857  0.34338  0.93317  1.0000
  H   H1986     1.0  0.62483  0.34340  0.93304  1.0000
  H   H1987     1.0  0.62957  0.28536  0.95649  1.0000
  H   H1988     1.0  0.66328  0.28522  0.95622  1.0000
  H   H1989     1.0  0.51759  0.09278  0.80127  1.0000
  S   S350      1.0  0.70693  0.34916  0.96664  1.0000
  C   C1175     1.0  0.57955  0.07128  0.85087  1.0000
  C   C1176     1.0  0.57903  0.05487  0.86365  1.0000
  C   C1177     1.0  0.57671  0.05582  0.88309  1.0000
  C   C1178     1.0  0.57471  0.07315  0.89002  1.0000
  C   C1179     1.0  0.57442  0.08960  0.87728  1.0000
  C   C1180     1.0  0.57713  0.08864  0.85785  1.0000
  H   H1990     1.0  0.58095  0.04141  0.85855  1.0000
  H   H1991     1.0  0.57678  0.04300  0.89280  1.0000
  H   H1992     1.0  0.57230  0.10304  0.88241  1.0000
  H   H1993     1.0  0.57739  0.10144  0.84813  1.0000
  C   C1181     1.0  0.62526  0.03420  0.72103  1.0000
  C   C1182     1.0  0.64210  0.03728  0.70988  1.0000
  C   C1183     1.0  0.61163  0.02791  0.71300  1.0000
  H   H1994     1.0  0.65279  0.04208  0.71591  1.0000
  H   H1995     1.0  0.59869  0.02518  0.72143  1.0000
  H   H1996     1.0  0.56384  0.10554  0.69285  1.0000
  H   H1997     1.0  0.69993  0.28453  0.90008  1.0000
  H   H1998     1.0  0.58478  0.10944  0.71463  1.0000
  H   H1999     1.0  0.65844  0.03661  0.68266  1.0000
  C   C1184     1.0  0.51428  0.05400  0.76224  1.0000
  C   C1185     1.0  0.51869  0.03457  0.76279  1.0000
  H   H2000     1.0  0.59734  0.12071  0.87101  1.0000
  H   H2001     1.0  0.53228  0.02786  0.76541  1.0000
  H   H2002     1.0  0.59593  0.09046  0.68907  1.0000
  C   C1186     1.0  0.50750  0.29153  0.98863  1.0000
  H   H2003     1.0  0.62118  0.09636  0.85664  1.0000
  H   H2004     1.0  0.65173  0.07551  0.85230  1.0000
  H   H2005     1.0  0.60342  0.13599  0.88583  1.0000
  H   H2006     1.0  0.65298  0.30456  0.88834  1.0000
  H   H2007     1.0  0.53464  0.07619  0.89638  1.0000
  H   H2008     1.0  0.55375  0.04269  0.73062  1.0000
  H   H2009     1.0  0.68089  0.26020  0.90682  1.0000
  C   C1187     1.0  0.65107  0.24269  0.91978  1.0000
  C   C1188     1.0  0.64538  0.03413  0.69099  1.0000
  H   H2010     1.0  0.54091  0.06443  0.72312  1.0000
  C   C1189     1.0  0.52807  0.06479  0.95563  1.0000
  H   H2011     1.0  0.54046  0.09422  0.73076  1.0000
  H   H2012     1.0  0.55233  0.17030  0.90828  1.0000
  C   C1190     1.0  0.60866  0.12395  0.87792  1.0000
  H   H2013     1.0  0.60258  0.06898  0.70310  1.0000
  H   H2014     1.0  0.51936  0.06763  0.80598  1.0000
  H   H2015     1.0  0.59762  0.32712  0.97706  1.0000
  H   H2016     1.0  0.57135  0.21863  0.90369  1.0000
  H   H2017     1.0  0.50804  0.22798  0.95182  1.0000
  C   C1191     1.0  0.55983  0.22790  0.89760  1.0000
  H   H2018     1.0  0.58341  0.05196  0.68919  1.0000
  H   H2019     1.0  0.60363  0.09935  0.89699  1.0000
  C   C1192     1.0  0.61494  0.02468  0.69410  1.0000
  H   H2020     1.0  0.57004  0.18586  0.90164  1.0000
  H   H2021     1.0  0.65108  0.99547  0.74396  1.0000
  C   C1193     1.0  0.60111  0.08793  0.73103  1.0000
  H   H2022     1.0  0.72885  0.41357  0.90503  1.0000
  H   H2023     1.0  0.68736  0.28738  0.88046  1.0000
  H   H2024     1.0  0.52159  0.05174  0.95982  1.0000
  H   H2025     1.0  0.52184  0.07526  0.96513  1.0000
  C   C1194     1.0  0.61582  0.10683  0.89149  1.0000
  H   H2026     1.0  0.55509  0.23973  0.90589  1.0000
  C   C1195     1.0  0.63880  0.07005  0.85921  1.0000
  C   C1196     1.0  0.64304  0.26356  0.91612  1.0000
  H   H2027     1.0  0.61202  0.07908  0.87360  1.0000
  H   H2028     1.0  0.72427  0.46540  0.94717  1.0000
  C   C1197     1.0  0.54383  0.10367  0.71764  1.0000
  H   H2029     1.0  0.67179  0.27716  0.92204  1.0000
  N   N85       1.0  0.63161  0.09362  0.88326  1.0000
  H   H2030     1.0  0.70354  0.44284  0.94282  1.0000
  N   N86       1.0  0.65419  0.27550  0.90114  1.0000
  H   H2031     1.0  0.49329  0.10726  0.96174  1.0000
  H   H2032     1.0  0.68116  0.30284  0.89848  1.0000
  C   C1198     1.0  0.71687  0.43767  0.94743  1.0000
  C   C1199     1.0  0.52004  0.08047  0.89397  1.0000
  H   H2033     1.0  0.64202  0.05750  0.86944  1.0000
  S   S351      1.0  0.71872  0.35739  0.92147  1.0000
  H   H2034     1.0  0.53379  0.08566  0.93190  1.0000
  C   C1200     1.0  0.52684  0.07278  0.93496  1.0000
  C   C1201     1.0  0.65334  0.11732  0.88670  1.0000
  H   H2035     1.0  0.66058  0.09337  0.87193  1.0000
  C   C1202     1.0  0.72242  0.41826  0.95071  1.0000
  H   H2036     1.0  0.63238  0.06533  0.84819  1.0000
  C   C1203     1.0  0.63768  0.07867  0.89865  1.0000
  H   H2037     1.0  0.61944  0.12903  0.86689  1.0000
  H   H2038     1.0  0.62986  0.05467  0.91830  1.0000
  C   C1204     1.0  0.67308  0.27449  0.90721  1.0000
  C   C1205     1.0  0.63184  0.02776  0.68296  1.0000
  C   C1206     1.0  0.62498  0.30010  0.89714  1.0000
  H   H2039     1.0  0.63866  0.26741  0.86140  1.0000
  H   H2040     1.0  0.54290  0.06128  0.95764  1.0000
  H   H2041     1.0  0.50920  0.00881  0.75956  1.0000
  H   H2042     1.0  0.65409  0.23599  0.90681  1.0000
  H   H2043     1.0  0.62044  0.31525  0.89805  1.0000
  H   H2044     1.0  0.53098  0.10786  0.71100  1.0000
  H   H2045     1.0  0.65049  0.06969  0.89358  1.0000
  C   C1207     1.0  0.62498  0.08526  0.86823  1.0000
  H   H2046     1.0  0.55230  0.08549  0.69644  1.0000
  C   C1208     1.0  0.63951  0.26219  0.87641  1.0000
  H   H2047     1.0  0.51870  0.28822  0.97721  1.0000
  H   H2048     1.0  0.49922  0.21325  0.93882  1.0000
  Fe  Fe176     1.0  0.71933  0.37189  0.94649  1.0000
  H   H2049     1.0  0.54794  0.11662  0.72121  1.0000
  H   H2050     1.0  0.61577  0.29251  0.90818  1.0000
  H   H2051     1.0  0.66151  0.27968  0.87103  1.0000
  H   H2052     1.0  0.60090  0.07348  0.73836  1.0000
  H   H2053     1.0  0.53597  0.06268  0.92648  1.0000
  H   H2054     1.0  0.51673  0.13195  0.88712  1.0000
  H   H2055     1.0  0.62600  0.26696  0.88413  1.0000
  C   C1209     1.0  0.50450  0.20847  0.89956  1.0000
  H   H2056     1.0  0.64111  0.24663  0.87752  1.0000
  H   H2057     1.0  0.56574  0.32441  0.97480  1.0000
  H   H2058     1.0  0.51813  0.20399  0.95224  1.0000
  H   H2059     1.0  0.57039  0.34787  0.96797  1.0000
  H   H2060     1.0  0.62874  0.26378  0.91320  1.0000
  H   H2061     1.0  0.66362  0.24077  0.92688  1.0000
  N   N87       1.0  0.53461  0.20776  0.91402  1.0000
  C   C1210     1.0  0.54843  0.19439  0.92446  1.0000
  C   C1211     1.0  0.52598  0.22261  0.92619  1.0000
  C   C1212     1.0  0.54382  0.21710  0.89587  1.0000
  C   C1213     1.0  0.52026  0.19692  0.90974  1.0000
  C   C1214     1.0  0.56057  0.17952  0.91338  1.0000
  C   C1215     1.0  0.62338  0.06551  0.90797  1.0000
  H   H2062     1.0  0.51403  0.10197  0.91176  1.0000
  H   H2063     1.0  0.50049  0.04910  0.94178  1.0000
  H   H2064     1.0  0.55793  0.20208  0.92998  1.0000
  H   H2065     1.0  0.54130  0.18655  0.93709  1.0000
  H   H2066     1.0  0.51892  0.23505  0.91795  1.0000
  H   H2067     1.0  0.53683  0.22827  0.93186  1.0000
  C   C1216     1.0  0.65660  0.26869  0.88227  1.0000
  H   H2068     1.0  0.51428  0.06843  0.89047  1.0000
  H   H2069     1.0  0.52668  0.18613  0.90062  1.0000
  H   H2070     1.0  0.51407  0.18856  0.92256  1.0000
  Fe  Fe177     1.0  0.70865  0.33344  0.94213  1.0000
  C   C1217     1.0  0.64802  0.10364  0.87478  1.0000
  H   H2071     1.0  0.56940  0.17017  0.92291  1.0000
  H   H2072     1.0  0.53360  0.22743  0.88865  1.0000
  H   H2073     1.0  0.64067  0.23499  0.92935  1.0000
  C   C1218     1.0  0.51209  0.21632  0.94319  1.0000
  H   H2074     1.0  0.60442  0.01964  0.68806  1.0000
  H   H2075     1.0  0.49390  0.29246  0.98364  1.0000
  H   H2076     1.0  0.61308  0.08822  0.71977  1.0000
  H   H2077     1.0  0.49172  0.07690  0.95696  1.0000
  H   H2078     1.0  0.52011  0.09133  0.88148  1.0000
  C   C1219     1.0  0.64551  0.29574  0.90002  1.0000
  H   H2079     1.0  0.66649  0.12249  0.87992  1.0000
  H   H2080     1.0  0.61856  0.05795  0.89793  1.0000
  H   H2081     1.0  0.65555  0.11056  0.90100  1.0000
  C   C1220     1.0  0.68592  0.28818  0.89566  1.0000
  H   H2082     1.0  0.61912  0.11183  0.90411  1.0000
  H   H2083     1.0  0.60352  0.09681  0.74130  1.0000
  H   H2084     1.0  0.64280  0.12985  0.88770  1.0000
  N   N88       1.0  0.57534  0.08304  0.71248  1.0000
  C   C1221     1.0  0.58271  0.09575  0.72336  1.0000
  C   C1222     1.0  0.59054  0.07766  0.69715  1.0000
  C   C1223     1.0  0.57013  0.06593  0.72566  1.0000
  H   H2085     1.0  0.64685  0.30155  0.91290  1.0000
  C   C1224     1.0  0.55468  0.05595  0.72091  1.0000
  H   H2086     1.0  0.57260  0.09916  0.73574  1.0000
  H   H2087     1.0  0.58246  0.05526  0.72724  1.0000
  H   H2088     1.0  0.56535  0.06947  0.74007  1.0000
  S   S352      1.0  0.70786  0.40253  0.94678  1.0000
  H   H2089     1.0  0.64135  0.26928  0.92963  1.0000
  H   H2090     1.0  0.53853  0.22594  0.97855  1.0000
  H   H2091     1.0  0.68503  0.29136  0.98359  1.0000
  H   H2092     1.0  0.49056  0.26177  0.98233  1.0000
  H   H2093     1.0  0.72991  0.39275  0.89466  1.0000
  C   C1225     1.0  0.50177  0.05777  0.92782  1.0000
  H   H2094     1.0  0.50875  0.30572  0.99177  1.0000
  S   S353      1.0  0.73800  0.31981  0.94457  1.0000
  H   H2095     1.0  0.59776  0.06468  0.67176  1.0000
  H   H2096     1.0  0.50508  0.04408  0.81814  1.0000
  H   H2097     1.0  0.63806  0.99583  0.76651  1.0000
  C   C1226     1.0  0.56894  0.33682  0.98024  1.0000
  H   H2098     1.0  0.51291  0.10705  0.94435  1.0000
  H   H2099     1.0  0.51499  0.22361  0.98734  1.0000
  H   H2100     1.0  0.52216  0.25707  0.97626  1.0000
  H   H2101     1.0  0.50438  0.07270  0.84027  1.0000
  C   C1227     1.0  0.50107  0.08265  0.82767  1.0000
  H   H2102     1.0  0.62612  0.31989  0.98501  1.0000
  C   C1228     1.0  0.72859  0.45045  0.94984  1.0000
  Fe  Fe178     1.0  0.73640  0.33662  0.96827  1.0000
  H   H2103     1.0  0.59162  0.34603  0.99039  1.0000
  H   H2104     1.0  0.61190  0.24307  0.98720  1.0000
  C   C1229     1.0  0.49651  0.06251  0.75896  1.0000
  H   H2105     1.0  0.57383  0.07343  0.67560  1.0000
  C   C1230     1.0  0.52738  0.22907  0.99011  1.0000
  H   H2106     1.0  0.69583  0.31086  0.98624  1.0000
  H   H2107     1.0  0.49055  0.11679  0.93788  1.0000
  H   H2108     1.0  0.49414  0.09397  0.90700  1.0000
  C   C1231     1.0  0.58738  0.33245  0.98843  1.0000
  C   C1232     1.0  0.73772  0.40027  0.90235  1.0000
  H   H2109     1.0  0.55726  0.34226  0.99024  1.0000
  C   C1233     1.0  0.52405  0.25044  0.99073  1.0000
  H   H2110     1.0  0.61898  0.29664  0.99077  1.0000
  H   H2111     1.0  0.49216  0.07943  0.79302  1.0000
  C   C1234     1.0  0.49805  0.10536  0.94688  1.0000
  H   H2112     1.0  0.49169  0.20171  0.90384  1.0000
  H   H2113     1.0  0.50817  0.20917  0.88414  1.0000
  C   C1235     1.0  0.49149  0.14574  0.90067  1.0000
  C   C1236     1.0  0.49397  0.08606  0.94334  1.0000
  H   H2114     1.0  0.50086  0.22294  0.90307  1.0000
  H   H2115     1.0  0.49310  0.07756  0.75828  1.0000
  H   H2116     1.0  0.73962  0.39134  0.91580  1.0000
  C   C1237     1.0  0.49038  0.04586  0.81596  1.0000
  H   H2117     1.0  0.58450  0.72257  0.06333  1.0000
  H   H2118     1.0  0.72586  0.49662  0.10487  1.0000
  H   H2119     1.0  0.57474  0.92390  0.24397  1.0000
  H   H2120     1.0  0.56641  0.57966  0.04817  1.0000
  Fe  Fe179     1.0  0.62448  0.59850  0.06947  1.0000
  S   S354      1.0  0.61550  0.58399  0.09803  1.0000
  S   S355      1.0  0.63271  0.58363  0.04416  1.0000
  Fe  Fe180     1.0  0.62250  0.63641  0.08286  1.0000
  S   S356      1.0  0.61425  0.62452  0.11267  1.0000
  S   S357      1.0  0.62159  0.66706  0.07078  1.0000
  Fe  Fe181     1.0  0.63616  0.59991  0.10667  1.0000
  S   S358      1.0  0.65653  0.58345  0.12593  1.0000
  Fe  Fe182     1.0  0.59454  0.60981  0.10093  1.0000
  S   S359      1.0  0.56388  0.61521  0.11260  1.0000
  S   S360      1.0  0.64584  0.61329  0.07773  1.0000
  S   S361      1.0  0.60209  0.62280  0.07149  1.0000
  C   C1238     1.0  0.57199  0.66768  0.10864  1.0000
  Fe  Fe183     1.0  0.56620  0.75978  0.13003  1.0000
  S   S362      1.0  0.56462  0.78985  0.11720  1.0000
  S   S363      1.0  0.54133  0.74596  0.14294  1.0000
  Fe  Fe184     1.0  0.60716  0.75209  0.11829  1.0000
  S   S364      1.0  0.60908  0.78157  0.10386  1.0000
  S   S365      1.0  0.62982  0.72788  0.12166  1.0000
  Fe  Fe185     1.0  0.59057  0.79012  0.12977  1.0000
  S   S366      1.0  0.59585  0.81510  0.14297  1.0000
  Fe  Fe186     1.0  0.58293  0.77870  0.09259  1.0000
  S   S367      1.0  0.57137  0.78797  0.06491  1.0000
  S   S368      1.0  0.59049  0.76079  0.14467  1.0000
  S   S369      1.0  0.58279  0.74858  0.10501  1.0000
  C   C1239     1.0  0.53471  0.61970  0.04469  1.0000
  C   C1240     1.0  0.56466  0.70046  0.11636  1.0000
  S   S370      1.0  0.64181  0.97243  0.26243  1.0000
  H   H2121     1.0  0.54401  0.79843  0.19847  1.0000
  Fe  Fe187     1.0  0.59053  0.84716  0.24556  1.0000
  S   S371      1.0  0.57678  0.87640  0.23790  1.0000
  S   S372      1.0  0.58769  0.82249  0.23032  1.0000
  Fe  Fe188     1.0  0.60414  0.85818  0.28048  1.0000
  S   S373      1.0  0.59087  0.88804  0.27524  1.0000
  Fe  Fe189     1.0  0.56671  0.87595  0.26850  1.0000
  S   S374      1.0  0.53772  0.89073  0.27477  1.0000
  Fe  Fe190     1.0  0.60189  0.88612  0.24521  1.0000
  S   S375      1.0  0.61550  0.90909  0.22647  1.0000
  S   S376      1.0  0.57881  0.84594  0.27624  1.0000
  S   S377      1.0  0.61677  0.85691  0.25039  1.0000
  C   C1241     1.0  0.50459  0.83711  0.22624  1.0000
  H   H2122     1.0  0.56962  0.65632  0.08338  1.0000
  C   C1242     1.0  0.50340  0.88400  0.26950  1.0000
  C   C1243     1.0  0.52017  0.87647  0.27623  1.0000
  C   C1244     1.0  0.52282  0.85762  0.28394  1.0000
  H   H2123     1.0  0.56886  0.93917  0.22320  1.0000
  H   H2124     1.0  0.51764  0.58986  0.05234  1.0000
  C   C1245     1.0  0.53658  0.80144  0.21234  1.0000
  H   H2125     1.0  0.53561  0.85179  0.28938  1.0000
  H   H2126     1.0  0.57903  0.94803  0.23975  1.0000
  C   C1246     1.0  0.63196  0.95694  0.25178  1.0000
  C   C1247     1.0  0.61804  0.94677  0.26172  1.0000
  C   C1248     1.0  0.61281  0.93199  0.25412  1.0000
  C   C1249     1.0  0.62094  0.92789  0.23630  1.0000
  C   C1250     1.0  0.63429  0.93858  0.22618  1.0000
  C   C1251     1.0  0.64007  0.95275  0.23405  1.0000
  H   H2127     1.0  0.61196  0.94974  0.27558  1.0000
  H   H2128     1.0  0.60264  0.92372  0.26204  1.0000
  H   H2129     1.0  0.64066  0.93549  0.21243  1.0000
  H   H2130     1.0  0.65098  0.96041  0.22641  1.0000
  C   C1252     1.0  0.67771  0.93214  0.27052  1.0000
  H   H2131     1.0  0.72333  0.50991  0.13051  1.0000
  H   H2132     1.0  0.63288  0.89047  0.26275  1.0000
  H   H2133     1.0  0.51819  0.87153  0.21819  1.0000
  C   C1253     1.0  0.59288  0.81716  0.16732  1.0000
  C   C1254     1.0  0.58694  0.80284  0.18099  1.0000
  C   C1255     1.0  0.58552  0.80473  0.20015  1.0000
  C   C1256     1.0  0.58972  0.82104  0.20593  1.0000
  C   C1257     1.0  0.59537  0.83548  0.19226  1.0000
  C   C1258     1.0  0.59703  0.83348  0.17309  1.0000
  H   H2134     1.0  0.58355  0.79026  0.17682  1.0000
  H   H2135     1.0  0.58113  0.79347  0.21059  1.0000
  H   H2136     1.0  0.59865  0.84810  0.19645  1.0000
  H   H2137     1.0  0.60164  0.84467  0.16268  1.0000
  H   H2138     1.0  0.50419  0.73712  0.14497  1.0000
  C   C1259     1.0  0.60774  0.78554  0.01690  1.0000
  C   C1260     1.0  0.60053  0.78463  0.03602  1.0000
  C   C1261     1.0  0.58139  0.78729  0.04134  1.0000
  C   C1262     1.0  0.56959  0.79048  0.02745  1.0000
  H   H2139     1.0  0.63574  0.88807  0.29401  1.0000
  H   H2140     1.0  0.52326  0.65740  0.13830  1.0000
  H   H2141     1.0  0.60977  0.78228  0.04656  1.0000
  H   H2142     1.0  0.55476  0.79270  0.03143  1.0000
  C   C1263     1.0  0.50418  0.73654  0.00331  1.0000
  C   C1264     1.0  0.52593  0.74951  0.12626  1.0000
  H   H2143     1.0  0.54466  0.76271  0.10434  1.0000
  H   H2144     1.0  0.56527  0.75308  0.03606  1.0000
  C   C1265     1.0  0.62455  0.68352  0.08513  1.0000
  C   C1266     1.0  0.61982  0.70263  0.07912  1.0000
  C   C1267     1.0  0.62136  0.71619  0.09033  1.0000
  C   C1268     1.0  0.62813  0.71079  0.10749  1.0000
  C   C1269     1.0  0.63342  0.69169  0.11332  1.0000
  C   C1270     1.0  0.63144  0.67804  0.10224  1.0000
  H   H2145     1.0  0.61511  0.70702  0.06568  1.0000
  H   H2146     1.0  0.61777  0.73090  0.08546  1.0000
  H   H2147     1.0  0.63880  0.68743  0.12653  1.0000
  H   H2148     1.0  0.63536  0.66331  0.10688  1.0000
  H   H2149     1.0  0.57111  0.65954  0.14609  1.0000
  H   H2150     1.0  0.59762  0.61461  0.01632  1.0000
  C   C1271     1.0  0.52671  0.61729  0.10993  1.0000
  C   C1272     1.0  0.54462  0.60844  0.10438  1.0000
  C   C1273     1.0  0.54658  0.59406  0.09321  1.0000
  H   H2151     1.0  0.52098  0.96705  0.26223  1.0000
  H   H2152     1.0  0.52497  0.62829  0.11870  1.0000
  H   H2153     1.0  0.56021  0.58699  0.08895  1.0000
  C   C1274     1.0  0.58851  0.69525  0.04103  1.0000
  C   C1275     1.0  0.61429  0.57530  0.01763  1.0000
  C   C1276     1.0  0.61292  0.57914  0.03598  1.0000
  C   C1277     1.0  0.59569  0.58048  0.04713  1.0000
  C   C1278     1.0  0.68771  0.53861  0.03479  1.0000
  H   H2154     1.0  0.59456  0.58337  0.06140  1.0000
  C   C1279     1.0  0.72009  0.57113  0.11209  1.0000
  C   C1280     1.0  0.71078  0.56252  0.12858  1.0000
  C   C1281     1.0  0.69136  0.56643  0.13257  1.0000
  C   C1282     1.0  0.68097  0.57878  0.12005  1.0000
  C   C1283     1.0  0.69029  0.58720  0.10347  1.0000
  C   C1284     1.0  0.70975  0.58357  0.09965  1.0000
  H   H2155     1.0  0.71857  0.55322  0.13846  1.0000
  H   H2156     1.0  0.68431  0.55998  0.14551  1.0000
  H   H2157     1.0  0.68256  0.59684  0.09378  1.0000
  H   H2158     1.0  0.71681  0.59049  0.08697  1.0000
  C   C1285     1.0  0.49345  0.61963  0.04060  1.0000
  S   S378      1.0  0.61140  0.99247  0.30491  1.0000
  H   H2159     1.0  0.51118  0.74929  0.00101  1.0000
  N   N89       1.0  0.58039  0.72895  0.02379  1.0000
  C   C1286     1.0  0.61280  0.72514  0.00440  1.0000
  C   C1287     1.0  0.60024  0.73272  0.02124  1.0000
  C   C1288     1.0  0.56952  0.73784  0.04024  1.0000
  C   C1289     1.0  0.57863  0.70830  0.02586  1.0000
  N   N90       1.0  0.50943  0.60970  0.02876  1.0000
  H   H2160     1.0  0.64662  0.89396  0.32314  1.0000
  H   H2161     1.0  0.54460  0.82163  0.26367  1.0000
  C   C1290     1.0  0.57225  0.73831  0.00639  1.0000
  C   C1291     1.0  0.63396  0.61753  0.99753  1.0000
  H   H2162     1.0  0.60715  0.72700  0.03375  1.0000
  H   H2163     1.0  0.60079  0.74811  0.01962  1.0000
  H   H2164     1.0  0.52133  0.93124  0.29118  1.0000
  H   H2165     1.0  0.50254  0.56420  0.05029  1.0000
  H   H2166     1.0  0.56385  0.70606  0.02929  1.0000
  H   H2167     1.0  0.58296  0.70247  0.01237  1.0000
  H   H2168     1.0  0.51070  0.63610  0.99471  1.0000
  H   H2169     1.0  0.67990  0.86506  0.28011  1.0000
  H   H2170     1.0  0.69780  0.52697  0.02975  1.0000
  H   H2171     1.0  0.63462  0.66929  0.01926  1.0000
  H   H2172     1.0  0.72218  0.53081  0.10537  1.0000
  H   H2173     1.0  0.49777  0.64810  0.02465  1.0000
  C   C1292     1.0  0.59845  0.57345  0.01010  1.0000
  H   H2174     1.0  0.49729  0.61857  0.10914  1.0000
  C   C1293     1.0  0.49954  0.62705  0.99732  1.0000
  C   C1294     1.0  0.50124  0.75587  0.09960  1.0000
  H   H2175     1.0  0.53151  0.83038  0.20031  1.0000
  H   H2176     1.0  0.67285  0.90019  0.25601  1.0000
  H   H2177     1.0  0.51875  0.80288  0.24541  1.0000
  H   H2178     1.0  0.50294  0.73197  0.03339  1.0000
  C   C1295     1.0  0.59589  0.78865  0.00301  1.0000
  C   C1296     1.0  0.54173  0.81042  0.25616  1.0000
  C   C1297     1.0  0.71783  0.53376  0.07669  1.0000
  H   H2179     1.0  0.53859  0.85988  0.20506  1.0000
  C   C1298     1.0  0.53122  0.75810  0.10813  1.0000
  C   C1299     1.0  0.57677  0.79095  0.00841  1.0000
  N   N91       1.0  0.56256  0.68010  0.12309  1.0000
  C   C1300     1.0  0.53792  0.65892  0.13890  1.0000
  H   H2180     1.0  0.49470  0.61519  0.05567  1.0000
  H   H2181     1.0  0.54450  0.79263  0.22298  1.0000
  C   C1301     1.0  0.57926  0.73699  0.05765  1.0000
  H   H2182     1.0  0.58898  0.88197  0.04011  1.0000
  H   H2183     1.0  0.50449  0.84758  0.21345  1.0000
  C   C1302     1.0  0.59656  0.62893  0.02007  1.0000
  H   H2184     1.0  0.62293  0.90282  0.32152  1.0000
  N   N92       1.0  0.63888  0.76448  0.17333  1.0000
  C   C1303     1.0  0.62917  0.76949  0.19206  1.0000
  C   C1304     1.0  0.63231  0.74659  0.17042  1.0000
  C   C1305     1.0  0.63267  0.78004  0.15856  1.0000
  C   C1306     1.0  0.65952  0.76262  0.17350  1.0000
  C   C1307     1.0  0.63303  0.78802  0.19775  1.0000
  C   C1308     1.0  0.63705  0.72928  0.18477  1.0000
  C   C1309     1.0  0.64090  0.77815  0.13816  1.0000
  C   C1310     1.0  0.67199  0.75091  0.15918  1.0000
  H   H2185     1.0  0.61388  0.77029  0.19265  1.0000
  H   H2186     1.0  0.63309  0.75843  0.20359  1.0000
  H   H2187     1.0  0.63750  0.74250  0.15638  1.0000
  H   H2188     1.0  0.61699  0.74865  0.17082  1.0000
  H   H2189     1.0  0.61736  0.78168  0.15921  1.0000
  H   H2190     1.0  0.63610  0.79375  0.16098  1.0000
  H   H2191     1.0  0.66416  0.77677  0.17134  1.0000
  H   H2192     1.0  0.66304  0.75604  0.18755  1.0000
  H   H2193     1.0  0.64799  0.78863  0.19744  1.0000
  H   H2194     1.0  0.62674  0.80055  0.18913  1.0000
  H   H2195     1.0  0.62641  0.78911  0.21236  1.0000
  H   H2196     1.0  0.62811  0.73014  0.19837  1.0000
  H   H2197     1.0  0.63429  0.71656  0.17948  1.0000
  H   H2198     1.0  0.65177  0.72711  0.18700  1.0000
  H   H2199     1.0  0.63456  0.79031  0.12904  1.0000
  H   H2200     1.0  0.63776  0.76539  0.13336  1.0000
  H   H2201     1.0  0.65597  0.77896  0.13578  1.0000
  H   H2202     1.0  0.68391  0.75844  0.15273  1.0000
  H   H2203     1.0  0.66533  0.74812  0.14750  1.0000
  H   H2204     1.0  0.67809  0.73733  0.16637  1.0000
  H   H2205     1.0  0.58468  0.67326  0.10091  1.0000
  H   H2206     1.0  0.58913  0.63917  0.01000  1.0000
  C   C1311     1.0  0.55737  0.93773  0.28015  1.0000
  H   H2207     1.0  0.53809  0.61121  0.01728  1.0000
  N   N93       1.0  0.65831  0.90480  0.28348  1.0000
  H   H2208     1.0  0.72449  0.54682  0.07325  1.0000
  H   H2209     1.0  0.57235  0.93454  0.27512  1.0000
  C   C1312     1.0  0.53589  0.82254  0.21359  1.0000
  C   C1313     1.0  0.53077  0.58822  0.08823  1.0000
  H   H2210     1.0  0.65188  0.91569  0.25559  1.0000
  H   H2211     1.0  0.62171  0.83765  0.06551  1.0000
  H   H2212     1.0  0.54163  0.94579  0.30671  1.0000
  H   H2213     1.0  0.58774  0.62880  0.03384  1.0000
  H   H2214     1.0  0.55190  0.92408  0.28146  1.0000
  H   H2215     1.0  0.62200  0.62338  0.03240  1.0000
  H   H2216     1.0  0.54953  0.65526  0.10017  1.0000
  C   C1314     1.0  0.51629  0.94113  0.27935  1.0000
  C   C1315     1.0  0.61401  0.82593  0.06460  1.0000
  C   C1316     1.0  0.57177  0.67461  0.14061  1.0000
  H   H2217     1.0  0.51286  0.82138  0.25891  1.0000
  H   H2218     1.0  0.53249  0.57662  0.08018  1.0000
  C   C1317     1.0  0.66157  0.92468  0.28434  1.0000
  H   H2219     1.0  0.60062  0.66962  0.12715  1.0000
  H   H2220     1.0  0.63963  0.60705  0.00872  1.0000
  H   H2221     1.0  0.53550  0.68898  0.13757  1.0000
  H   H2222     1.0  0.49794  0.81680  0.20961  1.0000
  C   C1318     1.0  0.59244  0.67703  0.13849  1.0000
  H   H2223     1.0  0.59067  0.74582  0.05482  1.0000
  H   H2224     1.0  0.55637  0.73172  0.04504  1.0000
  N   N94       1.0  0.58204  0.84606  0.06373  1.0000
  C   C1319     1.0  0.56762  0.85243  0.05066  1.0000
  C   C1320     1.0  0.58962  0.86327  0.06702  1.0000
  C   C1321     1.0  0.57264  0.83657  0.08194  1.0000
  C   C1322     1.0  0.59685  0.83248  0.05455  1.0000
  C   C1323     1.0  0.55745  0.83689  0.04621  1.0000
  C   C1324     1.0  0.59903  0.87477  0.04957  1.0000
  C   C1325     1.0  0.57976  0.83869  0.10026  1.0000
  H   H2225     1.0  0.50124  0.89862  0.26365  1.0000
  H   H2226     1.0  0.55690  0.86335  0.05642  1.0000
  H   H2227     1.0  0.57382  0.85905  0.03683  1.0000
  H   H2228     1.0  0.60004  0.85962  0.07692  1.0000
  H   H2229     1.0  0.57833  0.87301  0.07380  1.0000
  H   H2230     1.0  0.55761  0.84198  0.08421  1.0000
  H   H2231     1.0  0.57307  0.82127  0.08153  1.0000
  H   H2232     1.0  0.59122  0.81952  0.05320  1.0000
  H   H2233     1.0  0.60168  0.83837  0.03994  1.0000
  H   H2234     1.0  0.54588  0.84345  0.03829  1.0000
  H   H2235     1.0  0.56674  0.82758  0.03710  1.0000
  H   H2236     1.0  0.55138  0.82829  0.05890  1.0000
  C   C1326     1.0  0.71194  0.49710  0.10061  1.0000
  H   H2237     1.0  0.60529  0.88600  0.05415  1.0000
  H   H2238     1.0  0.61043  0.86618  0.04174  1.0000
  H   H2239     1.0  0.59475  0.83411  0.10021  1.0000
  H   H2240     1.0  0.57251  0.82987  0.11206  1.0000
  H   H2241     1.0  0.57647  0.85332  0.10355  1.0000
  C   C1327     1.0  0.57977  0.57833  0.03967  1.0000
  H   H2242     1.0  0.70522  0.53020  0.99665  1.0000
  H   H2243     1.0  0.65431  0.64898  0.99458  1.0000
  N   N95       1.0  0.69967  0.51499  0.10459  1.0000
  C   C1328     1.0  0.68276  0.51665  0.09480  1.0000
  H   H2244     1.0  0.70555  0.55854  0.00620  1.0000
  C   C1329     1.0  0.71021  0.53145  0.09767  1.0000
  C   C1330     1.0  0.69351  0.51491  0.12528  1.0000
  C   C1331     1.0  0.67017  0.53571  0.09427  1.0000
  S   S379      1.0  0.49336  0.58891  0.08739  1.0000
  C   C1332     1.0  0.65842  0.90255  0.26321  1.0000
  H   H2245     1.0  0.64895  0.93468  0.28178  1.0000
  H   H2246     1.0  0.68666  0.51369  0.08010  1.0000
  H   H2247     1.0  0.67374  0.50588  0.10155  1.0000
  C   C1333     1.0  0.49301  0.73353  0.02297  1.0000
  H   H2248     1.0  0.49443  0.77052  0.01638  1.0000
  H   H2249     1.0  0.70154  0.54476  0.10065  1.0000
  C   C1334     1.0  0.63733  0.90469  0.31527  1.0000
  H   H2250     1.0  0.68569  0.52872  0.12814  1.0000
  H   H2251     1.0  0.68076  0.53339  0.04880  1.0000
  H   H2252     1.0  0.66558  0.53998  0.10838  1.0000
  H   H2253     1.0  0.67689  0.54709  0.08511  1.0000
  H   H2254     1.0  0.65747  0.53457  0.08828  1.0000
  H   H2255     1.0  0.65612  0.63043  0.01336  1.0000
  H   H2256     1.0  0.65841  0.66177  0.02162  1.0000
  H   H2257     1.0  0.49609  0.57296  0.02775  1.0000
  C   C1335     1.0  0.67373  0.89177  0.29180  1.0000
  H   H2258     1.0  0.49670  0.84453  0.23788  1.0000
  C   C1336     1.0  0.54943  0.94389  0.24830  1.0000
  H   H2259     1.0  0.54071  0.87391  0.22254  1.0000
  C   C1337     1.0  0.49830  0.57729  0.04108  1.0000
  C   C1338     1.0  0.64658  0.64274  0.00782  1.0000
  C   C1339     1.0  0.50448  0.60840  0.00973  1.0000
  C   C1340     1.0  0.52342  0.81602  0.24773  1.0000
  H   H2260     1.0  0.54703  0.74568  0.99340  1.0000
  C   C1341     1.0  0.51285  0.59700  0.09387  1.0000
  C   C1342     1.0  0.49231  0.85361  0.27745  1.0000
  H   H2261     1.0  0.67497  0.93381  0.25578  1.0000
  H   H2262     1.0  0.57706  0.65343  0.11545  1.0000
  C   C1343     1.0  0.52688  0.61881  0.02643  1.0000
  H   H2263     1.0  0.60263  0.69825  0.04152  1.0000
  H   H2264     1.0  0.54692  0.84276  0.23687  1.0000
  S   S380      1.0  0.62491  0.84826  0.30153  1.0000
  H   H2265     1.0  0.56442  0.68271  0.15198  1.0000
  H   H2266     1.0  0.66485  0.55872  0.02661  1.0000
  C   C1344     1.0  0.50881  0.84630  0.28478  1.0000
  H   H2267     1.0  0.59463  0.69202  0.13620  1.0000
  C   C1345     1.0  0.56916  0.93841  0.23847  1.0000
  H   H2268     1.0  0.72868  0.52208  0.07309  1.0000
  H   H2269     1.0  0.57945  0.70232  0.11182  1.0000
  C   C1346     1.0  0.63960  0.90213  0.29442  1.0000
  C   C1347     1.0  0.51901  0.76105  0.09475  1.0000
  C   C1348     1.0  0.53223  0.84678  0.23435  1.0000
  H   H2270     1.0  0.56115  0.70490  0.08658  1.0000
  C   C1349     1.0  0.67290  0.54573  0.02167  1.0000
  C   C1350     1.0  0.64481  0.65678  0.02207  1.0000
  H   H2271     1.0  0.66281  0.53551  0.02450  1.0000
  H   H2272     1.0  0.56913  0.74300  0.06877  1.0000
  H   H2273     1.0  0.67911  0.94641  0.27337  1.0000
  N   N96       1.0  0.52411  0.83018  0.23029  1.0000
  H   H2274     1.0  0.51552  0.93330  0.26766  1.0000
  C   C1351     1.0  0.56040  0.66420  0.09387  1.0000
  C   C1352     1.0  0.58114  0.57529  0.02099  1.0000
  C   C1353     1.0  0.54228  0.67820  0.12847  1.0000
  H   H2275     1.0  0.52473  0.85191  0.24735  1.0000
  N   N97       1.0  0.54813  0.95217  0.26624  1.0000
  C   C1354     1.0  0.64804  0.88708  0.25903  1.0000
  C   C1355     1.0  0.51385  0.58988  0.03820  1.0000
  H   H2276     1.0  0.62862  0.91208  0.28789  1.0000
  H   H2277     1.0  0.62256  0.78379  0.01281  1.0000
  H   H2278     1.0  0.52395  0.62451  0.05589  1.0000
  H   H2279     1.0  0.53474  0.68098  0.11609  1.0000
  H   H2280     1.0  0.55549  0.72521  0.09798  1.0000
  H   H2281     1.0  0.58021  0.69531  0.05504  1.0000
  H   H2282     1.0  0.69114  0.92333  0.27205  1.0000
  H   H2283     1.0  0.65039  0.88643  0.24371  1.0000
  H   H2284     1.0  0.57887  0.73146  0.99395  1.0000
  H   H2285     1.0  0.65885  0.86673  0.29626  1.0000
  H   H2286     1.0  0.54749  0.72399  0.00847  1.0000
  H   H2287     1.0  0.51600  0.59997  0.00165  1.0000
  C   C1356     1.0  0.53230  0.86385  0.21894  1.0000
  C   C1357     1.0  0.55611  0.94322  0.29995  1.0000
  H   H2288     1.0  0.51092  0.83174  0.29085  1.0000
  H   H2289     1.0  0.66436  0.92635  0.29851  1.0000
  H   H2290     1.0  0.64125  0.64983  0.03657  1.0000
  H   H2291     1.0  0.62745  0.57462  0.00894  1.0000
  H   H2292     1.0  0.68728  0.89413  0.28344  1.0000
  H   H2293     1.0  0.61036  0.81826  0.07865  1.0000
  H   H2294     1.0  0.60557  0.67014  0.00768  1.0000
  H   H2295     1.0  0.59956  0.57102  0.99568  1.0000
  H   H2296     1.0  0.61265  0.70993  0.00455  1.0000
  H   H2297     1.0  0.52636  0.96570  0.28516  1.0000
  H   H2298     1.0  0.55987  0.70907  0.12803  1.0000
  C   C1358     1.0  0.50832  0.74381  0.13098  1.0000
  H   H2299     1.0  0.59807  0.67075  0.15165  1.0000
  H   H2300     1.0  0.55057  0.82485  0.21298  1.0000
  H   H2301     1.0  0.51514  0.72444  0.00166  1.0000
  H   H2302     1.0  0.64248  0.54069  0.00494  1.0000
  C   C1359     1.0  0.51095  0.61177  0.10455  1.0000
  H   H2303     1.0  0.57497  0.75321  0.00314  1.0000
  C   C1360     1.0  0.55123  0.73838  0.00693  1.0000
  H   H2304     1.0  0.62728  0.72725  0.00507  1.0000
  N   N98       1.0  0.62892  0.63658  0.00410  1.0000
  S   S381      1.0  0.56127  0.57638  0.01031  1.0000
  H   H2305     1.0  0.52315  0.76790  0.08082  1.0000
  H   H2306     1.0  0.52278  0.79686  0.21364  1.0000
  H   H2307     1.0  0.55391  0.67717  0.08625  1.0000
  H   H2308     1.0  0.62362  0.81589  0.05648  1.0000
  H   H2309     1.0  0.63928  0.91897  0.31738  1.0000
  H   H2310     1.0  0.65413  0.84020  0.32452  1.0000
  H   H2311     1.0  0.53943  0.70887  0.10219  1.0000
  H   H2312     1.0  0.56323  0.93144  0.30888  1.0000
  H   H2313     1.0  0.54301  0.74620  0.01799  1.0000
  H   H2314     1.0  0.65268  0.87294  0.26594  1.0000
  H   H2315     1.0  0.54523  0.62957  0.04183  1.0000
  C   C1361     1.0  0.69310  0.56419  0.99918  1.0000
  C   C1362     1.0  0.49591  0.74712  0.11767  1.0000
  H   H2316     1.0  0.53964  0.65768  0.15391  1.0000
  H   H2317     1.0  0.61261  0.64709  0.02887  1.0000
  C   C1363     1.0  0.61562  0.63424  0.02195  1.0000
  C   C1364     1.0  0.55444  0.70997  0.09982  1.0000
  C   C1365     1.0  0.55765  0.96956  0.26339  1.0000
  H   H2318     1.0  0.54674  0.64710  0.13270  1.0000
  H   H2319     1.0  0.57298  0.96606  0.26200  1.0000
  H   H2320     1.0  0.56319  0.95567  0.29986  1.0000
  H   H2321     1.0  0.70677  0.53517  0.06772  1.0000
  H   H2322     1.0  0.52523  0.63328  0.01906  1.0000
  H   H2323     1.0  0.62162  0.61209  0.99461  1.0000
  H   H2324     1.0  0.52615  0.58238  0.03035  1.0000
  H   H2325     1.0  0.54196  0.60585  0.04993  1.0000
  H   H2326     1.0  0.54298  0.93068  0.25091  1.0000
  H   H2327     1.0  0.54118  0.95308  0.23806  1.0000
  H   H2328     1.0  0.55362  0.80723  0.24539  1.0000
  H   H2329     1.0  0.50186  0.94696  0.28425  1.0000
  H   H2330     1.0  0.54064  0.79770  0.26663  1.0000
  H   H2331     1.0  0.68351  0.50461  0.13040  1.0000
  C   C1366     1.0  0.52797  0.95750  0.27320  1.0000
  H   H2332     1.0  0.59063  0.68065  0.03760  1.0000
  H   H2333     1.0  0.68007  0.86307  0.30508  1.0000
  H   H2334     1.0  0.69523  0.55016  0.03671  1.0000
  C   C1367     1.0  0.49128  0.64134  0.03810  1.0000
  H   H2335     1.0  0.68627  0.57647  0.00625  1.0000
  H   H2336     1.0  0.67527  0.89490  0.30590  1.0000
  H   H2337     1.0  0.49490  0.76228  0.04057  1.0000
  H   H2338     1.0  0.65792  0.97449  0.31107  1.0000
  C   C1368     1.0  0.67298  0.87056  0.29315  1.0000
  C   C1369     1.0  0.70909  0.51055  0.13798  1.0000
  H   H2339     1.0  0.56751  0.79348  0.99786  1.0000
  H   H2340     1.0  0.70786  0.49705  0.14724  1.0000
  H   H2341     1.0  0.70755  0.52149  0.14739  1.0000
  C   C1370     1.0  0.61270  0.66984  0.99328  1.0000
  C   C1371     1.0  0.49294  0.82227  0.22309  1.0000
  H   H2342     1.0  0.66844  0.51434  0.00616  1.0000
  H   H2343     1.0  0.55417  0.97701  0.27594  1.0000
  C   C1372     1.0  0.62673  0.85529  0.32347  1.0000
  N   N99       1.0  0.68017  0.54950  0.00117  1.0000
  H   H2344     1.0  0.49195  0.81074  0.23486  1.0000
  H   H2345     1.0  0.49644  0.64628  0.04979  1.0000
  H   H2346     1.0  0.55787  0.97893  0.23311  1.0000
  C   C1373     1.0  0.55288  0.98428  0.24667  1.0000
  H   H2347     1.0  0.49221  0.60088  0.01098  1.0000
  H   H2348     1.0  0.69174  0.50458  0.01019  1.0000
  H   H2349     1.0  0.71465  0.49631  0.08530  1.0000
  H   H2350     1.0  0.52054  0.99117  0.30466  1.0000
  H   H2351     1.0  0.65760  0.57118  0.99545  1.0000
  C   C1374     1.0  0.68314  0.51342  0.00010  1.0000
  C   C1375     1.0  0.69073  0.53237  0.99331  1.0000
  H   H2352     1.0  0.53787  0.98932  0.24765  1.0000
  N   N100      1.0  0.64993  0.95166  0.35715  1.0000
  Fe  Fe191     1.0  0.67289  0.87231  0.56727  1.0000
  S   S382      1.0  0.70014  0.88239  0.56669  1.0000
  S   S383      1.0  0.67242  0.85729  0.54218  1.0000
  Fe  Fe192     1.0  0.66018  0.88103  0.60810  1.0000
  S   S384      1.0  0.68726  0.89092  0.61002  1.0000
  Fe  Fe193     1.0  0.68461  0.90588  0.58111  1.0000
  S   S385      1.0  0.69125  0.93500  0.56977  1.0000
  Fe  Fe194     1.0  0.70051  0.86634  0.59527  1.0000
  S   S386      1.0  0.72738  0.84722  0.59680  1.0000
  S   S387      1.0  0.65693  0.89750  0.57948  1.0000
  S   S388      1.0  0.67373  0.85495  0.59562  1.0000
  Fe  Fe195     1.0  0.66599  0.87798  0.43443  1.0000
  S   S389      1.0  0.69659  0.87420  0.42600  1.0000
  S   S390      1.0  0.65243  0.89051  0.46074  1.0000
  Fe  Fe196     1.0  0.65825  0.86900  0.39610  1.0000
  S   S391      1.0  0.68862  0.86429  0.38511  1.0000
  S   S392      1.0  0.63304  0.87265  0.38034  1.0000
  Fe  Fe197     1.0  0.69205  0.84905  0.41401  1.0000
  S   S393      1.0  0.71204  0.82362  0.42238  1.0000
  Fe  Fe198     1.0  0.69061  0.88975  0.39819  1.0000
  S   S394      1.0  0.70595  0.91343  0.38357  1.0000
  S   S395      1.0  0.66140  0.85156  0.42423  1.0000
  S   S396      1.0  0.66031  0.89560  0.40737  1.0000
  H   H2353     1.0  0.64072  0.97300  0.65332  1.0000
  H   H2354     1.0  0.65297  0.94169  0.52447  1.0000
  H   H2355     1.0  0.62446  0.95335  0.64365  1.0000
  C   C1376     1.0  0.71565  0.94626  0.42862  1.0000
  C   C1377     1.0  0.72319  0.95123  0.41004  1.0000
  C   C1378     1.0  0.71980  0.94151  0.39596  1.0000
  C   C1379     1.0  0.70875  0.92700  0.40053  1.0000
  C   C1380     1.0  0.70039  0.92290  0.41892  1.0000
  C   C1381     1.0  0.70410  0.93225  0.43300  1.0000
  H   H2356     1.0  0.63692  0.97973  0.36129  1.0000
  H   H2357     1.0  0.72598  0.94499  0.38166  1.0000
  H   H2358     1.0  0.69098  0.91255  0.42238  1.0000
  H   H2359     1.0  0.69794  0.92865  0.44724  1.0000
  C   C1382     1.0  0.69973  0.94609  0.58578  1.0000
  C   C1383     1.0  0.69974  0.96554  0.58255  1.0000
  C   C1384     1.0  0.70524  0.97481  0.59586  1.0000
  H   H2360     1.0  0.65473  0.95823  0.50289  1.0000
  H   H2361     1.0  0.62351  0.84239  0.45480  1.0000
  C   C1385     1.0  0.70622  0.93581  0.60185  1.0000
  H   H2362     1.0  0.69495  0.97355  0.57003  1.0000
  H   H2363     1.0  0.66623  0.98060  0.33080  1.0000
  H   H2364     1.0  0.71459  0.90203  0.51863  1.0000
  H   H2365     1.0  0.70705  0.92076  0.60406  1.0000
  C   C1386     1.0  0.66739  0.86733  0.51955  1.0000
  C   C1387     1.0  0.65609  0.88444  0.51647  1.0000
  C   C1388     1.0  0.65161  0.89136  0.49837  1.0000
  C   C1389     1.0  0.65877  0.88151  0.48314  1.0000
  C   C1390     1.0  0.67036  0.86458  0.48617  1.0000
  C   C1391     1.0  0.67444  0.85743  0.50434  1.0000
  H   H2366     1.0  0.65033  0.89202  0.52812  1.0000
  H   H2367     1.0  0.64242  0.90432  0.49617  1.0000
  H   H2368     1.0  0.67585  0.85680  0.47459  1.0000
  H   H2369     1.0  0.68295  0.84405  0.50662  1.0000
  H   H2370     1.0  0.63045  0.96231  0.37968  1.0000
  C   C1392     1.0  0.63116  0.86585  0.35834  1.0000
  C   C1393     1.0  0.61468  0.87178  0.35035  1.0000
  H   H2371     1.0  0.60497  0.97610  0.36168  1.0000
  H   H2372     1.0  0.66432  0.97764  0.59745  1.0000
  C   C1394     1.0  0.65011  0.97967  0.59384  1.0000
  C   C1395     1.0  0.64543  0.85462  0.34877  1.0000
  H   H2373     1.0  0.60349  0.88039  0.35764  1.0000
  H   H2374     1.0  0.67964  0.94731  0.35809  1.0000
  H   H2375     1.0  0.59490  0.87180  0.39806  1.0000
  H   H2376     1.0  0.65812  0.84979  0.35477  1.0000
  H   H2377     1.0  0.58497  0.90231  0.46239  1.0000
  H   H2378     1.0  0.62887  0.92600  0.63108  1.0000
  N   N101      1.0  0.73443  0.82943  0.53893  1.0000
  H   H2379     1.0  0.64684  0.85055  0.65204  1.0000
  H   H2380     1.0  0.65445  0.93910  0.65127  1.0000
  H   H2381     1.0  0.72561  0.85273  0.50384  1.0000
  H   H2382     1.0  0.59248  0.84778  0.40503  1.0000
  C   C1396     1.0  0.64129  0.96139  0.59707  1.0000
  H   H2383     1.0  0.61664  0.96706  0.34114  1.0000
  H   H2384     1.0  0.61470  0.88416  0.45833  1.0000
  H   H2385     1.0  0.63008  0.87323  0.44124  1.0000
  C   C1397     1.0  0.64313  0.84922  0.33158  1.0000
  H   H2386     1.0  0.65527  0.96062  0.39342  1.0000
  H   H2387     1.0  0.71144  0.97123  0.51179  1.0000
  H   H2388     1.0  0.65692  0.90239  0.36484  1.0000
  H   H2389     1.0  0.68010  0.91693  0.47837  1.0000
  H   H2390     1.0  0.58512  0.87942  0.47585  1.0000
  H   H2391     1.0  0.61826  0.85688  0.41884  1.0000
  H   H2392     1.0  0.70341  0.83992  0.56499  1.0000
  S   S397      1.0  0.63570  0.88713  0.63079  1.0000
  C   C1398     1.0  0.60609  0.91199  0.42942  1.0000
  S   S398      1.0  0.71672  0.97625  0.62946  1.0000
  H   H2393     1.0  0.69685  0.82002  0.55646  1.0000
  H   H2394     1.0  0.71855  0.83379  0.49518  1.0000
  H   H2395     1.0  0.70790  0.83383  0.52846  1.0000
  C   C1399     1.0  0.60371  0.85997  0.42560  1.0000
  C   C1400     1.0  0.64051  0.97636  0.63798  1.0000
  H   H2396     1.0  0.67409  0.91703  0.36518  1.0000
  H   H2397     1.0  0.63373  0.92901  0.35779  1.0000
  H   H2398     1.0  0.65104  0.98522  0.57872  1.0000
  C   C1401     1.0  0.61532  0.96462  0.35659  1.0000
  H   H2399     1.0  0.70204  0.90197  0.49907  1.0000
  H   H2400     1.0  0.61116  0.92230  0.41759  1.0000
  H   H2401     1.0  0.66611  0.93670  0.39144  1.0000
  H   H2402     1.0  0.68238  0.96808  0.51005  1.0000
  H   H2403     1.0  0.70378  0.93258  0.48140  1.0000
  C   C1402     1.0  0.71140  0.94085  0.51162  1.0000
  C   C1403     1.0  0.64579  0.93189  0.36387  1.0000
  H   H2404     1.0  0.72190  0.81255  0.52359  1.0000
  H   H2405     1.0  0.70348  0.81778  0.57927  1.0000
  H   H2406     1.0  0.72901  0.87435  0.62172  1.0000
  H   H2407     1.0  0.71954  0.85722  0.54058  1.0000
  C   C1404     1.0  0.60571  0.89342  0.42189  1.0000
  H   H2408     1.0  0.61750  0.97083  0.62558  1.0000
  H   H2409     1.0  0.59202  0.91815  0.43487  1.0000
  H   H2410     1.0  0.66659  0.93350  0.60971  1.0000
  H   H2411     1.0  0.73189  0.96233  0.40661  1.0000
  C   C1405     1.0  0.71188  0.94505  0.61510  1.0000
  H   H2412     1.0  0.66970  0.93970  0.47055  1.0000
  H   H2413     1.0  0.57269  0.88800  0.43657  1.0000
  H   H2414     1.0  0.60183  0.94889  0.61863  1.0000
  C   C1406     1.0  0.66687  0.95547  0.36449  1.0000
  N   N102      1.0  0.69190  0.93859  0.50917  1.0000
  H   H2415     1.0  0.57380  0.85971  0.65223  1.0000
  H   H2416     1.0  0.62720  0.96579  0.59304  1.0000
  H   H2417     1.0  0.71658  0.93709  0.62767  1.0000
  C   C1407     1.0  0.67488  0.93085  0.48298  1.0000
  S   S399      1.0  0.72049  0.95749  0.44644  1.0000
  C   C1408     1.0  0.73513  0.82835  0.41944  1.0000
  H   H2418     1.0  0.71556  0.96414  0.48854  1.0000
  C   C1409     1.0  0.73373  0.84971  0.54163  1.0000
  H   H2419     1.0  0.69505  0.88980  0.52165  1.0000
  H   H2420     1.0  0.68971  0.95456  0.48183  1.0000
  H   H2421     1.0  0.70491  0.98990  0.59342  1.0000
  H   H2422     1.0  0.60420  0.92496  0.61465  1.0000
  H   H2423     1.0  0.71318  0.93849  0.52676  1.0000
  H   H2424     1.0  0.73526  0.89424  0.40968  1.0000
  H   H2425     1.0  0.68810  0.92012  0.53530  1.0000
  H   H2426     1.0  0.66275  0.92953  0.49373  1.0000
  H   H2427     1.0  0.73848  0.94732  0.58443  1.0000
  C   C1410     1.0  0.61251  0.86666  0.33296  1.0000
  H   H2428     1.0  0.67347  0.91735  0.51942  1.0000
  H   H2429     1.0  0.63861  0.92393  0.60753  1.0000
  H   H2430     1.0  0.72843  0.80334  0.55613  1.0000
  H   H2431     1.0  0.60240  0.85112  0.46876  1.0000
  H   H2432     1.0  0.64163  0.92980  0.37929  1.0000
  H   H2433     1.0  0.72159  0.93017  0.50489  1.0000
  H   H2434     1.0  0.59659  0.84698  0.65179  1.0000
  H   H2435     1.0  0.59539  0.89668  0.41184  1.0000
  C   C1411     1.0  0.59094  0.86153  0.41035  1.0000
  H   H2436     1.0  0.56411  0.89195  0.46881  1.0000
  C   C1412     1.0  0.61080  0.93806  0.61108  1.0000
  H   H2437     1.0  0.59977  0.87134  0.32701  1.0000
  C   C1413     1.0  0.71800  0.95995  0.50332  1.0000
  C   C1414     1.0  0.72689  0.81864  0.55719  1.0000
  H   H2438     1.0  0.65086  0.96630  0.52504  1.0000
  H   H2439     1.0  0.68135  0.95425  0.53238  1.0000
  H   H2440     1.0  0.66905  0.97043  0.36047  1.0000
  C   C1415     1.0  0.69075  0.93970  0.48853  1.0000
  C   C1416     1.0  0.67919  0.95428  0.51758  1.0000
  C   C1417     1.0  0.66164  0.93139  0.63971  1.0000
  C   C1418     1.0  0.61643  0.85416  0.46239  1.0000
  H   H2441     1.0  0.57615  0.86504  0.41579  1.0000
  C   C1419     1.0  0.61606  0.87294  0.44930  1.0000
  H   H2442     1.0  0.61937  0.89024  0.41333  1.0000
  C   C1420     1.0  0.68768  0.92003  0.52011  1.0000
  H   H2443     1.0  0.61576  0.91072  0.43991  1.0000
  N   N103      1.0  0.60165  0.87668  0.43613  1.0000
  C   C1421     1.0  0.65831  0.95473  0.51735  1.0000
  C   C1422     1.0  0.65992  0.94284  0.62029  1.0000
  H   H2444     1.0  0.62462  0.85471  0.47386  1.0000
  C   C1423     1.0  0.58214  0.87955  0.44615  1.0000
  H   H2445     1.0  0.57650  0.86591  0.45031  1.0000
  H   H2446     1.0  0.60078  0.84708  0.43529  1.0000
  C   C1424     1.0  0.66662  0.95169  0.38591  1.0000
  C   C1425     1.0  0.57919  0.88889  0.46421  1.0000
  C   C1426     1.0  0.71102  0.96460  0.61228  1.0000
  C   C1427     1.0  0.70073  0.90264  0.51429  1.0000
  C   C1428     1.0  0.66152  0.91619  0.35897  1.0000
  C   C1429     1.0  0.62998  0.96247  0.63096  1.0000
  C   C1430     1.0  0.63364  0.96507  0.36420  1.0000
  H   H2447     1.0  0.66916  0.95379  0.61849  1.0000
  H   H2448     1.0  0.65490  0.97685  0.63138  1.0000
  H   H2449     1.0  0.67968  0.95535  0.38938  1.0000
  N   N104      1.0  0.64050  0.95064  0.61650  1.0000
  H   H2450     1.0  0.73314  0.95888  0.50355  1.0000
  C   C1431     1.0  0.63046  0.93395  0.61678  1.0000
  H   H2451     1.0  0.61114  0.94199  0.59574  1.0000
  H   H2452     1.0  0.64885  0.95227  0.58661  1.0000
  C   C1432     1.0  0.70647  0.82461  0.56463  1.0000
  H   H2453     1.0  0.73119  0.88591  0.43382  1.0000
  H   H2454     1.0  0.65652  0.91761  0.64091  1.0000
  H   H2455     1.0  0.73356  0.84500  0.39256  1.0000
  H   H2456     1.0  0.66502  0.91604  0.34368  1.0000
  H   H2457     1.0  0.73483  0.81999  0.56863  1.0000
  H   H2458     1.0  0.66668  0.94579  0.33109  1.0000
  C   C1433     1.0  0.72783  0.83723  0.50447  1.0000
  C   C1434     1.0  0.65348  0.95422  0.33605  1.0000
  H   H2459     1.0  0.67651  0.92832  0.64160  1.0000
  H   H2460     1.0  0.60953  0.95130  0.36182  1.0000
  C   C1435     1.0  0.72243  0.82763  0.52446  1.0000
  S   S400      1.0  0.67179  0.98580  0.45629  1.0000
  C   C1436     1.0  0.65494  0.97446  0.32647  1.0000
  Fe  Fe199     1.0  0.70192  0.98475  0.44551  1.0000
  H   H2461     1.0  0.64254  0.94894  0.33009  1.0000
  C   C1437     1.0  0.63192  0.87794  0.65492  1.0000
  H   H2462     1.0  0.64179  0.98377  0.32909  1.0000
  H   H2463     1.0  0.73417  0.95431  0.55184  1.0000
  H   H2464     1.0  0.73656  0.85061  0.55602  1.0000
  H   H2465     1.0  0.73453  0.91926  0.57146  1.0000
  H   H2466     1.0  0.64142  0.99065  0.60143  1.0000
  H   H2467     1.0  0.63317  0.99085  0.63559  1.0000
  H   H2468     1.0  0.66507  0.99432  0.54295  1.0000
  H   H2469     1.0  0.73357  0.99488  0.65522  1.0000
  Fe  Fe200     1.0  0.59469  0.89216  0.76889  1.0000
  S   S401      1.0  0.58346  0.89429  0.74161  1.0000
  S   S402      1.0  0.61053  0.91402  0.77550  1.0000
  Fe  Fe201     1.0  0.58355  0.85337  0.78348  1.0000
  S   S403      1.0  0.57181  0.85200  0.75699  1.0000
  S   S404      1.0  0.58367  0.82843  0.80673  1.0000
  Fe  Fe202     1.0  0.59679  0.86451  0.74101  1.0000
  S   S405      1.0  0.61326  0.85211  0.71551  1.0000
  Fe  Fe203     1.0  0.55946  0.88178  0.75942  1.0000
  S   S406      1.0  0.53011  0.89436  0.75570  1.0000
  S   S407      1.0  0.60971  0.86311  0.76732  1.0000
  S   S408      1.0  0.56952  0.88242  0.78689  1.0000
  C   C1438     1.0  0.49593  0.97657  0.79171  1.0000
  S   S409      1.0  0.69487  0.53136  0.93785  1.0000
  H   H2470     1.0  0.50625  0.76775  0.90467  1.0000
  Fe  Fe204     1.0  0.59708  0.60286  0.94990  1.0000
  S   S410      1.0  0.58996  0.61119  0.97874  1.0000
  S   S411      1.0  0.62871  0.59984  0.94145  1.0000
  Fe  Fe205     1.0  0.55529  0.60879  0.94493  1.0000
  S   S412      1.0  0.54646  0.61703  0.97347  1.0000
  S   S413      1.0  0.53120  0.61262  0.92781  1.0000
  Fe  Fe206     1.0  0.56981  0.63423  0.96714  1.0000
  S   S414      1.0  0.56401  0.66228  0.97788  1.0000
  Fe  Fe207     1.0  0.56740  0.59320  0.98232  1.0000
  H   H2471     1.0  0.52528  0.86400  0.70444  1.0000
  S   S415      1.0  0.57786  0.62767  0.93778  1.0000
  S   S416      1.0  0.57515  0.58323  0.95420  1.0000
  Fe  Fe208     1.0  0.57299  0.80183  0.91875  1.0000
  S   S417      1.0  0.55705  0.77737  0.92113  1.0000
  S   S418      1.0  0.56950  0.82686  0.89568  1.0000
  Fe  Fe209     1.0  0.58761  0.78782  0.95677  1.0000
  H   H2472     1.0  0.65435  0.53327  0.98290  1.0000
  Fe  Fe210     1.0  0.58219  0.75990  0.93142  1.0000
  S   S419      1.0  0.59223  0.73120  0.92279  1.0000
  Fe  Fe211     1.0  0.54917  0.78166  0.95122  1.0000
  S   S420      1.0  0.52089  0.77885  0.96682  1.0000
  S   S421      1.0  0.59911  0.78396  0.92683  1.0000
  S   S422      1.0  0.56283  0.80762  0.94850  1.0000
  H   H2473     1.0  0.58915  0.97365  0.75144  1.0000
  H   H2474     1.0  0.54561  0.86697  0.67177  1.0000
  C   C1439     1.0  0.49356  0.61336  0.92852  1.0000
  H   H2475     1.0  0.51466  0.81731  0.93591  1.0000
  H   H2476     1.0  0.59323  0.84242  0.68691  1.0000
  H   H2477     1.0  0.51607  0.93039  0.77338  1.0000
  C   C1440     1.0  0.50884  0.60753  0.93842  1.0000
  H   H2478     1.0  0.50484  0.85118  0.80977  1.0000
  C   C1441     1.0  0.49067  0.85875  0.73902  1.0000
  H   H2479     1.0  0.62581  0.94760  0.75241  1.0000
  H   H2480     1.0  0.53858  0.94694  0.75183  1.0000
  C   C1442     1.0  0.50604  0.59752  0.95635  1.0000
  H   H2481     1.0  0.60920  0.96683  0.71235  1.0000
  C   C1443     1.0  0.49231  0.95640  0.79057  1.0000
  H   H2482     1.0  0.51768  0.59275  0.96405  1.0000
  C   C1444     1.0  0.57213  0.68121  0.96256  1.0000
  C   C1445     1.0  0.58565  0.67830  0.94726  1.0000
  C   C1446     1.0  0.59188  0.69374  0.93522  1.0000
  C   C1447     1.0  0.58454  0.71210  0.93836  1.0000
  C   C1448     1.0  0.57076  0.71489  0.95349  1.0000
  C   C1449     1.0  0.56475  0.69951  0.96569  1.0000
  H   H2483     1.0  0.59147  0.66420  0.94479  1.0000
  H   H2484     1.0  0.60243  0.69148  0.92345  1.0000
  H   H2485     1.0  0.56436  0.72885  0.95554  1.0000
  H   H2486     1.0  0.55407  0.70182  0.97733  1.0000
  C   C1450     1.0  0.67678  0.55066  0.93928  1.0000
  C   C1451     1.0  0.68025  0.56926  0.93788  1.0000
  C   C1452     1.0  0.66539  0.58403  0.93868  1.0000
  C   C1453     1.0  0.64684  0.58048  0.94107  1.0000
  C   C1454     1.0  0.64338  0.56187  0.94265  1.0000
  C   C1455     1.0  0.65824  0.54714  0.94157  1.0000
  H   H2487     1.0  0.69438  0.57232  0.93577  1.0000
  H   H2488     1.0  0.66831  0.59836  0.93720  1.0000
  H   H2489     1.0  0.62926  0.55883  0.94431  1.0000
  H   H2490     1.0  0.65532  0.53286  0.94248  1.0000
  C   C1456     1.0  0.57915  0.82822  0.83143  1.0000
  C   C1457     1.0  0.58364  0.81141  0.84315  1.0000
  C   C1458     1.0  0.58062  0.81065  0.86282  1.0000
  C   C1459     1.0  0.57299  0.82672  0.87101  1.0000
  C   C1460     1.0  0.56818  0.84345  0.85930  1.0000
  C   C1461     1.0  0.57124  0.84423  0.83963  1.0000
  H   H2491     1.0  0.58971  0.79891  0.83697  1.0000
  H   H2492     1.0  0.58441  0.79766  0.87160  1.0000
  H   H2493     1.0  0.56217  0.85594  0.86550  1.0000
  H   H2494     1.0  0.56748  0.85719  0.83083  1.0000
  C   C1462     1.0  0.62139  0.86300  0.69275  1.0000
  C   C1463     1.0  0.63291  0.85195  0.68026  1.0000
  H   H2495     1.0  0.59201  0.86851  0.66121  1.0000
  C   C1464     1.0  0.52045  0.83339  0.79093  1.0000
  H   H2496     1.0  0.49778  0.97771  0.80630  1.0000
  C   C1465     1.0  0.61560  0.88180  0.68634  1.0000
  H   H2497     1.0  0.63748  0.83739  0.68502  1.0000
  C   C1466     1.0  0.52134  0.84093  0.89556  1.0000
  C   C1467     1.0  0.62433  0.98412  0.74756  1.0000
  H   H2498     1.0  0.60683  0.89053  0.69576  1.0000
  H   H2499     1.0  0.53523  0.74973  0.94329  1.0000
  H   H2500     1.0  0.60188  0.97540  0.79756  1.0000
  H   H2501     1.0  0.53459  0.85514  0.74966  1.0000
  C   C1468     1.0  0.63409  0.95260  0.73905  1.0000
  C   C1469     1.0  0.56712  0.95165  0.79216  1.0000
  C   C1470     1.0  0.57766  0.93572  0.78550  1.0000
  C   C1471     1.0  0.59697  0.93392  0.78353  1.0000
  C   C1472     1.0  0.60567  0.94818  0.78805  1.0000
  H   H2502     1.0  0.57084  0.92478  0.78207  1.0000
  H   H2503     1.0  0.62060  0.94671  0.78686  1.0000
  N   N105      1.0  0.53676  0.67731  0.91561  1.0000
  C   C1473     1.0  0.53827  0.67410  0.93632  1.0000
  C   C1474     1.0  0.55301  0.68712  0.90604  1.0000
  C   C1475     1.0  0.53781  0.65827  0.90929  1.0000
  C   C1476     1.0  0.51843  0.68891  0.91282  1.0000
  C   C1477     1.0  0.52379  0.66287  0.94891  1.0000
  C   C1478     1.0  0.55234  0.70765  0.90942  1.0000
  C   C1479     1.0  0.54405  0.65660  0.88841  1.0000
  C   C1480     1.0  0.51486  0.69590  0.89250  1.0000
  H   H2504     1.0  0.55211  0.66645  0.93887  1.0000
  H   H2505     1.0  0.53717  0.68756  0.94209  1.0000
  H   H2506     1.0  0.55473  0.68760  0.89064  1.0000
  H   H2507     1.0  0.56621  0.67916  0.91029  1.0000
  H   H2508     1.0  0.54770  0.64778  0.91681  1.0000
  H   H2509     1.0  0.52420  0.65284  0.91296  1.0000
  H   H2510     1.0  0.50686  0.68081  0.91908  1.0000
  H   H2511     1.0  0.51595  0.70121  0.92069  1.0000
  H   H2512     1.0  0.52698  0.66091  0.96354  1.0000
  H   H2513     1.0  0.50820  0.85020  0.89376  1.0000
  H   H2514     1.0  0.52421  0.64864  0.94505  1.0000
  C   C1481     1.0  0.64034  0.97672  0.69621  1.0000
  H   H2515     1.0  0.55091  0.70930  0.92439  1.0000
  H   H2516     1.0  0.56555  0.71284  0.90280  1.0000
  H   H2517     1.0  0.57877  0.83053  0.67681  1.0000
  H   H2518     1.0  0.53611  0.66699  0.87899  1.0000
  H   H2519     1.0  0.54196  0.64246  0.88576  1.0000
  C   C1482     1.0  0.64209  0.98730  0.75477  1.0000
  H   H2520     1.0  0.52743  0.69903  0.88287  1.0000
  H   H2521     1.0  0.63089  0.65204  0.97621  1.0000
  H   H2522     1.0  0.60517  0.85157  0.87543  1.0000
  C   C1483     1.0  0.50208  0.84533  0.79742  1.0000
  H   H2523     1.0  0.53990  0.88859  0.69974  1.0000
  H   H2524     1.0  0.62376  0.67909  0.99054  1.0000
  H   H2525     1.0  0.55218  0.95284  0.79408  1.0000
  H   H2526     1.0  0.52722  0.83933  0.70296  1.0000
  C   C1484     1.0  0.56749  0.87262  0.69397  1.0000
  Fe  Fe212     1.0  0.72532  0.52518  0.94315  1.0000
  C   C1485     1.0  0.49088  0.76415  0.96084  1.0000
  H   H2527     1.0  0.54942  0.87638  0.72066  1.0000
  N   N106      1.0  0.62696  0.97245  0.73166  1.0000
  H   H2528     1.0  0.51980  0.81522  0.88513  1.0000
  H   H2529     1.0  0.63792  0.55373  0.98316  1.0000
  C   C1486     1.0  0.62146  0.85008  0.81776  1.0000
  H   H2530     1.0  0.54110  0.71695  0.90284  1.0000
  H   H2531     1.0  0.63421  0.92373  0.73453  1.0000
  H   H2532     1.0  0.55909  0.65752  0.88466  1.0000
  H   H2533     1.0  0.52049  0.82852  0.77727  1.0000
  C   C1487     1.0  0.62061  0.88911  0.66748  1.0000
  C   C1488     1.0  0.49177  0.74213  0.93880  1.0000
  H   H2534     1.0  0.55766  0.81363  0.72461  1.0000
  H   H2535     1.0  0.56912  0.88168  0.68027  1.0000
  H   H2536     1.0  0.51698  0.85602  0.68581  1.0000
  H   H2537     1.0  0.61547  0.90344  0.66251  1.0000
  H   H2538     1.0  0.49257  0.90281  0.74824  1.0000
  H   H2539     1.0  0.55352  0.81746  0.70059  1.0000
  C   C1489     1.0  0.50872  0.85076  0.74180  1.0000
  C   C1490     1.0  0.58580  0.85581  0.66014  1.0000
  H   H2540     1.0  0.62170  0.84496  0.85637  1.0000
  H   H2541     1.0  0.52739  0.84481  0.90727  1.0000
  H   H2542     1.0  0.61500  0.84110  0.82984  1.0000
  C   C1491     1.0  0.64086  0.98063  0.71631  1.0000
  H   H2543     1.0  0.50555  0.70944  0.89217  1.0000
  H   H2544     1.0  0.49998  0.85759  0.78637  1.0000
  H   H2545     1.0  0.66374  0.88357  0.81959  1.0000
  H   H2546     1.0  0.68994  0.58177  0.97210  1.0000
  H   H2547     1.0  0.63669  0.84814  0.81732  1.0000
  C   C1492     1.0  0.50338  0.78296  0.89966  1.0000
  H   H2548     1.0  0.53181  0.84228  0.78887  1.0000
  H   H2549     1.0  0.51535  0.78830  0.92313  1.0000
  H   H2550     1.0  0.49310  0.97954  0.75700  1.0000
  H   H2551     1.0  0.64142  0.96164  0.69503  1.0000
  S   S423      1.0  0.72850  0.50573  0.96994  1.0000
  H   H2552     1.0  0.50850  0.98060  0.78265  1.0000
  C   C1493     1.0  0.60569  0.87347  0.85146  1.0000
  C   C1494     1.0  0.63830  0.85939  0.66153  1.0000
  H   H2553     1.0  0.60170  0.88473  0.86066  1.0000
  C   C1495     1.0  0.63578  0.93754  0.72591  1.0000
  H   H2554     1.0  0.49562  0.90998  0.78143  1.0000
  N   N107      1.0  0.50168  0.81505  0.91168  1.0000
  H   H2555     1.0  0.64786  0.88031  0.80460  1.0000
  H   H2556     1.0  0.68456  0.50548  0.98797  1.0000
  H   H2557     1.0  0.53127  0.84370  0.88272  1.0000
  H   H2558     1.0  0.57688  0.81313  0.70649  1.0000
  N   N108      1.0  0.56404  0.85322  0.69165  1.0000
  H   H2559     1.0  0.64953  0.93644  0.71721  1.0000
  C   C1496     1.0  0.56287  0.84136  0.71053  1.0000
  H   H2560     1.0  0.49555  0.73715  0.99205  1.0000
  H   H2561     1.0  0.66932  0.56146  0.97542  1.0000
  C   C1497     1.0  0.56266  0.82021  0.71032  1.0000
  C   C1498     1.0  0.52828  0.85335  0.69474  1.0000
  C   C1499     1.0  0.61547  0.85694  0.86384  1.0000
  H   H2562     1.0  0.65002  0.97399  0.76033  1.0000
  H   H2563     1.0  0.55046  0.84629  0.71997  1.0000
  H   H2564     1.0  0.57482  0.84261  0.71775  1.0000
  C   C1500     1.0  0.51054  0.94223  0.76334  1.0000
  C   C1501     1.0  0.55261  0.88392  0.70646  1.0000
  S   S424      1.0  0.57299  0.76249  0.96161  1.0000
  H   H2565     1.0  0.54844  0.84224  0.67368  1.0000
  H   H2566     1.0  0.64629  0.90238  0.81383  1.0000
  C   C1502     1.0  0.57582  0.96612  0.79625  1.0000
  H   H2567     1.0  0.49683  0.95975  0.73089  1.0000
  H   H2568     1.0  0.51897  0.73160  0.92635  1.0000
  C   C1503     1.0  0.50153  0.82266  0.92986  1.0000
  C   C1504     1.0  0.51894  0.81991  0.89902  1.0000
  H   H2569     1.0  0.66139  0.62109  0.98101  1.0000
  C   C1505     1.0  0.59513  0.96442  0.79408  1.0000
  H   H2570     1.0  0.50079  0.83821  0.92756  1.0000
  C   C1506     1.0  0.64906  0.88690  0.81703  1.0000
  C   C1507     1.0  0.49712  0.88826  0.74662  1.0000
  H   H2571     1.0  0.53152  0.81227  0.90486  1.0000
  H   H2572     1.0  0.49345  0.82034  0.77796  1.0000
  C   C1508     1.0  0.52088  0.86148  0.74717  1.0000
  H   H2573     1.0  0.65112  0.60166  0.97682  1.0000
  H   H2574     1.0  0.58026  0.96704  0.73244  1.0000
  H   H2575     1.0  0.50810  0.68565  0.88696  1.0000
  H   H2576     1.0  0.64237  0.62445  0.96711  1.0000
  C   C1509     1.0  0.63660  0.87925  0.83467  1.0000
  H   H2577     1.0  0.61867  0.84480  0.80511  1.0000
  H   H2578     1.0  0.64262  0.86448  0.83851  1.0000
  H   H2579     1.0  0.61801  0.87826  0.80353  1.0000
  H   H2580     1.0  0.59239  0.86933  0.84922  1.0000
  H   H2581     1.0  0.60914  0.73299  0.99090  1.0000
  C   C1510     1.0  0.51112  0.74025  0.93631  1.0000
  H   H2582     1.0  0.61595  0.90729  0.81460  1.0000
  H   H2583     1.0  0.62475  0.93964  0.71685  1.0000
  C   C1511     1.0  0.59296  0.96580  0.73923  1.0000
  C   C1512     1.0  0.51516  0.88033  0.74940  1.0000
  C   C1513     1.0  0.61289  0.87075  0.81738  1.0000
  H   H2584     1.0  0.63856  0.88678  0.84630  1.0000
  C   C1514     1.0  0.54707  0.85405  0.68210  1.0000
  H   H2585     1.0  0.49559  0.62095  0.91458  1.0000
  N   N109      1.0  0.61629  0.88074  0.83298  1.0000
  C   C1515     1.0  0.52031  0.75079  0.94567  1.0000
  H   H2586     1.0  0.64814  0.95190  0.74308  1.0000
  S   S425      1.0  0.60539  0.78989  0.97913  1.0000
  C   C1516     1.0  0.60838  0.97390  0.72491  1.0000
  C   C1517     1.0  0.60925  0.90130  0.82846  1.0000
  H   H2587     1.0  0.61282  0.90953  0.83881  1.0000
  H   H2588     1.0  0.59783  0.87089  0.81720  1.0000
  H   H2589     1.0  0.62631  0.86164  0.87040  1.0000
  H   H2590     1.0  0.55791  0.89692  0.70837  1.0000
  H   H2591     1.0  0.52416  0.82130  0.80151  1.0000
  H   H2592     1.0  0.58407  0.90074  0.81576  1.0000
  H   H2593     1.0  0.51317  0.83619  0.74009  1.0000
  H   H2594     1.0  0.59670  0.95067  0.74404  1.0000
  C   C1518     1.0  0.51011  0.76321  0.95748  1.0000
  C   C1519     1.0  0.58822  0.90610  0.82772  1.0000
  H   H2595     1.0  0.58470  0.92161  0.82545  1.0000
  H   H2596     1.0  0.57979  0.90094  0.84088  1.0000
  H   H2597     1.0  0.52933  0.95997  0.77061  1.0000
  C   C1520     1.0  0.64909  0.54537  0.99067  1.0000
  H   H2598     1.0  0.50963  0.67051  0.94900  1.0000
  H   H2599     1.0  0.58067  0.87178  0.69986  1.0000
  H   H2600     1.0  0.49766  0.80708  0.81014  1.0000
  H   H2601     1.0  0.52215  0.96725  0.74757  1.0000
  H   H2602     1.0  0.51448  0.78612  0.88807  1.0000
  C   C1521     1.0  0.50288  0.79400  0.91615  1.0000
  H   H2603     1.0  0.50948  0.93584  0.75067  1.0000
  C   C1522     1.0  0.64807  0.61646  0.97963  1.0000
  S   S426      1.0  0.56228  0.98566  0.80498  1.0000
  H   H2604     1.0  0.49745  0.62393  0.98341  1.0000
  H   H2605     1.0  0.61558  0.97776  0.75993  1.0000
  H   H2606     1.0  0.65227  0.98226  0.68693  1.0000
  C   C1523     1.0  0.52579  0.95511  0.75811  1.0000
  C   C1524     1.0  0.58074  0.84468  0.67957  1.0000
  H   H2607     1.0  0.70623  0.56057  0.97028  1.0000
  H   H2608     1.0  0.62774  0.98434  0.69057  1.0000
  H   H2609     1.0  0.49657  0.82235  0.82715  1.0000
  N   N110      1.0  0.49179  0.95113  0.77134  1.0000
  C   C1525     1.0  0.62047  0.64993  0.98882  1.0000
  H   H2610     1.0  0.69195  0.53458  0.97776  1.0000
  H   H2611     1.0  0.60955  0.64395  0.98349  1.0000
  C   C1526     1.0  0.66431  0.55779  0.99043  1.0000
  H   H2612     1.0  0.65524  0.97591  0.71956  1.0000
  H   H2613     1.0  0.50278  0.94658  0.79797  1.0000
  C   C1527     1.0  0.70063  0.57188  0.97898  1.0000
  H   H2614     1.0  0.71221  0.57992  0.97939  1.0000
  H   H2615     1.0  0.49321  0.83628  0.87478  1.0000
  H   H2616     1.0  0.60330  0.98885  0.72026  1.0000
  H   H2617     1.0  0.49088  0.78985  0.92625  1.0000
  H   H2618     1.0  0.60188  0.67583  0.98422  1.0000
  H   H2619     1.0  0.49020  0.81198  0.87616  1.0000
  H   H2620     1.0  0.95239  0.41478  0.25390  1.0000
  S   S427      1.0  0.77746  0.33452  0.09628  1.0000
  H   H2621     1.0  0.76252  0.47255  0.09949  1.0000
  S   S428      1.0  0.78428  0.37883  0.08783  1.0000
  H   H2622     1.0  0.85109  0.29993  0.11647  1.0000
  Fe  Fe213     1.0  0.77794  0.35720  0.07180  1.0000
  S   S429      1.0  0.79289  0.35444  0.04293  1.0000
  Fe  Fe214     1.0  0.78147  0.35692  0.11289  1.0000
  S   S430      1.0  0.80077  0.35186  0.13548  1.0000
  Fe  Fe215     1.0  0.93440  0.48965  0.20843  1.0000
  C   C1528     1.0  0.75980  0.41136  0.00883  1.0000
  S   S431      1.0  0.94580  0.32693  0.28983  1.0000
  Fe  Fe216     1.0  0.90464  0.36002  0.15567  1.0000
  S   S432      1.0  0.89909  0.38291  0.17408  1.0000
  S   S433      1.0  0.88608  0.36140  0.13270  1.0000
  Fe  Fe217     1.0  0.94265  0.34546  0.17003  1.0000
  S   S434      1.0  0.93921  0.36741  0.18909  1.0000
  S   S435      1.0  0.96920  0.32514  0.17115  1.0000
  Fe  Fe218     1.0  0.91005  0.36093  0.19635  1.0000
  S   S436      1.0  0.89575  0.35973  0.22614  1.0000
  Fe  Fe219     1.0  0.92879  0.38677  0.16507  1.0000
  S   S437      1.0  0.93996  0.41413  0.15617  1.0000
  S   S438      1.0  0.91373  0.33747  0.17871  1.0000
  S   S439      1.0  0.93418  0.36545  0.14526  1.0000
  C   C1529     1.0  0.93104  0.33430  0.27249  1.0000
  C   C1530     1.0  0.91232  0.34089  0.27700  1.0000
  C   C1531     1.0  0.90132  0.34786  0.26265  1.0000
  C   C1532     1.0  0.90905  0.34849  0.24377  1.0000
  C   C1533     1.0  0.92765  0.34143  0.23932  1.0000
  C   C1534     1.0  0.93858  0.33434  0.25363  1.0000
  H   H2623     1.0  0.90636  0.34078  0.29149  1.0000
  H   H2624     1.0  0.88691  0.35322  0.26617  1.0000
  H   H2625     1.0  0.93368  0.34157  0.22485  1.0000
  H   H2626     1.0  0.95300  0.32907  0.25005  1.0000
  C   C1535     1.0  0.93631  0.44541  0.20609  1.0000
  C   C1536     1.0  0.94931  0.44902  0.19041  1.0000
  C   C1537     1.0  0.95064  0.43918  0.17515  1.0000
  C   C1538     1.0  0.93952  0.42507  0.17593  1.0000
  C   C1539     1.0  0.92747  0.42044  0.19220  1.0000
  C   C1540     1.0  0.92566  0.43083  0.20721  1.0000
  C   C1541     1.0  0.92635  0.42804  0.26635  1.0000
  H   H2627     1.0  0.95995  0.44287  0.16263  1.0000
  H   H2628     1.0  0.91889  0.40946  0.19288  1.0000
  H   H2629     1.0  0.91553  0.42802  0.21931  1.0000
  H   H2630     1.0  0.75974  0.42666  0.00488  1.0000
  C   C1542     1.0  0.82431  0.35534  0.13453  1.0000
  C   C1543     1.0  0.83297  0.35023  0.15080  1.0000
  C   C1544     1.0  0.85172  0.35236  0.15065  1.0000
  C   C1545     1.0  0.86211  0.35946  0.13412  1.0000
  C   C1546     1.0  0.85335  0.36485  0.11791  1.0000
  C   C1547     1.0  0.83453  0.36301  0.11815  1.0000
  H   H2631     1.0  0.82520  0.34438  0.16360  1.0000
  H   H2632     1.0  0.85823  0.34812  0.16322  1.0000
  H   H2633     1.0  0.86122  0.37049  0.10508  1.0000
  H   H2634     1.0  0.82795  0.36747  0.10569  1.0000
  S   S440      1.0  0.75058  0.36495  0.12018  1.0000
  C   C1548     1.0  0.84180  0.31344  0.11603  1.0000
  H   H2635     1.0  0.89591  0.47032  0.20020  1.0000
  S   S441      1.0  0.75200  0.47423  0.13921  1.0000
  H   H2636     1.0  0.88705  0.45035  0.19542  1.0000
  C   C1549     1.0  0.89515  0.46981  0.31562  1.0000
  C   C1550     1.0  0.77899  0.34523  0.02999  1.0000
  C   C1551     1.0  0.78096  0.34928  0.01043  1.0000
  H   H2637     1.0  0.75434  0.37941  0.03268  1.0000
  C   C1552     1.0  0.90502  0.39138  0.28908  1.0000
  H   H2638     1.0  0.96492  0.38175  0.25609  1.0000
  C   C1553     1.0  0.76544  0.33434  0.03926  1.0000
  H   H2639     1.0  0.83740  0.35109  0.04935  1.0000
  H   H2640     1.0  0.97765  0.40181  0.17691  1.0000
  H   H2641     1.0  0.90409  0.45592  0.12631  1.0000
  N   N111      1.0  0.80390  0.41761  0.13443  1.0000
  C   C1554     1.0  0.80803  0.43756  0.13253  1.0000
  C   C1555     1.0  0.80957  0.41050  0.11577  1.0000
  C   C1556     1.0  0.81441  0.40496  0.14873  1.0000
  C   C1557     1.0  0.78350  0.41741  0.14063  1.0000
  C   C1558     1.0  0.80470  0.44659  0.15077  1.0000
  C   C1559     1.0  0.79869  0.42045  0.09976  1.0000
  C   C1560     1.0  0.83549  0.40554  0.14619  1.0000
  C   C1561     1.0  0.77619  0.39848  0.14135  1.0000
  H   H2642     1.0  0.82252  0.43876  0.12596  1.0000
  H   H2643     1.0  0.79922  0.44697  0.12293  1.0000
  H   H2644     1.0  0.80846  0.39527  0.11706  1.0000
  H   H2645     1.0  0.82437  0.41179  0.11068  1.0000
  H   H2646     1.0  0.80873  0.40789  0.16317  1.0000
  H   H2647     1.0  0.81265  0.39006  0.14865  1.0000
  H   H2648     1.0  0.77952  0.42161  0.15487  1.0000
  H   H2649     1.0  0.77547  0.42798  0.13137  1.0000
  H   H2650     1.0  0.81266  0.43855  0.16174  1.0000
  H   H2651     1.0  0.80922  0.46077  0.14768  1.0000
  H   H2652     1.0  0.78976  0.44871  0.15631  1.0000
  H   H2653     1.0  0.78389  0.41843  0.10260  1.0000
  H   H2654     1.0  0.79996  0.43562  0.09658  1.0000
  H   H2655     1.0  0.80444  0.41419  0.08679  1.0000
  H   H2656     1.0  0.84158  0.39533  0.15729  1.0000
  H   H2657     1.0  0.83900  0.41949  0.14764  1.0000
  H   H2658     1.0  0.84240  0.40119  0.13267  1.0000
  H   H2659     1.0  0.77784  0.39379  0.12738  1.0000
  H   H2660     1.0  0.76112  0.40016  0.14638  1.0000
  H   H2661     1.0  0.78280  0.38729  0.15121  1.0000
  H   H2662     1.0  0.85076  0.48721  0.30693  1.0000
  H   H2663     1.0  0.76389  0.33108  0.05434  1.0000
  Fe  Fe220     1.0  0.75344  0.38547  0.09378  1.0000
  H   H2664     1.0  0.87335  0.30921  0.09367  1.0000
  H   H2665     1.0  0.87813  0.31798  0.06927  1.0000
  C   C1562     1.0  0.87259  0.30649  0.07934  1.0000
  C   C1563     1.0  0.91384  0.48091  0.13071  1.0000
  H   H2666     1.0  0.92446  0.42793  0.32192  1.0000
  S   S442      1.0  0.93213  0.46041  0.22324  1.0000
  H   H2667     1.0  0.78901  0.41134  0.01063  1.0000
  H   H2668     1.0  0.90021  0.38056  0.28247  1.0000
  H   H2669     1.0  0.87497  0.47385  0.19004  1.0000
  H   H2670     1.0  0.90229  0.48246  0.16743  1.0000
  H   H2671     1.0  0.84995  0.32530  0.11440  1.0000
  H   H2672     1.0  0.75601  0.43272  0.04519  1.0000
  H   H2673     1.0  0.94963  0.37723  0.23319  1.0000
  H   H2674     1.0  0.93184  0.44175  0.26388  1.0000
  H   H2675     1.0  0.85757  0.35750  0.05623  1.0000
  H   H2676     1.0  0.97891  0.36651  0.12741  1.0000
  H   H2677     1.0  0.92372  0.47984  0.11769  1.0000
  H   H2678     1.0  0.97527  0.39232  0.28171  1.0000
  C   C1564     1.0  0.88868  0.46520  0.19004  1.0000
  C   C1565     1.0  0.96764  0.37994  0.28496  1.0000
  H   H2679     1.0  0.89956  0.48357  0.31656  1.0000
  C   C1566     1.0  0.75402  0.32736  0.02902  1.0000
  H   H2680     1.0  0.89971  0.40539  0.28234  1.0000
  H   H2681     1.0  0.94558  0.40275  0.23014  1.0000
  H   H2682     1.0  0.92943  0.38925  0.22429  1.0000
  C   C1567     1.0  0.87559  0.47368  0.15117  1.0000
  N   N112      1.0  0.89301  0.46079  0.15492  1.0000
  C   C1568     1.0  0.90049  0.46733  0.17065  1.0000
  C   C1569     1.0  0.90796  0.46141  0.13831  1.0000
  C   C1570     1.0  0.88889  0.44088  0.16108  1.0000
  C   C1571     1.0  0.89414  0.46903  0.29474  1.0000
  H   H2683     1.0  0.85457  0.33915  0.08560  1.0000
  H   H2684     1.0  0.95805  0.45974  0.18986  1.0000
  C   C1572     1.0  0.88823  0.42882  0.14556  1.0000
  H   H2685     1.0  0.77566  0.40661  0.03306  1.0000
  H   H2686     1.0  0.92122  0.48610  0.14064  1.0000
  H   H2687     1.0  0.83329  0.31335  0.13000  1.0000
  C   C1573     1.0  0.75557  0.46054  0.10556  1.0000
  H   H2688     1.0  0.92063  0.45191  0.14192  1.0000
  H   H2689     1.0  0.89956  0.43285  0.16952  1.0000
  H   H2690     1.0  0.87551  0.44065  0.17049  1.0000
  H   H2691     1.0  0.78145  0.38889  0.01754  1.0000
  C   C1574     1.0  0.84957  0.34559  0.05681  1.0000
  H   H2692     1.0  0.89328  0.45464  0.29203  1.0000
  C   C1575     1.0  0.75567  0.33171  0.00951  1.0000
  H   H2693     1.0  0.88255  0.47861  0.28923  1.0000
  N   N113      1.0  0.74185  0.40639  0.02004  1.0000
  Fe  Fe221     1.0  0.74680  0.34428  0.10120  1.0000
  C   C1576     1.0  0.98740  0.45891  0.22362  1.0000
  H   H2694     1.0  0.87979  0.43592  0.13467  1.0000
  H   H2695     1.0  0.88203  0.41595  0.15188  1.0000
  H   H2696     1.0  0.90242  0.42417  0.13891  1.0000
  H   H2697     1.0  0.97225  0.40179  0.12213  1.0000
  H   H2698     1.0  0.97215  0.46165  0.22387  1.0000
  H   H2699     1.0  0.88220  0.29349  0.07702  1.0000
  H   H2700     1.0  0.97136  0.38486  0.15304  1.0000
  H   H2701     1.0  0.87770  0.48856  0.15005  1.0000
  C   C1577     1.0  0.77732  0.40408  0.01828  1.0000
  H   H2702     1.0  0.91837  0.42795  0.25468  1.0000
  H   H2703     1.0  0.86945  0.42482  0.31589  1.0000
  H   H2704     1.0  0.89846  0.38991  0.30389  1.0000
  H   H2705     1.0  0.90706  0.47328  0.28631  1.0000
  N   N114      1.0  0.83738  0.31888  0.08088  1.0000
  C   C1578     1.0  0.82245  0.31911  0.06875  1.0000
  C   C1579     1.0  0.84329  0.33821  0.07745  1.0000
  C   C1580     1.0  0.82882  0.31517  0.10104  1.0000
  C   C1581     1.0  0.85301  0.30369  0.07607  1.0000
  C   C1582     1.0  0.81311  0.30111  0.07111  1.0000
  C   C1583     1.0  0.75316  0.44738  0.09421  1.0000
  H   H2706     1.0  0.91718  0.42766  0.27986  1.0000
  H   H2707     1.0  0.81134  0.33097  0.07113  1.0000
  H   H2708     1.0  0.82795  0.32162  0.05363  1.0000
  H   H2709     1.0  0.79147  0.35766  0.00320  1.0000
  H   H2710     1.0  0.83163  0.34863  0.08244  1.0000
  H   H2711     1.0  0.81718  0.32638  0.10428  1.0000
  H   H2712     1.0  0.82270  0.30182  0.10384  1.0000
  H   H2713     1.0  0.85001  0.28989  0.08398  1.0000
  H   H2714     1.0  0.85427  0.30175  0.06105  1.0000
  H   H2715     1.0  0.80459  0.30213  0.05957  1.0000
  H   H2716     1.0  0.82330  0.28831  0.07034  1.0000
  H   H2717     1.0  0.80340  0.29964  0.08428  1.0000
  H   H2718     1.0  0.85840  0.33474  0.04918  1.0000
  S   S443      1.0  0.74088  0.32278  0.99734  1.0000
  H   H2719     1.0  0.87654  0.46816  0.12180  1.0000
  H   H2720     1.0  0.95952  0.38005  0.29899  1.0000
  N   N115      1.0  0.93790  0.39244  0.26975  1.0000
  C   C1584     1.0  0.95571  0.37914  0.26951  1.0000
  C   C1585     1.0  0.92803  0.38896  0.25420  1.0000
  C   C1586     1.0  0.92630  0.38812  0.28854  1.0000
  C   C1587     1.0  0.94268  0.41220  0.26697  1.0000
  C   C1588     1.0  0.74890  0.45815  0.12466  1.0000
  C   C1589     1.0  0.93909  0.38974  0.23445  1.0000
  H   H2721     1.0  0.95278  0.36439  0.27055  1.0000
  C   C1590     1.0  0.98691  0.38875  0.17409  1.0000
  H   H2722     1.0  0.91507  0.39874  0.25302  1.0000
  H   H2723     1.0  0.92364  0.37482  0.25748  1.0000
  H   H2724     1.0  0.92940  0.37305  0.29440  1.0000
  H   H2725     1.0  0.92977  0.39617  0.29906  1.0000
  H   H2726     1.0  0.95006  0.41442  0.27849  1.0000
  H   H2727     1.0  0.91451  0.45975  0.17245  1.0000
  C   C1591     1.0  0.86653  0.47144  0.13410  1.0000
  H   H2728     1.0  0.85682  0.46077  0.13782  1.0000
  H   H2729     1.0  0.86463  0.47214  0.16337  1.0000
  H   H2730     1.0  0.90706  0.45932  0.31924  1.0000
  H   H2731     1.0  0.85855  0.48508  0.12927  1.0000
  C   C1592     1.0  0.98700  0.39520  0.12077  1.0000
  H   H2732     1.0  0.98043  0.37598  0.10337  1.0000
  C   C1593     1.0  0.98707  0.37513  0.11620  1.0000
  H   H2733     1.0  0.75805  0.44945  0.07938  1.0000
  Fe  Fe222     1.0  0.93604  0.33059  0.32012  1.0000
  H   H2734     1.0  0.79587  0.49346  0.02620  1.0000
  H   H2735     1.0  0.97662  0.42170  0.14243  1.0000
  H   H2736     1.0  0.97812  0.36726  0.28571  1.0000
  H   H2737     1.0  0.86285  0.45764  0.30963  1.0000
  S   S444      1.0  0.74736  0.36556  0.07551  1.0000
  H   H2738     1.0  0.74569  0.40433  0.04910  1.0000
  H   H2739     1.0  0.89135  0.43182  0.31761  1.0000
  H   H2740     1.0  0.74378  0.31868  0.03627  1.0000
  H   H2741     1.0  0.74805  0.37910  0.01019  1.0000
  C   C1594     1.0  0.74468  0.43144  0.10202  1.0000
  C   C1595     1.0  0.98633  0.38442  0.15416  1.0000
  H   H2742     1.0  0.98151  0.37723  0.18429  1.0000
  S   S445      1.0  0.74101  0.41564  0.08742  1.0000
  H   H2743     1.0  0.74381  0.44295  0.02562  1.0000
  C   C1596     1.0  0.76910  0.34276  0.00020  1.0000
  H   H2744     1.0  0.90198  0.49142  0.12705  1.0000
  H   H2745     1.0  0.76193  0.40567  0.99522  1.0000
  C   C1597     1.0  0.74351  0.38521  0.02353  1.0000
  C   C1598     1.0  0.74292  0.43370  0.03911  1.0000
  S   S446      1.0  0.79815  0.49359  0.11512  1.0000
  H   H2746     1.0  0.98611  0.39063  0.31855  1.0000
  C   C1599     1.0  0.86697  0.45299  0.32378  1.0000
  C   C1600     1.0  0.87667  0.43259  0.32392  1.0000
  H   H2747     1.0  0.98970  0.45403  0.19522  1.0000
  H   H2748     1.0  0.88303  0.06430  0.49900  1.0000
  H   H2749     1.0  0.85361  0.48248  0.34260  1.0000
  Fe  Fe223     1.0  0.92175  0.36083  0.34557  1.0000
  H   H2750     1.0  0.86675  0.11518  0.53325  1.0000
  S   S447      1.0  0.91364  0.39240  0.33888  1.0000
  Fe  Fe224     1.0  0.91635  0.31931  0.35924  1.0000
  S   S448      1.0  0.94353  0.30840  0.34375  1.0000
  S   S449      1.0  0.89879  0.29931  0.37895  1.0000
  Fe  Fe225     1.0  0.95414  0.33106  0.35484  1.0000
  H   H2751     1.0  0.74840  0.07161  0.46175  1.0000
  C   C1601     1.0  0.86883  0.06058  0.50341  1.0000
  S   S450      1.0  0.92756  0.34121  0.37170  1.0000
  C   C1602     1.0  0.98342  0.19784  0.61732  1.0000
  H   H2752     1.0  0.86075  0.14293  0.37695  1.0000
  H   H2753     1.0  0.96800  0.23774  0.43165  1.0000
  H   H2754     1.0  0.91959  0.18174  0.35331  1.0000
  Fe  Fe226     1.0  0.85061  0.03328  0.45115  1.0000
  S   S451      1.0  0.82075  0.04576  0.45245  1.0000
  S   S452      1.0  0.87461  0.04906  0.45400  1.0000
  Fe  Fe227     1.0  0.81491  0.02148  0.47437  1.0000
  H   H2755     1.0  0.77577  0.01171  0.42868  1.0000
  Fe  Fe228     1.0  0.81883  0.02541  0.43267  1.0000
  S   S453      1.0  0.80272  0.03575  0.40840  1.0000
  S   S454      1.0  0.84471  0.01042  0.47486  1.0000
  S   S455      1.0  0.84930  0.01405  0.42981  1.0000
  Fe  Fe229     1.0  0.81178  0.07189  0.61153  1.0000
  S   S456      1.0  0.83849  0.05285  0.61319  1.0000
  S   S457      1.0  0.79322  0.08072  0.63682  1.0000
  Fe  Fe230     1.0  0.81649  0.07645  0.56918  1.0000
  S   S458      1.0  0.84370  0.05800  0.56727  1.0000
  S   S459      1.0  0.80378  0.08881  0.54327  1.0000
  Fe  Fe231     1.0  0.83000  0.03879  0.59081  1.0000
  H   H2756     1.0  0.75821  0.11238  0.56595  1.0000
  Fe  Fe232     1.0  0.84966  0.07398  0.58955  1.0000
  S   S460      1.0  0.87659  0.08622  0.58894  1.0000
  S   S461      1.0  0.80241  0.05680  0.59124  1.0000
  S   S462      1.0  0.82328  0.09366  0.58949  1.0000
  Fe  Fe233     1.0  0.91726  0.22153  0.61281  1.0000
  S   S463      1.0  0.94244  0.22305  0.59154  1.0000
  C   C1603     1.0  0.92864  0.40600  0.36587  1.0000
  Fe  Fe234     1.0  0.90474  0.18957  0.59590  1.0000
  S   S464      1.0  0.92915  0.18925  0.57352  1.0000
  S   S465      1.0  0.88131  0.17215  0.59529  1.0000
  Fe  Fe235     1.0  0.94588  0.19176  0.59588  1.0000
  S   S466      1.0  0.97483  0.17640  0.59280  1.0000
  Fe  Fe236     1.0  0.92401  0.22049  0.57061  1.0000
  S   S467      1.0  0.92987  0.23479  0.54110  1.0000
  S   S468      1.0  0.89815  0.22129  0.59141  1.0000
  Fe  Fe237     1.0  0.90625  0.18434  0.46474  1.0000
  S   S469      1.0  0.91694  0.15364  0.46697  1.0000
  S   S470      1.0  0.88962  0.19557  0.49003  1.0000
  Fe  Fe238     1.0  0.92045  0.19199  0.42326  1.0000
  S   S471      1.0  0.93228  0.16165  0.42220  1.0000
  S   S472      1.0  0.92641  0.21180  0.39638  1.0000
  Fe  Fe239     1.0  0.90578  0.15425  0.43982  1.0000
  S   S473      1.0  0.88553  0.13593  0.43304  1.0000
  Fe  Fe240     1.0  0.94236  0.16360  0.44931  1.0000
  S   S474      1.0  0.97124  0.15333  0.45657  1.0000
  S   S475      1.0  0.89327  0.18464  0.43883  1.0000
  S   S476      1.0  0.93234  0.19422  0.44923  1.0000
  H   H2757     1.0  0.97029  0.42000  0.33143  1.0000
  C   C1604     1.0  0.84218  0.00472  0.53925  1.0000
  H   H2758     1.0  0.80392  0.14262  0.61977  1.0000
  C   C1605     1.0  0.95831  0.23935  0.42114  1.0000
  H   H2759     1.0  0.97010  0.18660  0.42919  1.0000
  H   H2760     1.0  0.79352  0.01536  0.62095  1.0000
  C   C1606     1.0  0.91887  0.29469  0.62146  1.0000
  H   H2761     1.0  0.76027  0.02139  0.48308  1.0000
  C   C1607     1.0  0.91766  0.27562  0.62066  1.0000
  H   H2762     1.0  0.91084  0.15298  0.36773  1.0000
  H   H2763     1.0  0.85366  0.45238  0.33329  1.0000
  C   C1608     1.0  0.91827  0.22505  0.52635  1.0000
  C   C1609     1.0  0.92598  0.22366  0.50774  1.0000
  C   C1610     1.0  0.91720  0.21486  0.49630  1.0000
  C   C1611     1.0  0.90049  0.20782  0.50334  1.0000
  C   C1612     1.0  0.89245  0.21000  0.52165  1.0000
  C   C1613     1.0  0.90150  0.21818  0.53327  1.0000
  H   H2764     1.0  0.93905  0.22878  0.50242  1.0000
  H   H2765     1.0  0.92351  0.21323  0.48222  1.0000
  H   H2766     1.0  0.87929  0.20508  0.52699  1.0000
  H   H2767     1.0  0.89538  0.21937  0.54757  1.0000
  C   C1614     1.0  0.88091  0.14831  0.59263  1.0000
  C   C1615     1.0  0.89596  0.13439  0.59523  1.0000
  C   C1616     1.0  0.89453  0.11552  0.59378  1.0000
  C   C1617     1.0  0.87804  0.11029  0.58988  1.0000
  C   C1618     1.0  0.86310  0.12427  0.58707  1.0000
  C   C1619     1.0  0.86453  0.14309  0.58850  1.0000
  H   H2768     1.0  0.90849  0.13809  0.59886  1.0000
  H   H2769     1.0  0.90616  0.10485  0.59608  1.0000
  H   H2770     1.0  0.85038  0.12061  0.58388  1.0000
  H   H2771     1.0  0.85281  0.15373  0.58646  1.0000
  C   C1620     1.0  0.87760  0.07318  0.44751  1.0000
  C   C1621     1.0  0.89377  0.07940  0.45107  1.0000
  C   C1622     1.0  0.89651  0.09848  0.44672  1.0000
  C   C1623     1.0  0.88309  0.11162  0.43869  1.0000
  C   C1624     1.0  0.86703  0.10536  0.43493  1.0000
  C   C1625     1.0  0.86422  0.08632  0.43944  1.0000
  H   H2772     1.0  0.90425  0.06936  0.45724  1.0000
  H   H2773     1.0  0.90901  0.10299  0.44954  1.0000
  H   H2774     1.0  0.85660  0.11533  0.42861  1.0000
  H   H2775     1.0  0.85174  0.08179  0.43656  1.0000
  C   C1626     1.0  0.79811  0.04022  0.51288  1.0000
  C   C1627     1.0  0.79680  0.03778  0.53235  1.0000
  C   C1628     1.0  0.79878  0.05267  0.54160  1.0000
  C   C1629     1.0  0.80095  0.07034  0.53157  1.0000
  C   C1630     1.0  0.80142  0.07301  0.51213  1.0000
  C   C1631     1.0  0.80062  0.05779  0.50271  1.0000
  H   H2776     1.0  0.79491  0.02420  0.54025  1.0000
  H   H2777     1.0  0.79853  0.05037  0.55652  1.0000
  H   H2778     1.0  0.80294  0.08666  0.50426  1.0000
  H   H2779     1.0  0.80182  0.05975  0.48765  1.0000
  H   H2780     1.0  0.86356  0.17579  0.36155  1.0000
  C   C1632     1.0  0.76875  0.05604  0.40593  1.0000
  Fe  Fe241     1.0  0.94151  0.48624  0.35831  1.0000
  H   H2781     1.0  0.75313  0.08143  0.48636  1.0000
  C   C1633     1.0  0.84258  0.09942  0.63478  1.0000
  H   H2782     1.0  0.90204  0.17721  0.33999  1.0000
  C   C1634     1.0  0.77012  0.07636  0.63872  1.0000
  C   C1635     1.0  0.76525  0.06198  0.63040  1.0000
  H   H2783     1.0  0.95253  0.26247  0.57644  1.0000
  H   H2784     1.0  0.77587  0.05317  0.62280  1.0000
  H   H2785     1.0  0.76618  0.04524  0.57129  1.0000
  H   H2786     1.0  0.92640  0.39296  0.37472  1.0000
  H   H2787     1.0  0.96455  0.38775  0.33273  1.0000
  C   C1636     1.0  0.90613  0.27483  0.38321  1.0000
  C   C1637     1.0  0.92178  0.26630  0.37281  1.0000
  C   C1638     1.0  0.92756  0.24695  0.37688  1.0000
  C   C1639     1.0  0.91806  0.23596  0.39167  1.0000
  C   C1640     1.0  0.90229  0.24438  0.40202  1.0000
  C   C1641     1.0  0.89622  0.26367  0.39761  1.0000
  H   H2788     1.0  0.92936  0.27454  0.36149  1.0000
  H   H2789     1.0  0.93965  0.24054  0.36865  1.0000
  H   H2790     1.0  0.89472  0.23608  0.41337  1.0000
  H   H2791     1.0  0.88397  0.27010  0.40561  1.0000
  C   C1642     1.0  0.92445  0.40880  0.34752  1.0000
  H   H2792     1.0  0.85314  0.15954  0.39300  1.0000
  H   H2793     1.0  0.98186  0.43054  0.36483  1.0000
  C   C1643     1.0  0.74662  0.05884  0.63222  1.0000
  H   H2794     1.0  0.82506  0.12433  0.47702  1.0000
  H   H2795     1.0  0.77875  0.05387  0.47233  1.0000
  H   H2796     1.0  0.86950  0.13047  0.50514  1.0000
  C   C1644     1.0  0.83506  0.11153  0.47980  1.0000
  H   H2797     1.0  0.74564  0.05214  0.45173  1.0000
  N   N116      1.0  0.87801  0.46662  0.32934  1.0000
  H   H2798     1.0  0.75532  0.10863  0.59144  1.0000
  C   C1645     1.0  0.93481  0.42048  0.37313  1.0000
  C   C1646     1.0  0.78273  0.01105  0.63261  1.0000
  H   H2799     1.0  0.91038  0.19932  0.33635  1.0000
  H   H2800     1.0  0.83188  0.01693  0.54264  1.0000
  H   H2801     1.0  0.95543  0.26930  0.41527  1.0000
  H   H2802     1.0  0.92624  0.15735  0.38250  1.0000
  H   H2803     1.0  0.96687  0.23826  0.40734  1.0000
  C   C1647     1.0  0.92734  0.42583  0.33623  1.0000
  H   H2804     1.0  0.84338  0.07104  0.65042  1.0000
  H   H2805     1.0  0.93673  0.29634  0.40980  1.0000
  S   S477      1.0  0.92198  0.18973  0.61897  1.0000
  H   H2806     1.0  0.76179  0.04505  0.50073  1.0000
  N   N117      1.0  0.92450  0.14796  0.53724  1.0000
  C   C1648     1.0  0.94247  0.14776  0.54489  1.0000
  C   C1649     1.0  0.92786  0.15352  0.51632  1.0000
  C   C1650     1.0  0.91892  0.12842  0.54168  1.0000
  C   C1651     1.0  0.91014  0.16191  0.54648  1.0000
  C   C1652     1.0  0.94309  0.13937  0.56562  1.0000
  C   C1653     1.0  0.93768  0.17108  0.50956  1.0000
  C   C1654     1.0  0.90695  0.12262  0.52843  1.0000
  C   C1655     1.0  0.89020  0.16329  0.54211  1.0000
  H   H2807     1.0  0.95406  0.13974  0.53651  1.0000
  H   H2808     1.0  0.94614  0.16225  0.54370  1.0000
  H   H2809     1.0  0.91478  0.15595  0.51005  1.0000
  H   H2810     1.0  0.93663  0.14191  0.50953  1.0000
  H   H2811     1.0  0.93138  0.11763  0.54142  1.0000
  H   H2812     1.0  0.91146  0.12625  0.55616  1.0000
  H   H2813     1.0  0.90892  0.15845  0.56191  1.0000
  H   H2814     1.0  0.91419  0.17626  0.54400  1.0000
  H   H2815     1.0  0.95715  0.13974  0.56918  1.0000
  H   H2816     1.0  0.93342  0.14770  0.57532  1.0000
  C   C1656     1.0  0.74940  0.05924  0.40934  1.0000
  H   H2817     1.0  0.93627  0.17577  0.49456  1.0000
  H   H2818     1.0  0.93173  0.18288  0.51744  1.0000
  H   H2819     1.0  0.95273  0.16793  0.51056  1.0000
  H   H2820     1.0  0.89468  0.13290  0.52593  1.0000
  H   H2821     1.0  0.90195  0.10911  0.53478  1.0000
  H   H2822     1.0  0.91520  0.12024  0.51474  1.0000
  H   H2823     1.0  0.88337  0.15113  0.54948  1.0000
  H   H2824     1.0  0.88928  0.16510  0.52693  1.0000
  H   H2825     1.0  0.88217  0.17620  0.54704  1.0000
  H   H2826     1.0  0.74250  0.02207  0.46896  1.0000
  H   H2827     1.0  0.88502  0.09567  0.50358  1.0000
  H   H2828     1.0  0.97717  0.23142  0.52948  1.0000
  H   H2829     1.0  0.75920  0.01955  0.60550  1.0000
  C   C1657     1.0  0.80878  0.12941  0.62847  1.0000
  S   S478      1.0  0.94932  0.35229  0.32994  1.0000
  H   H2830     1.0  0.96912  0.40811  0.35444  1.0000
  H   H2831     1.0  0.82452  0.14420  0.64257  1.0000
  C   C1658     1.0  0.86881  0.19243  0.39000  1.0000
  H   H2832     1.0  0.87535  0.14516  0.39364  1.0000
  H   H2833     1.0  0.76899  0.07692  0.56742  1.0000
  H   H2834     1.0  0.89202  0.16657  0.40371  1.0000
  H   H2835     1.0  0.85649  0.19763  0.38261  1.0000
  C   C1659     1.0  0.87341  0.10224  0.49566  1.0000
  H   H2836     1.0  0.79763  0.12695  0.64025  1.0000
  H   H2837     1.0  0.87928  0.12925  0.64742  1.0000
  C   C1660     1.0  0.75849  0.08264  0.57847  1.0000
  C   C1661     1.0  0.91290  0.27021  0.65442  1.0000
  H   H2838     1.0  0.89302  0.44517  0.34757  1.0000
  H   H2839     1.0  0.87138  0.45507  0.35848  1.0000
  C   C1662     1.0  0.98283  0.18505  0.43525  1.0000
  H   H2840     1.0  0.94521  0.27882  0.47669  1.0000
  H   H2841     1.0  0.88448  0.48285  0.36295  1.0000
  C   C1663     1.0  0.74648  0.00141  0.65068  1.0000
  H   H2842     1.0  0.84021  0.07237  0.50378  1.0000
  H   H2843     1.0  0.75791  0.07471  0.50932  1.0000
  C   C1664     1.0  0.85505  0.09158  0.52594  1.0000
  H   H2844     1.0  0.75999  0.09860  0.65546  1.0000
  H   H2845     1.0  0.76201  0.07455  0.59198  1.0000
  H   H2846     1.0  0.91884  0.27056  0.60729  1.0000
  H   H2847     1.0  0.95667  0.44075  0.65699  1.0000
  N   N118      1.0  0.88379  0.18163  0.37774  1.0000
  H   H2848     1.0  0.90556  0.47657  0.34761  1.0000
  H   H2849     1.0  0.77635  0.06688  0.39791  1.0000
  H   H2850     1.0  0.74478  0.00069  0.61257  1.0000
  H   H2851     1.0  0.75462  0.05442  0.55101  1.0000
  C   C1665     1.0  0.77837  0.03907  0.41316  1.0000
  H   H2852     1.0  0.87600  0.42502  0.33839  1.0000
  C   C1666     1.0  0.94591  0.25852  0.42011  1.0000
  H   H2853     1.0  0.82598  0.10452  0.50918  1.0000
  H   H2854     1.0  0.88860  0.12625  0.48746  1.0000
  H   H2855     1.0  0.97028  0.31032  0.65837  1.0000
  H   H2856     1.0  0.95248  0.25908  0.63781  1.0000
  H   H2857     1.0  0.88742  0.20636  0.40281  1.0000
  H   H2858     1.0  0.90725  0.18228  0.39201  1.0000
  H   H2859     1.0  0.75762  0.00344  0.58996  1.0000
  C   C1667     1.0  0.85311  0.08126  0.64409  1.0000
  H   H2860     1.0  0.86589  0.13077  0.48122  1.0000
  C   C1668     1.0  0.87409  0.12364  0.49242  1.0000
  H   H2861     1.0  0.85248  0.10359  0.55173  1.0000
  H   H2862     1.0  0.98623  0.38544  0.37261  1.0000
  H   H2863     1.0  0.84159  0.11904  0.53418  1.0000
  C   C1669     1.0  0.75113  0.05610  0.46364  1.0000
  S   S479      1.0  0.91314  0.23897  0.63717  1.0000
  S   S480      1.0  0.81034  0.00234  0.45486  1.0000
  C   C1670     1.0  0.91455  0.26325  0.63717  1.0000
  H   H2864     1.0  0.92100  0.30418  0.60861  1.0000
  H   H2865     1.0  0.83936  0.12316  0.50391  1.0000
  C   C1671     1.0  0.77227  0.05093  0.46060  1.0000
  C   C1672     1.0  0.87418  0.20962  0.39696  1.0000
  H   H2866     1.0  0.97158  0.46720  0.61575  1.0000
  C   C1673     1.0  0.89398  0.47107  0.35736  1.0000
  C   C1674     1.0  0.93695  0.43781  0.36209  1.0000
  C   C1675     1.0  0.93587  0.27143  0.47064  1.0000
  H   H2867     1.0  0.95490  0.25253  0.45547  1.0000
  C   C1676     1.0  0.74534  0.02632  0.48220  1.0000
  S   S481      1.0  0.82235  0.00981  0.58948  1.0000
  H   H2868     1.0  0.98203  0.46209  0.34955  1.0000
  C   C1677     1.0  0.91713  0.30166  0.63873  1.0000
  H   H2869     1.0  0.86751  0.04874  0.49591  1.0000
  H   H2870     1.0  0.88405  0.16025  0.35960  1.0000
  H   H2871     1.0  0.78891  0.02858  0.65196  1.0000
  C   C1678     1.0  0.85393  0.07710  0.49829  1.0000
  H   H2872     1.0  0.86376  0.18319  0.40281  1.0000
  C   C1679     1.0  0.98581  0.45080  0.34045  1.0000
  H   H2873     1.0  0.84786  0.11309  0.46990  1.0000
  H   H2874     1.0  0.90003  0.46258  0.36951  1.0000
  C   C1680     1.0  0.74794  0.07342  0.49974  1.0000
  C   C1681     1.0  0.86551  0.15320  0.38436  1.0000
  C   C1682     1.0  0.91168  0.15525  0.38215  1.0000
  H   H2875     1.0  0.92325  0.28159  0.46951  1.0000
  N   N119      1.0  0.85543  0.09543  0.50497  1.0000
  S   S482      1.0  0.98111  0.32562  0.36660  1.0000
  H   H2876     1.0  0.93823  0.30185  0.43302  1.0000
  C   C1683     1.0  0.78958  0.01338  0.65098  1.0000
  C   C1684     1.0  0.86565  0.48486  0.33167  1.0000
  H   H2877     1.0  0.86337  0.21429  0.40826  1.0000
  H   H2878     1.0  0.93558  0.45340  0.33473  1.0000
  C   C1685     1.0  0.87452  0.16804  0.36981  1.0000
  H   H2879     1.0  0.86342  0.07486  0.63332  1.0000
  N   N120      1.0  0.83601  0.11476  0.64689  1.0000
  C   C1686     1.0  0.97894  0.39039  0.33305  1.0000
  H   H2880     1.0  0.93252  0.25893  0.48068  1.0000
  H   H2881     1.0  0.77807  0.05951  0.44770  1.0000
  H   H2882     1.0  0.97611  0.23916  0.59307  1.0000
  H   H2883     1.0  0.90944  0.14206  0.39162  1.0000
  N   N121      1.0  0.98211  0.27323  0.65114  1.0000
  S   S483      1.0  0.94415  0.45584  0.37193  1.0000
  N   N122      1.0  0.93351  0.26277  0.43785  1.0000
  H   H2884     1.0  0.83671  0.13557  0.62224  1.0000
  C   C1687     1.0  0.92026  0.28011  0.43279  1.0000
  C   C1688     1.0  0.92306  0.24620  0.44514  1.0000
  C   C1689     1.0  0.94563  0.26568  0.45175  1.0000
  H   H2885     1.0  0.87499  0.22168  0.38566  1.0000
  H   H2886     1.0  0.86531  0.13599  0.62907  1.0000
  C   C1690     1.0  0.90428  0.24990  0.45747  1.0000
  C   C1691     1.0  0.98800  0.23263  0.53815  1.0000
  H   H2887     1.0  0.95015  0.22738  0.42381  1.0000
  C   C1692     1.0  0.76223  0.10294  0.57850  1.0000
  H   H2888     1.0  0.91030  0.28407  0.44495  1.0000
  H   H2889     1.0  0.91144  0.27731  0.42272  1.0000
  H   H2890     1.0  0.91985  0.23970  0.43335  1.0000
  H   H2891     1.0  0.93177  0.23495  0.45321  1.0000
  H   H2892     1.0  0.84604  0.99708  0.55268  1.0000
  C   C1693     1.0  0.74890  0.02796  0.42625  1.0000
  H   H2893     1.0  0.84307  0.08404  0.53226  1.0000
  C   C1694     1.0  0.96171  0.24870  0.64598  1.0000
  H   H2894     1.0  0.93754  0.25908  0.40853  1.0000
  C   C1695     1.0  0.96259  0.26682  0.58426  1.0000
  C   C1696     1.0  0.86887  0.12454  0.64029  1.0000
  H   H2895     1.0  0.95552  0.27583  0.44559  1.0000
  H   H2896     1.0  0.89371  0.25826  0.44919  1.0000
  H   H2897     1.0  0.90518  0.25675  0.46975  1.0000
  H   H2898     1.0  0.89910  0.23625  0.46292  1.0000
  H   H2899     1.0  0.96568  0.28113  0.57829  1.0000
  H   H2900     1.0  0.91793  0.30977  0.42195  1.0000
  C   C1697     1.0  0.74779  0.05244  0.49868  1.0000
  H   H2901     1.0  0.85482  0.07874  0.48277  1.0000
  H   H2902     1.0  0.95539  0.28696  0.64343  1.0000
  H   H2903     1.0  0.82880  0.09950  0.47686  1.0000
  C   C1698     1.0  0.83867  0.10900  0.50039  1.0000
  C   C1699     1.0  0.90668  0.18758  0.34728  1.0000
  H   H2904     1.0  0.89825  0.20587  0.36775  1.0000
  H   H2905     1.0  0.86688  0.05524  0.51856  1.0000
  H   H2906     1.0  0.97013  0.25618  0.54826  1.0000
  C   C1700     1.0  0.85388  0.10860  0.53646  1.0000
  H   H2907     1.0  0.74825  0.03380  0.56589  1.0000
  C   C1701     1.0  0.82714  0.13161  0.63511  1.0000
  C   C1702     1.0  0.93356  0.44029  0.34347  1.0000
  H   H2908     1.0  0.77733  0.10294  0.57837  1.0000
  H   H2909     1.0  0.96870  0.20038  0.62186  1.0000
  C   C1703     1.0  0.88366  0.45859  0.34831  1.0000
  C   C1704     1.0  0.89849  0.17200  0.38952  1.0000
  C   C1705     1.0  0.97028  0.28854  0.64027  1.0000
  C   C1706     1.0  0.76842  0.02498  0.42335  1.0000
  H   H2910     1.0  0.93755  0.41837  0.38751  1.0000
  C   C1707     1.0  0.91423  0.28923  0.65521  1.0000
  H   H2911     1.0  0.94049  0.12452  0.56853  1.0000
  C   C1708     1.0  0.89163  0.19552  0.36211  1.0000
  S   S484      1.0  0.79616  0.02123  0.50161  1.0000
  H   H2912     1.0  0.87735  0.09767  0.48160  1.0000
  H   H2913     1.0  0.85108  0.10450  0.62159  1.0000
  S   S485      1.0  0.91861  0.32589  0.63896  1.0000
  H   H2914     1.0  0.86759  0.08212  0.52981  1.0000
  C   C1709     1.0  0.98109  0.25455  0.64497  1.0000
  H   H2915     1.0  0.85442  0.01050  0.53088  1.0000
  H   H2916     1.0  0.87568  0.11182  0.63410  1.0000
  H   H2917     1.0  0.83108  0.00130  0.51467  1.0000
  H   H2918     1.0  0.83066  0.09487  0.62982  1.0000
  C   C1710     1.0  0.97894  0.24362  0.55439  1.0000
  C   C1711     1.0  0.98032  0.25254  0.58511  1.0000
  H   H2919     1.0  0.97328  0.44967  0.33425  1.0000
  H   H2920     1.0  0.96048  0.31844  0.63718  1.0000
  H   H2921     1.0  0.96296  0.23553  0.63967  1.0000
  H   H2922     1.0  0.74342  0.01266  0.63918  1.0000
  H   H2923     1.0  0.88032  0.20378  0.35462  1.0000
  H   H2924     1.0  0.77067  0.02182  0.63087  1.0000
  C   C1712     1.0  0.92911  0.29785  0.42395  1.0000
  C   C1713     1.0  0.97812  0.40916  0.34074  1.0000
  H   H2925     1.0  0.77636  0.03606  0.45831  1.0000
  C   C1714     1.0  0.97178  0.30873  0.64334  1.0000
  H   H2926     1.0  0.96915  0.23447  0.56290  1.0000
  H   H2927     1.0  0.95552  0.26770  0.59874  1.0000
  C   C1715     1.0  0.75804  0.00467  0.60487  1.0000
  H   H2928     1.0  0.81043  0.11809  0.61956  1.0000
  H   H2929     1.0  0.74284  0.04772  0.62591  1.0000
  H   H2930     1.0  0.98866  0.25782  0.59418  1.0000
  H   H2931     1.0  0.80429  0.00723  0.65113  1.0000
  C   C1716     1.0  0.75636  0.08752  0.64891  1.0000
  H   H2932     1.0  0.98537  0.37832  0.34212  1.0000
  H   H2933     1.0  0.74219  0.07265  0.40417  1.0000
  C   C1717     1.0  0.75268  0.04777  0.56575  1.0000
  H   H2934     1.0  0.86115  0.08356  0.65493  1.0000
  S   S486      1.0  0.94277  0.49418  0.32729  1.0000
  C   C1718     1.0  0.97917  0.47084  0.62647  1.0000
  H   H2935     1.0  0.97370  0.28776  0.62498  1.0000
  S   S487      1.0  0.90777  0.34000  0.33447  1.0000
  H   H2936     1.0  0.74875  0.08758  0.54619  1.0000
  C   C1719     1.0  0.85181  0.12062  0.65461  1.0000
  H   H2937     1.0  0.98499  0.31342  0.63617  1.0000
  H   H2938     1.0  0.98896  0.24292  0.65348  1.0000
  N   N123      1.0  0.74123  0.04736  0.48174  1.0000
  H   H2939     1.0  0.98061  0.48594  0.62272  1.0000
  H   H2940     1.0  0.81133  0.10163  0.65787  1.0000
  H   H2941     1.0  0.98778  0.25422  0.63023  1.0000
  C   C1720     1.0  0.98685  0.16995  0.44897  1.0000
  H   H2942     1.0  0.74129  0.01705  0.43407  1.0000
  H   H2943     1.0  0.98768  0.27802  0.55372  1.0000
  H   H2944     1.0  0.97020  0.46835  0.63995  1.0000
  H   H2945     1.0  0.98374  0.33146  0.32646  1.0000
  H   H2946     1.0  0.95454  0.48482  0.73249  1.0000
  S   S488      1.0  0.74879  0.36076  0.95024  1.0000
  H   H2947     1.0  0.93227  0.49059  0.79476  1.0000
  C   C1721     1.0  0.96090  0.38713  0.73230  1.0000
  H   H2948     1.0  0.91275  0.29433  0.66860  1.0000
  C   C1722     1.0  0.85263  0.48995  0.85636  1.0000
  H   H2949     1.0  0.85657  0.11013  0.66622  1.0000
  Fe  Fe242     1.0  0.74801  0.34518  0.92610  1.0000
  S   S489      1.0  0.76978  0.34658  0.89991  1.0000
  H   H2950     1.0  0.74891  0.42730  0.91848  1.0000
  Fe  Fe243     1.0  0.90944  0.35162  0.70327  1.0000
  S   S490      1.0  0.90590  0.36677  0.67436  1.0000
  S   S491      1.0  0.88670  0.35532  0.72747  1.0000
  S   S492      1.0  0.90998  0.48583  0.68878  1.0000
  H   H2951     1.0  0.79003  0.39230  0.86946  1.0000
  Fe  Fe244     1.0  0.92165  0.34007  0.66418  1.0000
  Fe  Fe245     1.0  0.94904  0.33640  0.69169  1.0000
  H   H2952     1.0  0.74385  0.39689  0.95976  1.0000
  S   S493      1.0  0.93619  0.36211  0.70470  1.0000
  S   S494      1.0  0.92258  0.32440  0.69306  1.0000
  Fe  Fe246     1.0  0.88900  0.39269  0.83099  1.0000
  S   S495      1.0  0.89168  0.38955  0.86139  1.0000
  S   S496      1.0  0.88157  0.42187  0.81660  1.0000
  Fe  Fe247     1.0  0.90012  0.35153  0.82903  1.0000
  S   S497      1.0  0.90410  0.34515  0.85950  1.0000
  S   S498      1.0  0.90796  0.32979  0.80935  1.0000
  Fe  Fe248     1.0  0.87697  0.36414  0.86406  1.0000
  S   S499      1.0  0.85534  0.35841  0.88966  1.0000
  Fe  Fe249     1.0  0.91843  0.37115  0.85400  1.0000
  S   S500      1.0  0.94332  0.37880  0.86503  1.0000
  S   S501      1.0  0.87223  0.36878  0.83386  1.0000
  S   S502      1.0  0.91636  0.37582  0.82332  1.0000
  H   H2953     1.0  0.98357  0.28335  0.67717  1.0000
  H   H2954     1.0  0.93898  0.44554  0.89446  1.0000
  C   C1723     1.0  0.92502  0.45700  0.82538  1.0000
  C   C1724     1.0  0.90785  0.46586  0.82059  1.0000
  C   C1725     1.0  0.89465  0.45515  0.81723  1.0000
  C   C1726     1.0  0.89855  0.43557  0.81896  1.0000
  C   C1727     1.0  0.91594  0.42692  0.82311  1.0000
  C   C1728     1.0  0.92926  0.43760  0.82592  1.0000
  H   H2955     1.0  0.95130  0.46331  0.77719  1.0000
  H   H2956     1.0  0.88128  0.46197  0.81382  1.0000
  H   H2957     1.0  0.91919  0.41194  0.82450  1.0000
  H   H2958     1.0  0.94261  0.43068  0.82933  1.0000
  H   H2959     1.0  0.96843  0.38515  0.69524  1.0000
  H   H2960     1.0  0.95818  0.42988  0.86963  1.0000
  H   H2961     1.0  0.77057  0.34596  0.98512  1.0000
  C   C1729     1.0  0.77005  0.44520  0.90995  1.0000
  C   C1730     1.0  0.89269  0.34765  0.75013  1.0000
  C   C1731     1.0  0.88031  0.35280  0.76565  1.0000
  C   C1732     1.0  0.88507  0.34768  0.78384  1.0000
  C   C1733     1.0  0.90202  0.33689  0.78662  1.0000
  C   C1734     1.0  0.91426  0.33143  0.77114  1.0000
  C   C1735     1.0  0.90975  0.33706  0.75290  1.0000
  H   H2962     1.0  0.86709  0.36095  0.76356  1.0000
  H   H2963     1.0  0.87550  0.35186  0.79568  1.0000
  H   H2964     1.0  0.92736  0.32300  0.77323  1.0000
  H   H2965     1.0  0.91934  0.33297  0.74100  1.0000
  H   H2966     1.0  0.97258  0.42611  0.68630  1.0000
  C   C1736     1.0  0.95619  0.27636  0.67953  1.0000
  H   H2967     1.0  0.96388  0.48864  0.79589  1.0000
  H   H2968     1.0  0.76291  0.38957  0.88669  1.0000
  N   N124      1.0  0.98314  0.40379  0.70649  1.0000
  H   H2969     1.0  0.97933  0.40582  0.73639  1.0000
  C   C1737     1.0  0.79361  0.34965  0.89744  1.0000
  C   C1738     1.0  0.80279  0.34974  0.91284  1.0000
  C   C1739     1.0  0.82163  0.35246  0.91016  1.0000
  C   C1740     1.0  0.83151  0.35533  0.89208  1.0000
  C   C1741     1.0  0.82226  0.35550  0.87667  1.0000
  C   C1742     1.0  0.80352  0.35243  0.87935  1.0000
  H   H2970     1.0  0.79543  0.34758  0.92684  1.0000
  H   H2971     1.0  0.82860  0.35230  0.92221  1.0000
  H   H2972     1.0  0.82952  0.35808  0.86269  1.0000
  H   H2973     1.0  0.79654  0.35249  0.86733  1.0000
  C   C1743     1.0  0.94353  0.44276  0.66576  1.0000
  H   H2974     1.0  0.77943  0.43946  0.92045  1.0000
  S   S503      1.0  0.94094  0.46943  0.83209  1.0000
  C   C1744     1.0  0.74591  0.44381  0.95555  1.0000
  H   H2975     1.0  0.77779  0.45196  0.89708  1.0000
  H   H2976     1.0  0.97467  0.44676  0.70730  1.0000
  H   H2977     1.0  0.76472  0.41932  0.96344  1.0000
  N   N125      1.0  0.89788  0.40943  0.75872  1.0000
  C   C1745     1.0  0.90264  0.39458  0.77475  1.0000
  C   C1746     1.0  0.87961  0.42046  0.76510  1.0000
  C   C1747     1.0  0.91258  0.42237  0.75513  1.0000
  C   C1748     1.0  0.89742  0.39999  0.74174  1.0000
  C   C1749     1.0  0.92140  0.38206  0.77155  1.0000
  C   C1750     1.0  0.86353  0.40873  0.77221  1.0000
  C   C1751     1.0  0.91115  0.43811  0.73851  1.0000
  C   C1752     1.0  0.88482  0.40995  0.72713  1.0000
  H   H2978     1.0  0.90245  0.40103  0.78769  1.0000
  H   H2979     1.0  0.89213  0.38472  0.77826  1.0000
  H   H2980     1.0  0.87501  0.43151  0.75393  1.0000
  H   H2981     1.0  0.88101  0.42834  0.77666  1.0000
  H   H2982     1.0  0.91284  0.42902  0.76789  1.0000
  H   H2983     1.0  0.92656  0.41448  0.75217  1.0000
  H   H2984     1.0  0.91158  0.39737  0.73399  1.0000
  H   H2985     1.0  0.89337  0.38570  0.74577  1.0000
  H   H2986     1.0  0.93306  0.38955  0.77285  1.0000
  H   H2987     1.0  0.92172  0.36977  0.78265  1.0000
  H   H2988     1.0  0.92359  0.37636  0.75802  1.0000
  H   H2989     1.0  0.86328  0.39767  0.76337  1.0000
  H   H2990     1.0  0.86436  0.40210  0.78688  1.0000
  H   H2991     1.0  0.85015  0.41808  0.77224  1.0000
  H   H2992     1.0  0.92093  0.44815  0.73909  1.0000
  H   H2993     1.0  0.89725  0.44635  0.73855  1.0000
  H   H2994     1.0  0.91548  0.43235  0.72507  1.0000
  H   H2995     1.0  0.88998  0.42259  0.71893  1.0000
  H   H2996     1.0  0.87030  0.41358  0.73327  1.0000
  H   H2997     1.0  0.88382  0.39989  0.71737  1.0000
  N   N126      1.0  0.86409  0.30582  0.84821  1.0000
  C   C1753     1.0  0.88428  0.29774  0.84711  1.0000
  C   C1754     1.0  0.86011  0.31787  0.86382  1.0000
  C   C1755     1.0  0.86150  0.31806  0.82990  1.0000
  C   C1756     1.0  0.85247  0.28992  0.85140  1.0000
  C   C1757     1.0  0.89176  0.28548  0.83138  1.0000
  C   C1758     1.0  0.86413  0.30781  0.88327  1.0000
  C   C1759     1.0  0.84193  0.32821  0.82777  1.0000
  C   C1760     1.0  0.83220  0.29403  0.86068  1.0000
  H   H2998     1.0  0.89320  0.30914  0.84549  1.0000
  H   H2999     1.0  0.88718  0.28863  0.86031  1.0000
  H   H3000     1.0  0.84559  0.32449  0.86558  1.0000
  H   H3001     1.0  0.86825  0.32994  0.86043  1.0000
  H   H3002     1.0  0.87096  0.32900  0.82728  1.0000
  H   H3003     1.0  0.86522  0.30983  0.81793  1.0000
  H   H3004     1.0  0.85217  0.28455  0.83795  1.0000
  H   H3005     1.0  0.85893  0.27790  0.86068  1.0000
  H   H3006     1.0  0.88346  0.27393  0.83163  1.0000
  H   H3007     1.0  0.89285  0.29390  0.81733  1.0000
  H   H3008     1.0  0.90607  0.27897  0.83332  1.0000
  H   H3009     1.0  0.85708  0.31655  0.89416  1.0000
  H   H3010     1.0  0.85908  0.29395  0.88667  1.0000
  H   H3011     1.0  0.87915  0.30619  0.88438  1.0000
  H   H3012     1.0  0.83651  0.33732  0.83873  1.0000
  H   H3013     1.0  0.83221  0.31816  0.82716  1.0000
  H   H3014     1.0  0.84250  0.33756  0.81419  1.0000
  H   H3015     1.0  0.82346  0.28563  0.85503  1.0000
  H   H3016     1.0  0.82577  0.30877  0.85832  1.0000
  H   H3017     1.0  0.83098  0.28912  0.87594  1.0000
  N   N127      1.0  0.91183  0.44214  0.88844  1.0000
  C   C1761     1.0  0.90319  0.46035  0.89556  1.0000
  C   C1762     1.0  0.90286  0.44086  0.87149  1.0000
  C   C1763     1.0  0.93216  0.44342  0.88252  1.0000
  C   C1764     1.0  0.90886  0.42622  0.90401  1.0000
  C   C1765     1.0  0.91151  0.46579  0.91187  1.0000
  C   C1766     1.0  0.88193  0.43946  0.87512  1.0000
  C   C1767     1.0  0.94401  0.42631  0.87477  1.0000
  C   C1768     1.0  0.91074  0.40623  0.89845  1.0000
  H   H3018     1.0  0.93878  0.48738  0.76048  1.0000
  H   H3019     1.0  0.88821  0.46010  0.90061  1.0000
  H   H3020     1.0  0.90939  0.42887  0.86411  1.0000
  H   H3021     1.0  0.78669  0.41048  0.93710  1.0000
  H   H3022     1.0  0.90473  0.48092  0.81943  1.0000
  H   H3023     1.0  0.87745  0.43665  0.86205  1.0000
  H   H3024     1.0  0.91863  0.42568  0.91436  1.0000
  H   H3025     1.0  0.89478  0.42876  0.91200  1.0000
  H   H3026     1.0  0.87376  0.45281  0.87871  1.0000
  C   C1769     1.0  0.78512  0.41728  0.88431  1.0000
  Fe  Fe250     1.0  0.93343  0.37617  0.67545  1.0000
  H   H3027     1.0  0.92522  0.47063  0.90711  1.0000
  H   H3028     1.0  0.97569  0.39468  0.86890  1.0000
  H   H3029     1.0  0.87846  0.42779  0.88613  1.0000
  Fe  Fe251     1.0  0.75287  0.49043  0.95387  1.0000
  H   H3030     1.0  0.79449  0.42559  0.88903  1.0000
  H   H3031     1.0  0.93890  0.42221  0.86272  1.0000
  H   H3032     1.0  0.92034  0.39649  0.90694  1.0000
  H   H3033     1.0  0.91616  0.40499  0.88372  1.0000
  H   H3034     1.0  0.89722  0.40066  0.90164  1.0000
  H   H3035     1.0  0.80165  0.41151  0.91518  1.0000
  H   H3036     1.0  0.95228  0.29126  0.68183  1.0000
  H   H3037     1.0  0.95358  0.26813  0.69358  1.0000
  S   S504      1.0  0.76131  0.45906  0.95842  1.0000
  C   C1770     1.0  0.81324  0.12174  0.67626  1.0000
  C   C1771     1.0  0.91941  0.46353  0.68192  1.0000
  H   H3038     1.0  0.90239  0.47787  0.91739  1.0000
  H   H3039     1.0  0.95060  0.44367  0.71087  1.0000
  H   H3040     1.0  0.94547  0.41410  0.88583  1.0000
  S   S505      1.0  0.97489  0.31723  0.69743  1.0000
  H   H3041     1.0  0.94881  0.39714  0.72841  1.0000
  C   C1772     1.0  0.96713  0.37265  0.85683  1.0000
  C   C1773     1.0  0.75134  0.42446  0.95902  1.0000
  H   H3042     1.0  0.90388  0.47233  0.88404  1.0000
  H   H3043     1.0  0.89600  0.45033  0.69616  1.0000
  N   N128      1.0  0.76934  0.41271  0.89926  1.0000
  H   H3044     1.0  0.76031  0.45665  0.91594  1.0000
  C   C1774     1.0  0.90942  0.44818  0.68788  1.0000
  C   C1775     1.0  0.91655  0.43015  0.68309  1.0000
  H   H3045     1.0  0.95525  0.41487  0.70052  1.0000
  H   H3046     1.0  0.75302  0.41209  0.87697  1.0000
  H   H3047     1.0  0.77897  0.38455  0.91186  1.0000
  C   C1776     1.0  0.79180  0.40326  0.92462  1.0000
  C   C1777     1.0  0.96438  0.46396  0.78252  1.0000
  C   C1778     1.0  0.79755  0.40026  0.87696  1.0000
  C   C1779     1.0  0.96909  0.48403  0.78191  1.0000
  C   C1780     1.0  0.75874  0.43055  0.90567  1.0000
  H   H3048     1.0  0.96234  0.45734  0.79732  1.0000
  S   S506      1.0  0.94371  0.40487  0.66598  1.0000
  H   H3049     1.0  0.80317  0.11491  0.68710  1.0000
  H   H3050     1.0  0.98302  0.40575  0.66670  1.0000
  H   H3051     1.0  0.95524  0.24543  0.66062  1.0000
  H   H3052     1.0  0.78106  0.00707  0.66352  1.0000
  C   C1781     1.0  0.96822  0.48026  0.73739  1.0000
  C   C1782     1.0  0.96479  0.43645  0.71244  1.0000
  H   H3053     1.0  0.96461  0.43230  0.72765  1.0000
  H   H3054     1.0  0.84060  0.48574  0.86638  1.0000
  C   C1783     1.0  0.93364  0.42736  0.67194  1.0000
  H   H3055     1.0  0.80916  0.40523  0.86677  1.0000
  H   H3056     1.0  0.90486  0.45335  0.86086  1.0000
  H   H3057     1.0  0.97588  0.45519  0.77497  1.0000
  H   H3058     1.0  0.75002  0.43808  0.89492  1.0000
  H   H3059     1.0  0.76387  0.39773  0.92709  1.0000
  H   H3060     1.0  0.97099  0.33338  0.73159  1.0000
  H   H3061     1.0  0.96340  0.34920  0.84369  1.0000
  C   C1784     1.0  0.98029  0.38287  0.86123  1.0000
  H   H3062     1.0  0.84607  0.48934  0.91604  1.0000
  C   C1785     1.0  0.75637  0.40359  0.89037  1.0000
  H   H3063     1.0  0.95884  0.38315  0.74770  1.0000
  H   H3064     1.0  0.80381  0.39078  0.88837  1.0000
  C   C1786     1.0  0.97700  0.27259  0.67207  1.0000
  C   C1787     1.0  0.77551  0.39907  0.91558  1.0000
  H   H3065     1.0  0.80017  0.38978  0.92925  1.0000
  H   H3066     1.0  0.77975  0.42645  0.87210  1.0000
  C   C1788     1.0  0.82247  0.10745  0.66297  1.0000
  H   H3067     1.0  0.90870  0.41849  0.68771  1.0000
  H   H3068     1.0  0.93405  0.45587  0.87177  1.0000
  C   C1789     1.0  0.98430  0.33575  0.72372  1.0000
  H   H3069     1.0  0.84722  0.13371  0.66112  1.0000
  H   H3070     1.0  0.94668  0.27253  0.67091  1.0000
  H   H3071     1.0  0.82346  0.12631  0.68370  1.0000
  H   H3072     1.0  0.91050  0.26081  0.66729  1.0000
  C   C1790     1.0  0.97333  0.35730  0.84703  1.0000
  H   H3073     1.0  0.82938  0.09535  0.67177  1.0000
  H   H3074     1.0  0.97832  0.47861  0.72460  1.0000
  C   C1791     1.0  0.98275  0.38854  0.69464  1.0000
  C   C1792     1.0  0.93655  0.46071  0.67083  1.0000
  H   H3075     1.0  0.96146  0.37401  0.72614  1.0000
  C   C1793     1.0  0.96871  0.41984  0.70096  1.0000
  H   H3076     1.0  0.86093  0.47686  0.85211  1.0000
  H   H3077     1.0  0.80537  0.13416  0.66894  1.0000
  H   H3078     1.0  0.91243  0.45434  0.92370  1.0000
  H   H3079     1.0  0.97617  0.46268  0.67546  1.0000
  H   H3080     1.0  0.96828  0.46633  0.74584  1.0000
  H   H3081     1.0  0.98762  0.38105  0.66644  1.0000
  H   H3082     1.0  0.74876  0.00758  0.66303  1.0000
  H   H3083     1.0  0.98438  0.48251  0.78140  1.0000
  H   H3084     1.0  0.94420  0.47247  0.66596  1.0000
  C   C1794     1.0  0.97921  0.39555  0.72670  1.0000
  H   H3085     1.0  0.98261  0.25884  0.67943  1.0000
  S   S507      1.0  0.94885  0.35108  0.66254  1.0000
  C   C1795     1.0  0.98970  0.32903  0.70649  1.0000
  H   H3086     1.0  0.83737  0.49469  0.83288  1.0000
  C   C1796     1.0  0.98823  0.46987  0.66887  1.0000
  H   H3087     1.0  0.98881  0.49107  0.74903  1.0000
  H   H3088     1.0  0.98274  0.48215  0.65956  1.0000
  S   S508      1.0  0.75997  0.51513  0.09836  1.0000
  Fe  Fe252     1.0  0.79048  0.51308  0.08956  1.0000
  S   S509      1.0  0.79386  0.53918  0.10101  1.0000
  H   H3089     1.0  0.77685  0.56966  0.12599  1.0000
  Fe  Fe253     1.0  0.79915  0.51990  0.12755  1.0000
  S   S510      1.0  0.81747  0.52155  0.14993  1.0000
  C   C1797     1.0  0.96925  0.57328  0.23092  1.0000
  Fe  Fe254     1.0  0.92056  0.51910  0.17717  1.0000
  S   S511      1.0  0.90955  0.51157  0.20739  1.0000
  S   S512      1.0  0.90365  0.52381  0.15247  1.0000
  Fe  Fe255     1.0  0.96150  0.51511  0.18620  1.0000
  S   S513      1.0  0.95298  0.50759  0.21698  1.0000
  C   C1798     1.0  0.77336  0.56470  0.16412  1.0000
  H   H3090     1.0  0.79485  0.55522  0.00599  1.0000
  C   C1799     1.0  0.94133  0.57079  0.28889  1.0000
  Fe  Fe256     1.0  0.92909  0.53024  0.21308  1.0000
  S   S514      1.0  0.91982  0.55156  0.23297  1.0000
  H   H3091     1.0  0.78166  0.55062  0.16339  1.0000
  S   S515      1.0  0.93883  0.53946  0.18273  1.0000
  S   S516      1.0  0.76877  0.52264  0.13909  1.0000
  H   H3092     1.0  0.77026  0.53629  0.05982  1.0000
  S   S517      1.0  0.89606  0.52310  0.31839  1.0000
  C   C1800     1.0  0.96618  0.53689  0.25486  1.0000
  H   H3093     1.0  0.74916  0.54980  0.16986  1.0000
  H   H3094     1.0  0.75811  0.59520  0.13965  1.0000
  C   C1801     1.0  0.77286  0.51182  0.01559  1.0000
  C   C1802     1.0  0.91282  0.54289  0.25642  1.0000
  C   C1803     1.0  0.91798  0.52418  0.26372  1.0000
  C   C1804     1.0  0.91332  0.51813  0.28291  1.0000
  C   C1805     1.0  0.90298  0.53061  0.29463  1.0000
  C   C1806     1.0  0.89763  0.54917  0.28722  1.0000
  C   C1807     1.0  0.90278  0.55535  0.26825  1.0000
  H   H3095     1.0  0.92581  0.51451  0.25467  1.0000
  C   C1808     1.0  0.95806  0.57085  0.25060  1.0000
  H   H3096     1.0  0.88960  0.55883  0.29619  1.0000
  H   H3097     1.0  0.89881  0.56982  0.26269  1.0000
  H   H3098     1.0  0.96345  0.58658  0.22299  1.0000
  H   H3099     1.0  0.91756  0.50380  0.28861  1.0000
  N   N129      1.0  0.96505  0.55436  0.26407  1.0000
  C   C1809     1.0  0.84148  0.52251  0.15015  1.0000
  C   C1810     1.0  0.85383  0.52560  0.13377  1.0000
  C   C1811     1.0  0.87266  0.52650  0.13479  1.0000
  C   C1812     1.0  0.87947  0.52417  0.15215  1.0000
  C   C1813     1.0  0.86710  0.52110  0.16853  1.0000
  C   C1814     1.0  0.84824  0.52039  0.16751  1.0000
  H   H3100     1.0  0.84890  0.52737  0.12031  1.0000
  H   H3101     1.0  0.88209  0.52881  0.12202  1.0000
  H   H3102     1.0  0.87207  0.51920  0.18199  1.0000
  H   H3103     1.0  0.83883  0.51807  0.18029  1.0000
  Fe  Fe257     1.0  0.76339  0.53989  0.11178  1.0000
  C   C1815     1.0  0.78547  0.50534  0.02853  1.0000
  C   C1816     1.0  0.78456  0.51409  0.04457  1.0000
  C   C1817     1.0  0.77094  0.52932  0.04761  1.0000
  C   C1818     1.0  0.95158  0.55252  0.28190  1.0000
  H   H3104     1.0  0.81697  0.54992  0.01383  1.0000
  S   S518      1.0  0.74463  0.56767  0.10709  1.0000
  H   H3105     1.0  0.79230  0.59775  0.11238  1.0000
  H   H3106     1.0  0.95853  0.54424  0.29362  1.0000
  C   C1819     1.0  0.80047  0.58431  0.11729  1.0000
  H   H3107     1.0  0.94034  0.54452  0.28027  1.0000
  C   C1820     1.0  0.78893  0.57199  0.13239  1.0000
  C   C1821     1.0  0.98414  0.55580  0.26823  1.0000
  C   C1822     1.0  0.98631  0.57249  0.27805  1.0000
  S   S519      1.0  0.94416  0.49561  0.17774  1.0000
  Fe  Fe258     1.0  0.76769  0.49778  0.12473  1.0000
  C   C1823     1.0  0.81451  0.56786  0.16161  1.0000
  C   C1824     1.0  0.79867  0.58409  0.15898  1.0000
  H   H3108     1.0  0.77281  0.56699  0.17894  1.0000
  H   H3109     1.0  0.82521  0.57255  0.16837  1.0000
  S   S520      1.0  0.98770  0.51902  0.31180  1.0000
  H   H3110     1.0  0.96792  0.56195  0.22277  1.0000
  H   H3111     1.0  0.94360  0.56981  0.24863  1.0000
  H   H3112     1.0  0.77342  0.50480  0.00345  1.0000
  H   H3113     1.0  0.95717  0.58433  0.25619  1.0000
  H   H3114     1.0  0.80966  0.55550  0.17085  1.0000
  C   C1825     1.0  0.75853  0.53595  0.03454  1.0000
  H   H3115     1.0  0.93267  0.56717  0.30243  1.0000
  H   H3116     1.0  0.79395  0.58863  0.17301  1.0000
  H   H3117     1.0  0.95309  0.53661  0.24916  1.0000
  H   H3118     1.0  0.93159  0.57830  0.27920  1.0000
  H   H3119     1.0  0.86906  0.50216  0.30425  1.0000
  H   H3120     1.0  0.80478  0.57681  0.10486  1.0000
  H   H3121     1.0  0.95076  0.58033  0.29136  1.0000
  C   C1826     1.0  0.80871  0.54704  0.00330  1.0000
  H   H3122     1.0  0.82151  0.56353  0.14809  1.0000
  C   C1827     1.0  0.75954  0.52732  0.01843  1.0000
  S   S521      1.0  0.74427  0.53652  0.00195  1.0000
  H   H3123     1.0  0.79721  0.55791  0.13453  1.0000
  H   H3124     1.0  0.97724  0.53673  0.24264  1.0000
  H   H3125     1.0  0.80471  0.59628  0.15044  1.0000
  N   N130      1.0  0.78260  0.57956  0.15074  1.0000
  H   H3126     1.0  0.75989  0.59677  0.17792  1.0000
  H   H3127     1.0  0.95969  0.51614  0.27990  1.0000
  C   C1828     1.0  0.76945  0.59732  0.14733  1.0000
  H   H3128     1.0  0.81335  0.58693  0.12193  1.0000
  H   H3129     1.0  0.80716  0.53200  0.00628  1.0000
  H   H3130     1.0  0.96950  0.50642  0.25911  1.0000
  H   H3131     1.0  0.75259  0.56130  0.14637  1.0000
  S   S522      1.0  0.80077  0.50612  0.06041  1.0000
  H   H3132     1.0  0.74343  0.57465  0.16537  1.0000
  H   H3133     1.0  0.76925  0.61770  0.16676  1.0000
  H   H3134     1.0  0.77657  0.60818  0.13771  1.0000
  C   C1829     1.0  0.76097  0.60673  0.16486  1.0000
  C   C1830     1.0  0.97011  0.51792  0.26731  1.0000
  H   H3135     1.0  0.98402  0.57423  0.23135  1.0000
  H   H3136     1.0  0.98415  0.51581  0.27156  1.0000
  C   C1831     1.0  0.75353  0.56266  0.16108  1.0000
  H   H3137     1.0  0.97848  0.58584  0.27259  1.0000
  H   H3138     1.0  0.98231  0.56945  0.29342  1.0000
  H   H3139     1.0  0.84773  0.50767  0.31828  1.0000
  H   H3140     1.0  0.74826  0.54794  0.03683  1.0000
  C   C1832     1.0  0.85800  0.49573  0.31407  1.0000
  H   H3141     1.0  0.74661  0.61334  0.16322  1.0000
  H   H3142     1.0  0.98914  0.54322  0.27763  1.0000
  Fe  Fe259     1.0  0.91949  0.72890  0.59331  1.0000
  S   S523      1.0  0.90723  0.70288  0.59075  1.0000
  S   S524      1.0  0.90307  0.75347  0.60731  1.0000
  Fe  Fe260     1.0  0.95721  0.71452  0.57312  1.0000
  S   S525      1.0  0.94772  0.68812  0.56784  1.0000
  C   C1833     1.0  0.89961  0.57961  0.43723  1.0000
  Fe  Fe261     1.0  0.92169  0.70655  0.56118  1.0000
  S   S526      1.0  0.90608  0.70835  0.53653  1.0000
  Fe  Fe262     1.0  0.93425  0.68610  0.59792  1.0000
  S   S527      1.0  0.94243  0.65876  0.61701  1.0000
  S   S528      1.0  0.93241  0.73323  0.56351  1.0000
  S   S529      1.0  0.94519  0.71191  0.60338  1.0000
  Fe  Fe263     1.0  0.95363  0.67136  0.41867  1.0000
  S   S530      1.0  0.94287  0.64408  0.43022  1.0000
  S   S531      1.0  0.98428  0.67114  0.40967  1.0000
  Fe  Fe264     1.0  0.91522  0.69378  0.41829  1.0000
  S   S532      1.0  0.90128  0.66810  0.42946  1.0000
  S   S533      1.0  0.90037  0.72277  0.40855  1.0000
  Fe  Fe265     1.0  0.92284  0.66164  0.44905  1.0000
  S   S534      1.0  0.91466  0.64987  0.47910  1.0000
  Fe  Fe266     1.0  0.92245  0.65240  0.40971  1.0000
  S   S535      1.0  0.91423  0.63299  0.39138  1.0000
  S   S536      1.0  0.93538  0.68836  0.43929  1.0000
  S   S537      1.0  0.93455  0.67867  0.39673  1.0000
  H   H3143     1.0  0.94998  0.71199  0.40485  1.0000
  H   H3144     1.0  0.75611  0.92778  0.39844  1.0000
  H   H3145     1.0  0.82643  0.80822  0.38591  1.0000
  C   C1834     1.0  0.77339  0.93350  0.42961  1.0000
  H   H3146     1.0  0.95812  0.72822  0.43207  1.0000
  H   H3147     1.0  0.92842  0.74606  0.45181  1.0000
  C   C1835     1.0  0.79490  0.95761  0.63157  1.0000
  H   H3148     1.0  0.82486  0.79616  0.36623  1.0000
  H   H3149     1.0  0.75366  0.88852  0.57746  1.0000
  S   S538      1.0  0.94088  0.54564  0.38833  1.0000
  Fe  Fe267     1.0  0.85176  0.90215  0.58984  1.0000
  S   S539      1.0  0.82190  0.90599  0.58635  1.0000
  S   S540      1.0  0.86527  0.92676  0.59490  1.0000
  Fe  Fe268     1.0  0.85771  0.86128  0.58033  1.0000
  S   S541      1.0  0.82792  0.86274  0.57594  1.0000
  S   S542      1.0  0.87911  0.83750  0.56987  1.0000
  Fe  Fe269     1.0  0.83079  0.89167  0.56110  1.0000
  S   S543      1.0  0.81940  0.90494  0.53470  1.0000
  Fe  Fe270     1.0  0.82123  0.87708  0.60176  1.0000
  S   S544      1.0  0.79506  0.87651  0.62224  1.0000
  S   S545      1.0  0.86092  0.88954  0.56322  1.0000
  S   S546      1.0  0.85092  0.87384  0.60755  1.0000
  Fe  Fe271     1.0  0.81515  0.83684  0.47276  1.0000
  S   S547      1.0  0.84571  0.83804  0.46815  1.0000
  S   S548      1.0  0.79915  0.83710  0.50143  1.0000
  Fe  Fe272     1.0  0.81342  0.83435  0.43229  1.0000
  S   S549      1.0  0.84405  0.83478  0.42447  1.0000
  S   S550      1.0  0.79650  0.83581  0.40878  1.0000
  Fe  Fe273     1.0  0.84700  0.81458  0.45080  1.0000
  S   S551      1.0  0.86772  0.78859  0.45780  1.0000
  Fe  Fe274     1.0  0.83988  0.85815  0.44242  1.0000
  S   S552      1.0  0.85153  0.88520  0.42971  1.0000
  S   S553      1.0  0.81651  0.81233  0.45716  1.0000
  S   S554      1.0  0.80919  0.85867  0.44857  1.0000
  C   C1836     1.0  0.85329  0.94986  0.59372  1.0000
  C   C1837     1.0  0.86250  0.96487  0.59577  1.0000
  C   C1838     1.0  0.82604  0.76256  0.39102  1.0000
  C   C1839     1.0  0.92498  0.77345  0.40494  1.0000
  C   C1840     1.0  0.82580  0.97208  0.58895  1.0000
  C   C1841     1.0  0.83484  0.95361  0.59043  1.0000
  H   H3150     1.0  0.87679  0.96211  0.59834  1.0000
  C   C1842     1.0  0.80360  0.79069  0.39055  1.0000
  H   H3151     1.0  0.86853  0.59879  0.42307  1.0000
  H   H3152     1.0  0.82757  0.94232  0.58882  1.0000
  C   C1843     1.0  0.81131  0.88750  0.52530  1.0000
  C   C1844     1.0  0.81399  0.88732  0.50597  1.0000
  C   C1845     1.0  0.81001  0.87194  0.49852  1.0000
  C   C1846     1.0  0.80280  0.85703  0.51042  1.0000
  C   C1847     1.0  0.79922  0.85772  0.52969  1.0000
  C   C1848     1.0  0.80350  0.87293  0.53712  1.0000
  H   H3153     1.0  0.81969  0.89878  0.49684  1.0000
  H   H3154     1.0  0.81272  0.87159  0.48362  1.0000
  H   H3155     1.0  0.79384  0.84620  0.53897  1.0000
  H   H3156     1.0  0.80086  0.87329  0.55203  1.0000
  C   C1849     1.0  0.87087  0.62748  0.42425  1.0000
  C   C1850     1.0  0.84761  0.90698  0.43881  1.0000
  C   C1851     1.0  0.84081  0.90832  0.45759  1.0000
  S   S555      1.0  0.91742  0.50795  0.36589  1.0000
  H   H3157     1.0  0.83673  0.89602  0.46663  1.0000
  N   N131      1.0  0.81246  0.77462  0.40331  1.0000
  C   C1852     1.0  0.76536  0.82368  0.43041  1.0000
  C   C1853     1.0  0.77271  0.83376  0.41376  1.0000
  C   C1854     1.0  0.93487  0.61342  0.55815  1.0000
  H   H3158     1.0  0.98370  0.63069  0.37705  1.0000
  H   H3159     1.0  0.77416  0.81775  0.44098  1.0000
  C   C1855     1.0  0.91163  0.65291  0.57535  1.0000
  C   C1856     1.0  0.75540  0.89681  0.56340  1.0000
  C   C1857     1.0  0.85949  0.75549  0.50737  1.0000
  H   H3160     1.0  0.90984  0.58152  0.42445  1.0000
  C   C1858     1.0  0.77629  0.86873  0.61467  1.0000
  C   C1859     1.0  0.75813  0.87532  0.62190  1.0000
  H   H3161     1.0  0.79356  0.80030  0.39876  1.0000
  H   H3162     1.0  0.79313  0.85068  0.59618  1.0000
  H   H3163     1.0  0.81254  0.89073  0.40784  1.0000
  H   H3164     1.0  0.75580  0.88501  0.63213  1.0000
  C   C1860     1.0  0.77447  0.99111  0.61167  1.0000
  H   H3165     1.0  0.88102  0.56919  0.42126  1.0000
  H   H3166     1.0  0.80861  0.81599  0.37147  1.0000
  H   H3167     1.0  0.84164  0.77927  0.53224  1.0000
  C   C1861     1.0  0.74647  0.95893  0.55599  1.0000
  H   H3168     1.0  0.85816  0.92222  0.41263  1.0000
  N   N132      1.0  0.86796  0.76606  0.51958  1.0000
  H   H3169     1.0  0.82969  0.96182  0.55076  1.0000
  H   H3170     1.0  0.81600  0.94976  0.52838  1.0000
  H   H3171     1.0  0.89154  0.57432  0.47504  1.0000
  H   H3172     1.0  0.96610  0.74572  0.61516  1.0000
  H   H3173     1.0  0.84418  0.93188  0.55484  1.0000
  H   H3174     1.0  0.78163  0.81542  0.54133  1.0000
  C   C1862     1.0  0.89080  0.74055  0.42271  1.0000
  C   C1863     1.0  0.89286  0.73869  0.44166  1.0000
  C   C1864     1.0  0.88569  0.75351  0.45218  1.0000
  C   C1865     1.0  0.87617  0.77024  0.44398  1.0000
  C   C1866     1.0  0.87406  0.77208  0.42503  1.0000
  C   C1867     1.0  0.88139  0.75733  0.41446  1.0000
  H   H3175     1.0  0.90010  0.72589  0.44818  1.0000
  H   H3176     1.0  0.88755  0.75196  0.46676  1.0000
  H   H3177     1.0  0.86717  0.78502  0.41845  1.0000
  H   H3178     1.0  0.87996  0.75899  0.39974  1.0000
  C   C1868     1.0  0.92347  0.60921  0.38931  1.0000
  C   C1869     1.0  0.93667  0.59928  0.40027  1.0000
  C   C1870     1.0  0.94223  0.57994  0.39943  1.0000
  C   C1871     1.0  0.93489  0.57037  0.38746  1.0000
  C   C1872     1.0  0.92212  0.58045  0.37611  1.0000
  C   C1873     1.0  0.91638  0.59971  0.37713  1.0000
  H   H3179     1.0  0.94232  0.60638  0.40966  1.0000
  H   H3180     1.0  0.95214  0.57229  0.40826  1.0000
  H   H3181     1.0  0.91629  0.57330  0.36688  1.0000
  H   H3182     1.0  0.90618  0.60724  0.36858  1.0000
  C   C1874     1.0  0.89585  0.77651  0.59637  1.0000
  C   C1875     1.0  0.88361  0.78902  0.60683  1.0000
  C   C1876     1.0  0.87810  0.80763  0.59893  1.0000
  C   C1877     1.0  0.88496  0.81403  0.58047  1.0000
  C   C1878     1.0  0.89727  0.80153  0.57003  1.0000
  C   C1879     1.0  0.90264  0.78290  0.57788  1.0000
  H   H3183     1.0  0.87833  0.78431  0.62117  1.0000
  H   H3184     1.0  0.86868  0.81705  0.60718  1.0000
  H   H3185     1.0  0.90276  0.80633  0.55579  1.0000
  H   H3186     1.0  0.91222  0.77356  0.56971  1.0000
  C   C1880     1.0  0.93394  0.63688  0.62561  1.0000
  C   C1881     1.0  0.94581  0.62215  0.63415  1.0000
  C   C1882     1.0  0.94023  0.60423  0.64026  1.0000
  C   C1883     1.0  0.92270  0.60069  0.63770  1.0000
  C   C1884     1.0  0.91080  0.61545  0.62922  1.0000
  C   C1885     1.0  0.91625  0.63349  0.62346  1.0000
  H   H3187     1.0  0.75815  0.95792  0.54452  1.0000
  C   C1886     1.0  0.87978  0.60684  0.42454  1.0000
  H   H3188     1.0  0.89717  0.61294  0.62726  1.0000
  H   H3189     1.0  0.90678  0.64472  0.61733  1.0000
  C   C1887     1.0  0.91070  0.69066  0.52193  1.0000
  C   C1888     1.0  0.89991  0.67595  0.52530  1.0000
  C   C1889     1.0  0.90155  0.66326  0.51228  1.0000
  C   C1890     1.0  0.91352  0.66559  0.49548  1.0000
  C   C1891     1.0  0.92440  0.68027  0.49212  1.0000
  C   C1892     1.0  0.92298  0.69279  0.50533  1.0000
  H   H3190     1.0  0.88990  0.67466  0.53776  1.0000
  H   H3191     1.0  0.89305  0.65200  0.51492  1.0000
  H   H3192     1.0  0.93389  0.68198  0.47937  1.0000
  H   H3193     1.0  0.93100  0.70444  0.50242  1.0000
  H   H3194     1.0  0.86064  0.80328  0.49798  1.0000
  H   H3195     1.0  0.81482  0.79633  0.41997  1.0000
  N   N133      1.0  0.87554  0.86970  0.50544  1.0000
  C   C1893     1.0  0.88785  0.86952  0.48693  1.0000
  C   C1894     1.0  0.88754  0.86519  0.52093  1.0000
  C   C1895     1.0  0.86429  0.88866  0.50686  1.0000
  C   C1896     1.0  0.86236  0.85537  0.50698  1.0000
  C   C1897     1.0  0.87842  0.87750  0.46942  1.0000
  C   C1898     1.0  0.89939  0.84577  0.52199  1.0000
  C   C1899     1.0  0.87535  0.90546  0.50449  1.0000
  C   C1900     1.0  0.85173  0.85036  0.52666  1.0000
  H   H3196     1.0  0.89984  0.87728  0.48655  1.0000
  H   H3197     1.0  0.89408  0.85494  0.48487  1.0000
  H   H3198     1.0  0.87914  0.86624  0.53481  1.0000
  H   H3199     1.0  0.89741  0.87562  0.51954  1.0000
  H   H3200     1.0  0.85424  0.89183  0.49651  1.0000
  H   H3201     1.0  0.85563  0.88885  0.52066  1.0000
  H   H3202     1.0  0.85179  0.86024  0.49731  1.0000
  H   H3203     1.0  0.86995  0.84199  0.50260  1.0000
  H   H3204     1.0  0.88807  0.87450  0.45667  1.0000
  H   H3205     1.0  0.86580  0.87112  0.46905  1.0000
  H   H3206     1.0  0.87500  0.89296  0.46827  1.0000
  H   H3207     1.0  0.90996  0.84459  0.50955  1.0000
  H   H3208     1.0  0.90695  0.84386  0.53435  1.0000
  H   H3209     1.0  0.89090  0.83411  0.52400  1.0000
  H   H3210     1.0  0.88542  0.90629  0.49159  1.0000
  H   H3211     1.0  0.88250  0.90530  0.51685  1.0000
  H   H3212     1.0  0.86551  0.91861  0.50341  1.0000
  H   H3213     1.0  0.83833  0.84602  0.52510  1.0000
  H   H3214     1.0  0.84851  0.86204  0.53521  1.0000
  H   H3215     1.0  0.85912  0.83791  0.53450  1.0000
  H   H3216     1.0  0.86672  0.93795  0.54529  1.0000
  H   H3217     1.0  0.83834  0.80828  0.51089  1.0000
  H   H3218     1.0  0.84231  0.78965  0.49689  1.0000
  C   C1901     1.0  0.80287  0.88714  0.39905  1.0000
  Fe  Fe275     1.0  0.93832  0.52777  0.36579  1.0000
  C   C1902     1.0  0.74904  0.91790  0.56423  1.0000
  H   H3219     1.0  0.88114  0.75272  0.56457  1.0000
  H   H3220     1.0  0.86270  0.76103  0.49232  1.0000
  H   H3221     1.0  0.95246  0.79024  0.58559  1.0000
  Fe  Fe276     1.0  0.84067  0.99217  0.45389  1.0000
  C   C1903     1.0  0.78337  0.91503  0.42280  1.0000
  H   H3222     1.0  0.92617  0.61418  0.45761  1.0000
  H   H3223     1.0  0.79579  0.95607  0.61656  1.0000
  C   C1904     1.0  0.86456  0.73393  0.50926  1.0000
  H   H3224     1.0  0.89108  0.96553  0.50388  1.0000
  H   H3225     1.0  0.80268  0.75174  0.42346  1.0000
  H   H3226     1.0  0.90930  0.61763  0.43001  1.0000
  C   C1905     1.0  0.82449  0.77042  0.43572  1.0000
  H   H3227     1.0  0.98785  0.60222  0.65641  1.0000
  C   C1906     1.0  0.81690  0.80327  0.37792  1.0000
  H   H3228     1.0  0.78871  0.90597  0.43512  1.0000
  H   H3229     1.0  0.91495  0.59454  0.46823  1.0000
  H   H3230     1.0  0.79170  0.75655  0.40308  1.0000
  C   C1907     1.0  0.90277  0.61134  0.44386  1.0000
  C   C1908     1.0  0.75478  0.90115  0.42682  1.0000
  H   H3231     1.0  0.94433  0.76300  0.38255  1.0000
  H   H3232     1.0  0.77039  0.90350  0.59229  1.0000
  H   H3233     1.0  0.81119  0.77047  0.44512  1.0000
  H   H3234     1.0  0.83620  0.78542  0.40991  1.0000
  C   C1909     1.0  0.77093  0.92678  0.60644  1.0000
  H   H3235     1.0  0.78509  0.78472  0.43193  1.0000
  H   H3236     1.0  0.88126  0.63710  0.42387  1.0000
  H   H3237     1.0  0.96774  0.61867  0.59608  1.0000
  C   C1910     1.0  0.93461  0.78430  0.62286  1.0000
  H   H3238     1.0  0.90729  0.61398  0.57480  1.0000
  C   C1911     1.0  0.76720  0.81891  0.54806  1.0000
  H   H3239     1.0  0.87232  0.96206  0.49270  1.0000
  H   H3240     1.0  0.91522  0.80999  0.62241  1.0000
  H   H3241     1.0  0.94190  0.74787  0.62042  1.0000
  H   H3242     1.0  0.77120  0.78270  0.41419  1.0000
  C   C1912     1.0  0.78072  0.77476  0.42392  1.0000
  C   C1913     1.0  0.83491  0.98704  0.59117  1.0000
  H   H3243     1.0  0.78688  0.99394  0.60142  1.0000
  C   C1914     1.0  0.96457  0.61772  0.58186  1.0000
  C   C1915     1.0  0.95033  0.63941  0.52401  1.0000
  H   H3244     1.0  0.76458  0.80756  0.55978  1.0000
  H   H3245     1.0  0.86811  0.61091  0.46128  1.0000
  H   H3246     1.0  0.77865  0.92878  0.54685  1.0000
  H   H3247     1.0  0.85015  0.93458  0.53051  1.0000
  H   H3248     1.0  0.76053  0.82697  0.52015  1.0000
  S   S556      1.0  0.91545  0.57796  0.64382  1.0000
  H   H3249     1.0  0.75963  0.95618  0.58069  1.0000
  H   H3250     1.0  0.79587  0.91893  0.41323  1.0000
  H   H3251     1.0  0.78244  0.95196  0.63954  1.0000
  C   C1916     1.0  0.74668  0.82064  0.43307  1.0000
  C   C1917     1.0  0.76118  0.84141  0.40015  1.0000
  C   C1918     1.0  0.85188  0.94022  0.43432  1.0000
  C   C1919     1.0  0.79734  0.76344  0.41324  1.0000
  H   H3252     1.0  0.83396  0.77659  0.44281  1.0000
  H   H3253     1.0  0.87708  0.56199  0.44642  1.0000
  H   H3254     1.0  0.98038  0.74942  0.43303  1.0000
  H   H3255     1.0  0.78904  0.95525  0.55293  1.0000
  C   C1920     1.0  0.75147  0.94762  0.57462  1.0000
  H   H3256     1.0  0.91882  0.59122  0.57165  1.0000
  H   H3257     1.0  0.86885  0.58049  0.48546  1.0000
  H   H3258     1.0  0.97849  0.72818  0.40490  1.0000
  H   H3259     1.0  0.94960  0.59302  0.64658  1.0000
  H   H3260     1.0  0.93695  0.76643  0.43902  1.0000
  H   H3261     1.0  0.87705  0.94789  0.51451  1.0000
  C   C1921     1.0  0.76182  0.90609  0.38038  1.0000
  C   C1922     1.0  0.76217  0.91757  0.59290  1.0000
  H   H3262     1.0  0.96062  0.74753  0.58550  1.0000
  N   N134      1.0  0.77204  0.90446  0.41338  1.0000
  H   H3263     1.0  0.92300  0.77596  0.62349  1.0000
  C   C1923     1.0  0.78340  0.88593  0.41009  1.0000
  H   H3264     1.0  0.77946  0.92341  0.38845  1.0000
  H   H3265     1.0  0.75653  0.89258  0.38546  1.0000
  C   C1924     1.0  0.95420  0.75435  0.62219  1.0000
  H   H3266     1.0  0.96860  0.70860  0.38653  1.0000
  H   H3267     1.0  0.94733  0.60273  0.55693  1.0000
  H   H3268     1.0  0.78845  0.91366  0.56529  1.0000
  H   H3269     1.0  0.78364  0.94087  0.43434  1.0000
  C   C1925     1.0  0.79150  0.94305  0.56381  1.0000
  H   H3270     1.0  0.77643  0.87749  0.40261  1.0000
  H   H3271     1.0  0.78507  0.87702  0.42365  1.0000
  H   H3272     1.0  0.95148  0.74927  0.45285  1.0000
  C   C1926     1.0  0.91914  0.60270  0.45462  1.0000
  H   H3273     1.0  0.79880  0.97742  0.64890  1.0000
  H   H3274     1.0  0.75851  0.89530  0.44100  1.0000
  H   H3275     1.0  0.93833  0.81410  0.61323  1.0000
  C   C1927     1.0  0.76738  0.91628  0.39543  1.0000
  C   C1928     1.0  0.96804  0.78459  0.61636  1.0000
  H   H3276     1.0  0.75062  0.91525  0.37352  1.0000
  H   H3277     1.0  0.97875  0.76234  0.58237  1.0000
  H   H3278     1.0  0.87187  0.97947  0.52865  1.0000
  H   H3279     1.0  0.83581  0.97650  0.49757  1.0000
  N   N135      1.0  0.76104  0.92792  0.57344  1.0000
  H   H3280     1.0  0.81167  0.97475  0.58597  1.0000
  H   H3281     1.0  0.85699  0.74981  0.54514  1.0000
  H   H3282     1.0  0.78962  0.94776  0.57772  1.0000
  S   S557      1.0  0.93953  0.52451  0.65570  1.0000
  H   H3283     1.0  0.92959  0.59382  0.44599  1.0000
  C   C1929     1.0  0.84050  0.92526  0.46491  1.0000
  H   H3284     1.0  0.83623  0.92587  0.47968  1.0000
  H   H3285     1.0  0.74112  0.81235  0.44569  1.0000
  C   C1930     1.0  0.85283  0.92310  0.42717  1.0000
  H   H3286     1.0  0.97915  0.52460  0.39128  1.0000
  C   C1931     1.0  0.77921  0.85606  0.60158  1.0000
  H   H3287     1.0  0.85176  0.96650  0.55295  1.0000
  H   H3288     1.0  0.76682  0.84913  0.38719  1.0000
  N   N136      1.0  0.77835  0.99174  0.63127  1.0000
  C   C1932     1.0  0.95075  0.77588  0.59288  1.0000
  H   H3289     1.0  0.80640  0.97367  0.52006  1.0000
  C   C1933     1.0  0.85458  0.78333  0.52353  1.0000
  N   N137      1.0  0.94029  0.63226  0.55970  1.0000
  C   C1934     1.0  0.95564  0.63644  0.54405  1.0000
  C   C1935     1.0  0.94763  0.63223  0.57789  1.0000
  C   C1936     1.0  0.92417  0.64766  0.55746  1.0000
  H   H3290     1.0  0.93153  0.78589  0.40608  1.0000
  H   H3291     1.0  0.76992  0.89408  0.55677  1.0000
  H   H3292     1.0  0.94588  0.62672  0.52030  1.0000
  H   H3293     1.0  0.96184  0.60314  0.58194  1.0000
  C   C1937     1.0  0.79556  0.97812  0.63438  1.0000
  C   C1938     1.0  0.95770  0.71925  0.39233  1.0000
  H   H3294     1.0  0.85780  0.72711  0.52271  1.0000
  H   H3295     1.0  0.96692  0.79898  0.60849  1.0000
  H   H3296     1.0  0.95140  0.64631  0.57874  1.0000
  H   H3297     1.0  0.92911  0.66114  0.55070  1.0000
  H   H3298     1.0  0.91456  0.77829  0.39515  1.0000
  H   H3299     1.0  0.96140  0.64929  0.54585  1.0000
  C   C1939     1.0  0.76249  0.98588  0.64563  1.0000
  H   H3300     1.0  0.96699  0.78713  0.63118  1.0000
  C   C1940     1.0  0.96401  0.76205  0.58146  1.0000
  H   H3301     1.0  0.89674  0.55159  0.43226  1.0000
  H   H3302     1.0  0.76647  0.83922  0.58662  1.0000
  C   C1941     1.0  0.88763  0.56498  0.43420  1.0000
  H   H3303     1.0  0.90804  0.57280  0.44833  1.0000
  H   H3304     1.0  0.84668  0.74781  0.40877  1.0000
  H   H3305     1.0  0.84409  0.75766  0.51032  1.0000
  H   H3306     1.0  0.78597  0.92676  0.60218  1.0000
  C   C1942     1.0  0.74595  0.85616  0.60338  1.0000
  H   H3307     1.0  0.87972  0.74100  0.53629  1.0000
  H   H3308     1.0  0.93948  0.65151  0.52179  1.0000
  C   C1943     1.0  0.84881  0.79668  0.50619  1.0000
  H   H3309     1.0  0.85936  0.72851  0.49788  1.0000
  C   C1944     1.0  0.85191  0.94039  0.54314  1.0000
  S   S558      1.0  0.96226  0.50498  0.36113  1.0000
  H   H3310     1.0  0.74214  0.83230  0.49848  1.0000
  H   H3311     1.0  0.81898  0.75832  0.38015  1.0000
  H   H3312     1.0  0.79537  0.78546  0.38128  1.0000
  C   C1945     1.0  0.88080  0.58649  0.47671  1.0000
  H   H3313     1.0  0.93549  0.73182  0.42566  1.0000
  H   H3314     1.0  0.74564  0.91459  0.42850  1.0000
  C   C1946     1.0  0.94084  0.75130  0.44321  1.0000
  C   C1947     1.0  0.84405  0.96125  0.54329  1.0000
  H   H3315     1.0  0.86044  0.79211  0.53181  1.0000
  H   H3316     1.0  0.87957  0.72920  0.50821  1.0000
  C   C1948     1.0  0.84613  0.94128  0.45334  1.0000
  H   H3317     1.0  0.88396  0.77981  0.49530  1.0000
  H   H3318     1.0  0.75961  0.86234  0.53521  1.0000
  H   H3319     1.0  0.80256  0.89733  0.38612  1.0000
  C   C1949     1.0  0.85334  0.98342  0.59456  1.0000
  H   H3320     1.0  0.98342  0.71752  0.60131  1.0000
  C   C1950     1.0  0.88584  0.77246  0.50956  1.0000
  C   C1951     1.0  0.87465  0.59673  0.45813  1.0000
  H   H3321     1.0  0.85660  0.95230  0.42532  1.0000
  C   C1952     1.0  0.82216  0.78245  0.41663  1.0000
  N   N138      1.0  0.88933  0.59839  0.44138  1.0000
  H   H3322     1.0  0.76634  0.83231  0.55377  1.0000
  H   H3323     1.0  0.93689  0.62959  0.58993  1.0000
  C   C1953     1.0  0.87045  0.75424  0.53814  1.0000
  H   H3324     1.0  0.82681  0.73532  0.40971  1.0000
  C   C1954     1.0  0.92802  0.80435  0.61380  1.0000
  H   H3325     1.0  0.86284  0.59022  0.45521  1.0000
  H   H3326     1.0  0.92422  0.80448  0.59964  1.0000
  H   H3327     1.0  0.85979  0.62950  0.43612  1.0000
  H   H3328     1.0  0.91710  0.76842  0.41847  1.0000
  H   H3329     1.0  0.95837  0.73547  0.64768  1.0000
  H   H3330     1.0  0.89021  0.78299  0.51700  1.0000
  H   H3331     1.0  0.92608  0.60338  0.58802  1.0000
  H   H3332     1.0  0.88561  0.59637  0.48457  1.0000
  H   H3333     1.0  0.76958  0.91802  0.62035  1.0000
  C   C1955     1.0  0.95634  0.75085  0.64317  1.0000
  H   H3334     1.0  0.94844  0.72427  0.38145  1.0000
  C   C1956     1.0  0.81638  0.96131  0.51660  1.0000
  H   H3335     1.0  0.89967  0.66317  0.57134  1.0000
  C   C1957     1.0  0.92099  0.60535  0.57422  1.0000
  H   H3336     1.0  0.91473  0.76390  0.49993  1.0000
  H   H3337     1.0  0.75347  0.80547  0.53078  1.0000
  H   H3338     1.0  0.89544  0.62345  0.45091  1.0000
  S   S559      1.0  0.93865  0.53857  0.33523  1.0000
  H   H3339     1.0  0.77259  0.76500  0.43394  1.0000
  N   N139      1.0  0.95447  0.74934  0.40821  1.0000
  H   H3340     1.0  0.93019  0.74661  0.39587  1.0000
  C   C1958     1.0  0.90248  0.75715  0.50689  1.0000
  H   H3341     1.0  0.83723  0.77053  0.38328  1.0000
  C   C1959     1.0  0.83622  0.74454  0.40077  1.0000
  H   H3342     1.0  0.90625  0.74937  0.52036  1.0000
  S   S560      1.0  0.84901  0.96102  0.46373  1.0000
  C   C1960     1.0  0.96584  0.76455  0.40964  1.0000
  C   C1961     1.0  0.98703  0.69718  0.43263  1.0000
  H   H3343     1.0  0.88961  0.60610  0.41141  1.0000
  H   H3344     1.0  0.99005  0.71754  0.48674  1.0000
  H   H3345     1.0  0.80874  0.87319  0.39484  1.0000
  H   H3346     1.0  0.74809  0.91502  0.59999  1.0000
  C   C1962     1.0  0.87848  0.76339  0.55230  1.0000
  H   H3347     1.0  0.86442  0.63186  0.41119  1.0000
  C   C1963     1.0  0.96692  0.73525  0.39717  1.0000
  N   N140      1.0  0.95242  0.77460  0.61343  1.0000
  H   H3348     1.0  0.89191  0.76832  0.54641  1.0000
  H   H3349     1.0  0.86868  0.77501  0.55783  1.0000
  H   H3350     1.0  0.90019  0.74729  0.49762  1.0000
  N   N141      1.0  0.84474  0.97380  0.52480  1.0000
  H   H3351     1.0  0.76708  0.94321  0.41838  1.0000
  H   H3352     1.0  0.84445  0.95339  0.50576  1.0000
  H   H3353     1.0  0.76270  0.93090  0.44183  1.0000
  H   H3354     1.0  0.91508  0.64426  0.54793  1.0000
  Fe  Fe277     1.0  0.92010  0.51699  0.33478  1.0000
  H   H3355     1.0  0.80786  0.98295  0.62506  1.0000
  H   H3356     1.0  0.97313  0.69523  0.43894  1.0000
  C   C1964     1.0  0.76409  0.84955  0.59622  1.0000
  C   C1965     1.0  0.83616  0.96623  0.51048  1.0000
  H   H3357     1.0  0.95954  0.62456  0.63579  1.0000
  C   C1966     1.0  0.87666  0.96210  0.50661  1.0000
  H   H3358     1.0  0.81171  0.95616  0.50474  1.0000
  H   H3359     1.0  0.96219  0.76576  0.56645  1.0000
  H   H3360     1.0  0.74655  0.89148  0.55492  1.0000
  H   H3361     1.0  0.77148  0.97695  0.61010  1.0000
  H   H3362     1.0  0.90602  0.64083  0.58423  1.0000
  C   C1967     1.0  0.86435  0.97724  0.51720  1.0000
  H   H3363     1.0  0.84413  0.73621  0.38990  1.0000
  H   H3364     1.0  0.92854  0.61399  0.54515  1.0000
  C   C1968     1.0  0.77996  0.92747  0.56203  1.0000
  H   H3365     1.0  0.91906  0.65994  0.58385  1.0000
  H   H3366     1.0  0.83064  0.75577  0.43465  1.0000
  H   H3367     1.0  0.95772  0.77586  0.41711  1.0000
  H   H3368     1.0  0.96866  0.75644  0.64604  1.0000
  C   C1969     1.0  0.74296  0.86934  0.61598  1.0000
  H   H3369     1.0  0.80638  0.93764  0.56076  1.0000
  H   H3370     1.0  0.93665  0.77337  0.59112  1.0000
  H   H3371     1.0  0.97359  0.74233  0.38373  1.0000
  H   H3372     1.0  0.94375  0.75660  0.65191  1.0000
  C   C1970     1.0  0.98800  0.77554  0.61057  1.0000
  H   H3373     1.0  0.97450  0.72284  0.50650  1.0000
  H   H3374     1.0  0.75633  0.97447  0.64117  1.0000
  H   H3375     1.0  0.93569  0.78544  0.63767  1.0000
  H   H3376     1.0  0.96265  0.64260  0.51385  1.0000
  H   H3377     1.0  0.97040  0.77173  0.39542  1.0000
  H   H3378     1.0  0.74822  0.92431  0.54948  1.0000
  C   C1971     1.0  0.93879  0.75756  0.39713  1.0000
  H   H3379     1.0  0.74968  0.87380  0.42003  1.0000
  H   H3380     1.0  0.80719  0.94865  0.63666  1.0000
  C   C1972     1.0  0.94724  0.73933  0.42701  1.0000
  C   C1973     1.0  0.74236  0.83909  0.40316  1.0000
  C   C1974     1.0  0.74234  0.88795  0.42191  1.0000
  C   C1975     1.0  0.74746  0.86137  0.52828  1.0000
  C   C1976     1.0  0.75380  0.82008  0.53350  1.0000
  H   H3381     1.0  0.76384  0.94096  0.60864  1.0000
  H   H3382     1.0  0.77359  0.90399  0.36910  1.0000
  C   C1977     1.0  0.98333  0.75803  0.41933  1.0000
  C   C1978     1.0  0.98784  0.54473  0.33534  1.0000
  H   H3383     1.0  0.97713  0.62068  0.57205  1.0000
  H   H3384     1.0  0.98069  0.69866  0.50281  1.0000
  H   H3385     1.0  0.81962  0.99067  0.53584  1.0000
  H   H3386     1.0  0.75221  0.85660  0.51449  1.0000
  H   H3387     1.0  0.74070  0.87602  0.52548  1.0000
  H   H3388     1.0  0.98956  0.71827  0.44963  1.0000
  H   H3389     1.0  0.96737  0.62488  0.54421  1.0000
  C   C1979     1.0  0.98607  0.71232  0.50161  1.0000
  H   H3390     1.0  0.74263  0.97396  0.55787  1.0000
  Fe  Fe278     1.0  0.96129  0.51480  0.33071  1.0000
  H   H3391     1.0  0.97382  0.54245  0.34058  1.0000
  H   H3392     1.0  0.98914  0.77050  0.42191  1.0000
  S   S561      1.0  0.98591  0.72124  0.56069  1.0000
  H   H3393     1.0  0.87305  0.49495  0.33669  1.0000
  H   H3394     1.0  0.98846  0.56355  0.35520  1.0000
  H   H3395     1.0  0.86435  0.99039  0.50709  1.0000
  C   C1980     1.0  0.83360  0.99251  0.52816  1.0000
  H   H3396     1.0  0.98972  0.76012  0.61178  1.0000
  H   H3397     1.0  0.76772  0.97989  0.65912  1.0000
  H   H3398     1.0  0.86054  0.99483  0.59624  1.0000
  H   H3399     1.0  0.97185  0.59047  0.67231  1.0000
  S   S562      1.0  0.77325  0.50738  0.96109  1.0000
  H   H3400     1.0  0.96111  0.52874  0.75948  1.0000
  H   H3401     1.0  0.83338  0.54651  0.98318  1.0000
  Fe  Fe279     1.0  0.76803  0.52600  0.93448  1.0000
  S   S563      1.0  0.79205  0.53901  0.91556  1.0000
  C   C1981     1.0  0.81863  0.55283  0.98344  1.0000
  H   H3402     1.0  0.85883  0.56155  0.84039  1.0000
  C   C1982     1.0  0.77910  0.56865  0.97262  1.0000
  H   H3403     1.0  0.86439  0.53117  0.83513  1.0000
  H   H3404     1.0  0.82353  0.55582  0.89580  1.0000
  S   S564      1.0  0.94708  0.51238  0.69969  1.0000
  H   H3405     1.0  0.95889  0.52090  0.78392  1.0000
  Fe  Fe280     1.0  0.93492  0.54156  0.70461  1.0000
  S   S565      1.0  0.94106  0.55110  0.73079  1.0000
  C   C1983     1.0  0.84295  0.53333  0.80598  1.0000
  S   S566      1.0  0.91019  0.54102  0.69014  1.0000
  Fe  Fe281     1.0  0.90038  0.51531  0.87264  1.0000
  H   H3406     1.0  0.81468  0.50815  0.85744  1.0000
  S   S567      1.0  0.87751  0.50610  0.89600  1.0000
  Fe  Fe282     1.0  0.93821  0.52968  0.85704  1.0000
  S   S568      1.0  0.93752  0.52290  0.82814  1.0000
  S   S569      1.0  0.96318  0.54300  0.86162  1.0000
  Fe  Fe283     1.0  0.90744  0.53428  0.83230  1.0000
  S   S570      1.0  0.89089  0.54811  0.80925  1.0000
  H   H3407     1.0  0.85242  0.54339  0.80729  1.0000
  H   H3408     1.0  0.83797  0.57472  0.93245  1.0000
  S   S571      1.0  0.90829  0.54380  0.86007  1.0000
  S   S572      1.0  0.89810  0.50675  0.84500  1.0000
  C   C1984     1.0  0.92606  0.55130  0.75195  1.0000
  C   C1985     1.0  0.93259  0.55630  0.76732  1.0000
  C   C1986     1.0  0.92186  0.55520  0.78493  1.0000
  C   C1987     1.0  0.90424  0.54972  0.78712  1.0000
  C   C1988     1.0  0.89738  0.54528  0.77164  1.0000
  C   C1989     1.0  0.90841  0.54579  0.75408  1.0000
  H   H3409     1.0  0.94613  0.56081  0.76569  1.0000
  H   H3410     1.0  0.92712  0.55885  0.79677  1.0000
  H   H3411     1.0  0.88370  0.54110  0.77330  1.0000
  H   H3412     1.0  0.90328  0.54199  0.74223  1.0000
  C   C1990     1.0  0.81574  0.52949  0.91032  1.0000
  C   C1991     1.0  0.82231  0.51071  0.91598  1.0000
  C   C1992     1.0  0.84120  0.50386  0.91150  1.0000
  C   C1993     1.0  0.85378  0.51556  0.90114  1.0000
  C   C1994     1.0  0.84724  0.53436  0.89564  1.0000
  C   C1995     1.0  0.82836  0.54124  0.90015  1.0000
  H   H3413     1.0  0.95659  0.62036  0.67320  1.0000
  H   H3414     1.0  0.96802  0.58040  0.72506  1.0000
  H   H3415     1.0  0.85680  0.54368  0.88809  1.0000
  C   C1996     1.0  0.81644  0.51222  0.97802  1.0000
  C   C1997     1.0  0.96638  0.51747  0.77019  1.0000
  C   C1998     1.0  0.78985  0.54900  0.97056  1.0000
  C   C1999     1.0  0.82893  0.53028  0.82381  1.0000
  C   C2000     1.0  0.85162  0.53314  0.84523  1.0000
  H   H3416     1.0  0.91493  0.50276  0.78115  1.0000
  H   H3417     1.0  0.81291  0.52568  0.95021  1.0000
  H   H3418     1.0  0.81888  0.56824  0.98236  1.0000
  H   H3419     1.0  0.84154  0.54983  0.93490  1.0000
  H   H3420     1.0  0.95939  0.59205  0.70421  1.0000
  N   N142      1.0  0.81064  0.54805  0.96713  1.0000
  H   H3421     1.0  0.85652  0.52752  0.85888  1.0000
  C   C2001     1.0  0.80673  0.53711  0.85981  1.0000
  Fe  Fe284     1.0  0.92411  0.51248  0.68293  1.0000
  H   H3422     1.0  0.79778  0.53435  0.87338  1.0000
  C   C2002     1.0  0.97124  0.58261  0.70956  1.0000
  H   H3423     1.0  0.79758  0.53877  0.84877  1.0000
  N   N143      1.0  0.83716  0.52210  0.84145  1.0000
  C   C2003     1.0  0.81536  0.56198  0.95007  1.0000
  H   H3424     1.0  0.78475  0.54409  0.95878  1.0000
  C   C2004     1.0  0.97134  0.61996  0.67501  1.0000
  H   H3425     1.0  0.93815  0.51174  0.75444  1.0000
  H   H3426     1.0  0.83618  0.56114  0.83603  1.0000
  H   H3427     1.0  0.83532  0.53953  0.79402  1.0000
  H   H3428     1.0  0.81211  0.55042  0.85999  1.0000
  H   H3429     1.0  0.81284  0.50146  0.92385  1.0000
  H   H3430     1.0  0.82810  0.51732  0.87129  1.0000
  H   H3431     1.0  0.97217  0.56878  0.70472  1.0000
  H   H3432     1.0  0.97124  0.62323  0.68933  1.0000
  C   C2005     1.0  0.84631  0.55446  0.84548  1.0000
  H   H3433     1.0  0.97726  0.63131  0.66496  1.0000
  C   C2006     1.0  0.82207  0.52033  0.85789  1.0000
  H   H3434     1.0  0.81016  0.57659  0.95289  1.0000
  H   H3435     1.0  0.81905  0.52118  0.82100  1.0000
  S   S573      1.0  0.74869  0.50813  0.92638  1.0000
  H   H3436     1.0  0.80835  0.55979  0.93822  1.0000
  H   H3437     1.0  0.97307  0.50835  0.73753  1.0000
  H   H3438     1.0  0.98182  0.50428  0.86125  1.0000
  H   H3439     1.0  0.85109  0.52005  0.80218  1.0000
  S   S574      1.0  0.95097  0.55557  0.67900  1.0000
  H   H3440     1.0  0.97604  0.53273  0.70278  1.0000
  H   H3441     1.0  0.82045  0.54405  0.82510  1.0000
  H   H3442     1.0  0.84460  0.56205  0.95395  1.0000
  H   H3443     1.0  0.76470  0.56717  0.97923  1.0000
  C   C2007     1.0  0.83613  0.56193  0.94267  1.0000
  Fe  Fe285     1.0  0.74833  0.52440  0.97467  1.0000
  C   C2008     1.0  0.84655  0.50254  0.83871  1.0000
  H   H3444     1.0  0.85925  0.50307  0.82829  1.0000
  C   C2009     1.0  0.92948  0.50241  0.78364  1.0000
  H   H3445     1.0  0.83399  0.52789  0.95812  1.0000
  H   H3446     1.0  0.84114  0.55769  0.85987  1.0000
  H   H3447     1.0  0.86145  0.49665  0.86364  1.0000
  Fe  Fe286     1.0  0.96147  0.52629  0.67335  1.0000
  C   C2010     1.0  0.81881  0.52878  0.96240  1.0000
  H   H3448     1.0  0.82085  0.49891  0.97191  1.0000
  H   H3449     1.0  0.98727  0.53455  0.77296  1.0000
  S   S575      1.0  0.93034  0.50197  0.87195  1.0000
  S   S576      1.0  0.74424  0.54466  0.94871  1.0000
  C   C2011     1.0  0.98676  0.53262  0.86147  1.0000
  H   H3450     1.0  0.78535  0.57646  0.98141  1.0000
  H   H3451     1.0  0.93020  0.51577  0.78875  1.0000
  H   H3452     1.0  0.78519  0.53942  0.98315  1.0000
  H   H3453     1.0  0.80195  0.51184  0.98450  1.0000
  H   H3454     1.0  0.77814  0.57709  0.95869  1.0000
  Fe  Fe287     1.0  0.92816  0.49618  0.84310  1.0000
  C   C2012     1.0  0.94241  0.49993  0.76523  1.0000
  C   C2013     1.0  0.98677  0.51994  0.77049  1.0000
  N   N144      1.0  0.96285  0.49859  0.76631  1.0000
  H   H3455     1.0  0.82552  0.51216  0.98884  1.0000
  C   C2014     1.0  0.98201  0.60056  0.67146  1.0000
  H   H3456     1.0  0.98751  0.60481  0.70954  1.0000
  Fe  Fe288     1.0  0.92744  0.55319  0.66390  1.0000
  C   C2015     1.0  0.98953  0.59108  0.70408  1.0000
  C   C2016     1.0  0.97387  0.49515  0.74763  1.0000
