data_image0
_chemical_formula_structural       H5SH4NHCHCHC3H2CH2C2H2CH6CH2CHCNHCHCH3C2SCH2CHCHSHCH2CH3CHSHCHC5HCHCH3CH3S2HCHCFeS2FeS2C2S2HFeS2FeSHSHSHFeSH2CSFeSFeS2HSHFeSFeS3CHCFeS2FeS2FeSFeS3CS2FeSFeSC6H6C4FeCH3C6H4C3H2CHC4H5C3H7C7H5CH4CH3C6HCH2C6H2SNC8H20CHNC4HCFeH5CHCHC4H2C2H9CH6CH5CH4CFeH7CH2CH2CHCFeH2NH3CH2CSH3CHCH2CNC2HCH4C2HNC8H17CH2CH3CH3CH2CSC2H5Fe2HCHC2SCH7NH2CHFe2HNH5CH2SN2H4CHCH2CH6C3HFeCSCHSH6NH5CH2C4HCH4C3HCSH7CFeH5CHCH2CFeC2H2CH3NHC2HSH2C2HSHFeSH3CHCH7C2HCFeSH2FeS2FeSC2FeC3HCH5C3H2CHCHC2H4CH2C2FeH2CSC3H2CH8CNHFeC2SH2SH10CNCH4CH2CH2C3H4CHC4H2CH2CHSH2CSFeHSHS3H3SCH2FeS2FeS2FeSFeS3FeSHFeSHFeSFeS3FeS2FeCFeCFeS3H2FeHC7H4C6H4CHSH5C6H2CHCHC3HC7H4CHCH2C6H4CH2C3H6C2H3NHCNCHCH3SH3NHCSH2C3HC2HNC8H22SCH8CNC2H3C2NH7CH2C3H2CH3C2HC2H2SH6CHNC4HC2H9CH2CH6CHC2SHCH2NHCHCNH5NHC2HCH2SCH2CH8CHC2H7CH2CHCSHCH2CH2C2H7CH5C2H3C2HCH3SCH2CHCH7C2HCSH4CH6FeSHFeS2Fe2S5FeS2FeSCFeSFeS3FeS2H3FeS2FeS2FeS2FeSFeS3H2C6H6CHC6H4C6NH3C6H3C6H5C4HCNC5H15C2H2NC5HC2H11CH4C2H2FeCH2C2H4C2HSHCHCHNC8H24NH3C4H2C3H3FeHCHCSCHC2HCH3C4H2SH6CH5C4HCHCH2CH3CHCHCH9CHNH4NH2C2H6CHCH7C3H4C2HC2H2C2H3CH5CH3CH3NHSHC2H2C3H5C2H4C2H4CHNCH4CHCSH2CHCH2SH3CH5CHSHCH4CHCHCNH3CHCFeS2FeHSHFeS2FeS2FeSFeS3FeSCFeS2FeHFeSHS2HFeH2CH5CH2SH2CH2C3SHC2H3C6H4C6HCH2C6H4CSH3NH14C6H5C2HCSH3NH2C3HC2H3CHCH2CH3SHCH3CH7C2HSHCSHC2H2CFeH3NC2H3CHNC2H7CH2C2H5CHCH3NSHCFeH5NH3CH2SH3CH3SH4FeCH2CH2CH5CH3C2H2CHC2HCHCHCH3SCH3CSC2H2CH3C2H5CHSCHC2FeC2H3SHNFeS2FeS2FeSFeS3FeS2FeS2FeSFeS3FeS2H4FeSHSFeS2FeS2FeSFeS3H2C7H4C6H4C6H4C6H4C6H4NHCHCHC3HNC6H4C4H4C4H5NCSH3SHC3H3C2H8CH3CHCHCH2CNC8H20NC8H21CH6C2H3SFeH5C2H2CHN2C2HNH3CHCHC2H3CH4CSH3C2HC2HC3H11CFeH2CHC2H3C2H2CHC2H5CHCH7CH2C2H3C3H3CHCHFeCHCHCHCHC5HCH4C4H2C2HCH6SCH12C2H9C2H3FeH2SHCH4CHSHCFeS2FeS2FeSHFeS2Fe2S3FeS2FeS2FeSFeS3CH2FeS2FeSHSFeS2FeSCFeSFeS3H7C7H4CH9C6H4C2H3C2H2SHC2H2C2H3C6H8C6H4C6H4SH6CH5C3HCHCH2CHCH2CH2NC8H21C2H2CHCH8C2H2CHCHCH3FeH6C2HCH2CN2HCH2FeSCHNH2CHCS2CHCHCHCHCNHNSCHCH4NC2HCH5C2H3C2H2CHCHCHC2H2CH4CH6CH2CHC2H3FeSHFeS2FeS2FeHFeS3FeS2FeS2FeSFeS3CH2CH3NH2SH2CFeSHSC2HCH2C7H4C6H4C6H4SCH3SC7H4SCH2FeC3H4C2H2CHCH3C2H2CHCHCS2H6SC2H2CH8CH2CFeCH2SH2CH2CNH2SH3CHCHC2H2CH2FeC3H5NH2CHCH4NH6NSNH4CH2CH3C3HCH3C2H5CH6CFeH5CHC3H4CH8C2HCHFeH3C2H2C2H4CH2NHCH2C4H2CHFeH3NSHFeS2FeS2FeSFeS3FeS2FeS2FeSFeS3CFeS2HFeSHSC6HCHC6H4C6H4C6H4C2NCH6C4SH4NSHC2HCH2C3HCH4C3H2CH3C2HNC8H21SH2SCSHCH4C2NH3NCH2C4H2C2H2CH2FeSH3CH2SHCHNCHC5H8CH8CHNC8H15CFe2C2SHCH2CH3CH2CH2C2H2CH5C2H3C3H6SH2FeH3SCSH2CSFeS2FeSFeHSHFeS2FeSHFeSFeS3FeS3CFeS3CFeS2CFeSHSH3SCHCHSH2C6H6NH2C6H5C6H5C6H2CHC6H4C6HNC8H22SHFeCH5SH6CH4FeH2CH2CHCH3CHCH5CNCSHCHC3H9FeNC6H12NCHSHC3H5CNH4CH14C2H6CH2CHC2H2C3H2SNCH4C4HFeH3C2H6FeH2FeH2C3HCH2CSCH3CNH6CH3CH4C3HCH2SCH2CHC2NH2C2H5NCHC2H2CH3CH2CHC2HFeHCHC4H6CSCFeS2FeS2FeSFeS3FeHSFeHSH2FeHS2FeS2CHFeS2C2FeS2FeS2CSCSNC6H7C7SCSH2C6H4C6H4C6H4FeC3H5C2H7C2H2C2HCNH3CH5SH4CHFeHCHSCFeH3C3SC2H2CFeH2SHCH4CH3CHCHCFeHC2H2CH4CHCHC2H2CNC8H20NHCH4C5H5CH2CH8NC8H13NH6SH5CH6SCHCSC2H2CH2SH4NH4CH4NCH3C3H3CH5CHFeS2FeS2FeSFeS3C2HCHSCFeS2FeS2FeSFeS3H2C4FeS2FeS2FeSFeS3FeS2H3C6H4C2HC3H4C6H4C6H4C4H4C2H2SH2C7H4C6H4C6H4C6H2SHC2H2C2HFeH5C2H3CHCHCHC2HCH4CH4CH2C2HC2HFeHCH4C2HNH7C4HCSH3CH6NH2NC3H10C2HC2H3CHCHC4HCNH7C2H10CH7CH3CH5CH4C2HCH2CNHC2HCH2C2H2CH3SCSCH3NH3CSC2H2CH2SNH4C2HCHCH3CH2CH5NH10SH3CH4C2H4CH2CH4CH2NCHCH6C6HCH4SHCH7CH2SH5CH2CH2CSH4CFeCHC2H2NHSH2CHCHCSH3NHCH7Fe2S2FeS2FeS2FeSCFeSFeS3FeS2FeS2FeSFeHS2NCHFeS2FeS2CHCHCSH3CH6C8H4SC2HCHC6H3C4H2CH2C8H4C6H4C6H5C5H5NC8H21C2H6CH2SHFeH4CHC2HCH4CHCNH3CH2NH9FeH2CH2C2H3C3H2CH3CH7CH2C2HCNHCSH3CH2FeNC8H20SH3CH3CHCH4NCHCH2C3HCHCH2C2H3NH2SHCHSHC2HCH3SHS2H2SCFeH2CH2SH3CSH4CH4FeSFeH2FeSC2SCSH3CSFeS2FeS2FeSFeS3FeSCH5FeSH5C6H4C2H2CHC5H2FeCHCSCH3C3HCHC7H4CHSC2H3C3H9CHCH6C2H4NHCHCHCH6CFeCHCNC8H21SHC2H6NC5HCH2SH2CH5C4H7CH2FeSH4NH4C2H3CH3CHSHFeSFeS2FeSFeS3HFeSHFeS2FeSFeS3H3CSHCSHFeCFeSH4SFeS2C6H5CFeSHSHCHC3H2C3SHCH2CHC6H4CFeS2HCHCHC6H4C5H3CH3C2H2CH2CHSHC4NH3CH2FeCHCSNC4HC3H7CH6NH7CHC3HCHCH3CH2CHCHCHFeCH7C3HCH2SC2H2NHSHC2H4CNCHC4H5SH2CH7FeHCSH4CHCH4CH4CHCH5C2H6CHCHCH2C2HCH4NH2FeNHN2CSFeSFeS2Fe2S2HNFeS2FeSHSHCSHSFeSFeS2FeS2FeSFeS3HSCHCSCFeC6H4C6H4C6H4CHC2HC6H4C6H3C7H4C6H4CSCH9SHC2H13SHNC8H20CH4SCSH5FeHNC4HC2H4FeCHCH2SH21NC8H20CSH2NHSH2Fe2HCHCH3SC2H2CHCNC8H20CH2CH4CFeCH3C2H2CHSC2NHFeH2CSH3FeH7CHSCH2SHCHC2HCH2SC2NHCH2CS2H3FeSCSCHS2C4H2SHSHCHCHCFeC2H2CH2C6NH3C2H2CSH2C4H3SHC7H8CH8CH2NCH5CHCHCSCH3SCH4CFeCNHCHCH3C2H2SHCHC2HFeC3H2CHNHFeCH2C3FeH5FeCHCH3SH6FeH2CSHSCH3SHSH2FeS2FeS2FeSFeS4FeS2H3FeS2H4CSHS2CH5CNHC2H7C2H2CHC7H5C6H4C6H2CHC6H4C6H3SCH6CH2CH10CH3C2HSH3CH3NCHCHCSHNC2HC2H3CH3C2H2FeHC2H2CH2CH5CH2CH2CH3CHC2H3CH2CHCH2CH3CNSH12SFeH4CNFeH5C2HCH2C2H3CHCH2SHSCH3SCH2CH3Fe2HC2NCHCH3FeCHFeHCNCHCH4CH2CHCH2CSHSHSHFeSFeH2SHFeS2FeSHCSCHFeHSHS2HCHC6H5CHC6H5CHCHCSCSHCFeCH2SH2C8H3C2HFeC2H2CSH4CH8SHCH2CH5NC3H2CH2CFeNH5SCHCHCH6C2H4C2H2NH2CH3CHCH
_chemical_formula_sum              "H3456 S576 N144 C2016 Fe288"
_cell_length_a       71.2451
_cell_length_b       71.2072
_cell_length_c       71.259
_cell_angle_alpha    78.6582
_cell_angle_beta     78.5212
_cell_angle_gamma    78.7181

_space_group_name_H-M_alt    "P 1"
_space_group_IT_number       1

loop_
  _space_group_symop_operation_xyz
  'x, y, z'

loop_
  _atom_site_type_symbol
  _atom_site_label
  _atom_site_symmetry_multiplicity
  _atom_site_fract_x
  _atom_site_fract_y
  _atom_site_fract_z
  _atom_site_occupancy
  H   H1        1.0  0.46201  0.03262  0.58815  1.0000
  H   H2        1.0  0.24347  0.18951  0.61854  1.0000
  H   H3        1.0  0.24326  0.18070  0.64347  1.0000
  H   H4        1.0  0.24624  0.21538  0.63495  1.0000
  H   H5        1.0  0.48136  0.07477  0.59522  1.0000
  S   S1        1.0  0.47378  0.07353  0.64129  1.0000
  H   H6        1.0  0.34935  0.01216  0.55183  1.0000
  H   H7        1.0  0.19400  0.17104  0.60832  1.0000
  H   H8        1.0  0.48771  0.03854  0.61771  1.0000
  H   H9        1.0  0.34617  0.13412  0.62621  1.0000
  N   N1        1.0  0.21571  0.18249  0.63402  1.0000
  H   H10       1.0  0.36470  0.00615  0.56982  1.0000
  C   C1        1.0  0.34943  0.01132  0.56751  1.0000
  H   H11       1.0  0.27730  0.01680  0.59819  1.0000
  C   C2        1.0  0.47135  0.01917  0.58427  1.0000
  H   H12       1.0  0.42476  0.15548  0.63587  1.0000
  C   C3        1.0  0.29526  0.03464  0.63832  1.0000
  C   C4        1.0  0.43082  0.00048  0.62851  1.0000
  C   C5        1.0  0.23406  0.15593  0.61387  1.0000
  H   H13       1.0  0.22369  0.22165  0.62608  1.0000
  H   H14       1.0  0.29734  0.00390  0.55622  1.0000
  C   C6        1.0  0.15995  0.13714  0.63527  1.0000
  H   H15       1.0  0.32637  0.98888  0.53146  1.0000
  H   H16       1.0  0.28069  0.04128  0.58953  1.0000
  C   C7        1.0  0.43471  0.01962  0.62537  1.0000
  C   C8        1.0  0.28480  0.02635  0.58596  1.0000
  H   H17       1.0  0.42737  0.03063  0.61530  1.0000
  H   H18       1.0  0.18185  0.19519  0.60196  1.0000
  C   C9        1.0  0.20548  0.19386  0.61766  1.0000
  H   H19       1.0  0.21581  0.19622  0.60383  1.0000
  H   H20       1.0  0.33421  0.16709  0.63890  1.0000
  H   H21       1.0  0.31788  0.01494  0.54759  1.0000
  H   H22       1.0  0.27923  0.02656  0.57245  1.0000
  H   H23       1.0  0.35280  0.16626  0.61802  1.0000
  H   H24       1.0  0.30120  0.98967  0.60650  1.0000
  C   C10       1.0  0.17485  0.12111  0.63500  1.0000
  H   H25       1.0  0.47540  0.02022  0.56830  1.0000
  H   H26       1.0  0.31616  0.13383  0.63673  1.0000
  C   C11       1.0  0.35283  0.13835  0.63715  1.0000
  H   H27       1.0  0.34196  0.10426  0.63043  1.0000
  C   C12       1.0  0.31302  0.00183  0.55720  1.0000
  N   N2        1.0  0.31555  0.00099  0.57788  1.0000
  H   H28       1.0  0.24958  0.15369  0.61549  1.0000
  C   C13       1.0  0.45793  0.01049  0.64785  1.0000
  H   H29       1.0  0.46383  0.05879  0.60338  1.0000
  C   C14       1.0  0.44797  0.02465  0.63514  1.0000
  H   H30       1.0  0.23182  0.16694  0.60089  1.0000
  H   H31       1.0  0.33774  0.99679  0.59566  1.0000
  H   H32       1.0  0.23075  0.14232  0.61080  1.0000
  C   C15       1.0  0.33384  0.01598  0.63112  1.0000
  C   C16       1.0  0.23423  0.19011  0.63305  1.0000
  S   S2        1.0  0.20625  0.09680  0.64672  1.0000
  C   C17       1.0  0.31875  0.00506  0.63559  1.0000
  H   H33       1.0  0.46218  0.00756  0.58914  1.0000
  H   H34       1.0  0.31312  0.03248  0.57273  1.0000
  C   C18       1.0  0.33660  0.99694  0.58026  1.0000
  H   H35       1.0  0.48338  0.00968  0.61033  1.0000
  C   C19       1.0  0.18878  0.18512  0.61358  1.0000
  H   H36       1.0  0.47715  0.06065  0.57920  1.0000
  S   S3        1.0  0.30549  0.07063  0.63500  1.0000
  H   H37       1.0  0.17722  0.18333  0.62644  1.0000
  C   C20       1.0  0.22074  0.16119  0.63266  1.0000
  H   H38       1.0  0.14999  0.13980  0.62503  1.0000
  H   H39       1.0  0.44834  0.12666  0.64695  1.0000
  C   C21       1.0  0.30711  0.02068  0.58357  1.0000
  H   H40       1.0  0.17622  0.11152  0.62458  1.0000
  H   H41       1.0  0.34877  0.00883  0.62844  1.0000
  H   H42       1.0  0.31124  0.02180  0.59754  1.0000
  C   C22       1.0  0.34943  0.16076  0.63382  1.0000
  H   H43       1.0  0.45055  0.03945  0.63275  1.0000
  S   S4        1.0  0.25739  0.10955  0.64322  1.0000
  H   H44       1.0  0.19901  0.20878  0.62061  1.0000
  C   C23       1.0  0.33901  0.09852  0.64614  1.0000
  H   H45       1.0  0.34134  0.04459  0.62726  1.0000
  C   C24       1.0  0.44039  0.98644  0.64164  1.0000
  C   C25       1.0  0.32961  0.03622  0.63043  1.0000
  C   C26       1.0  0.23168  0.21122  0.63666  1.0000
  C   C27       1.0  0.18795  0.11741  0.64801  1.0000
  C   C28       1.0  0.31033  0.04554  0.63435  1.0000
  H   H46       1.0  0.34530  0.02599  0.57164  1.0000
  C   C29       1.0  0.29947  0.01445  0.63895  1.0000
  H   H47       1.0  0.36869  0.13346  0.63275  1.0000
  C   C30       1.0  0.47830  0.06023  0.59446  1.0000
  H   H48       1.0  0.28774  0.00607  0.64224  1.0000
  H   H49       1.0  0.20754  0.15431  0.63498  1.0000
  H   H50       1.0  0.35930  0.16639  0.64076  1.0000
  C   C31       1.0  0.48920  0.01338  0.59460  1.0000
  H   H51       1.0  0.28036  0.04174  0.64098  1.0000
  H   H52       1.0  0.34397  0.08258  0.64756  1.0000
  H   H53       1.0  0.22851  0.15310  0.64465  1.0000
  S   S5        1.0  0.13861  0.16959  0.64780  1.0000
  S   S6        1.0  0.41513  0.99464  0.61458  1.0000
  H   H54       1.0  0.29038  0.98641  0.58725  1.0000
  C   C32       1.0  0.30466  0.98609  0.59152  1.0000
  H   H55       1.0  0.30300  0.15365  0.64855  1.0000
  C   C33       1.0  0.15775  0.14965  0.64869  1.0000
  Fe  Fe1       1.0  0.01711  0.11740  0.85217  1.0000
  S   S7        1.0  0.00721  0.09977  0.88111  1.0000
  S   S8        1.0  0.04395  0.13256  0.84450  1.0000
  Fe  Fe2       1.0  0.00904  0.07570  0.86405  1.0000
  S   S9        1.0  0.02313  0.04498  0.87523  1.0000
  S   S10       1.0  0.02023  0.09272  0.83556  1.0000
  C   C34       1.0  0.46918  0.15679  0.67712  1.0000
  C   C35       1.0  0.31876  0.00290  0.68891  1.0000
  S   S11       1.0  0.13716  0.19299  0.73420  1.0000
  S   S12       1.0  0.10996  0.19972  0.68914  1.0000
  H   H56       1.0  0.09087  0.17054  0.81119  1.0000
  Fe  Fe3       1.0  0.10554  0.20956  0.85520  1.0000
  S   S13       1.0  0.11392  0.20639  0.82403  1.0000
  S   S14       1.0  0.07698  0.19928  0.87058  1.0000
  Fe  Fe4       1.0  0.14380  0.19584  0.83052  1.0000
  S   S15       1.0  0.16157  0.17219  0.81489  1.0000
  H   H57       1.0  0.37415  0.12941  0.66464  1.0000
  S   S16       1.0  0.13543  0.19691  0.86238  1.0000
  H   H58       1.0  0.11174  0.23051  0.73216  1.0000
  S   S17       1.0  0.45007  0.10348  0.68557  1.0000
  H   H59       1.0  0.03947  0.18673  0.88065  1.0000
  Fe  Fe5       1.0  0.36595  0.18966  0.67750  1.0000
  S   S18       1.0  0.36344  0.18030  0.70969  1.0000
  H   H60       1.0  0.20281  0.15902  0.74217  1.0000
  H   H61       1.0  0.00427  0.16349  0.95602  1.0000
  C   C36       1.0  0.42178  0.23143  0.90806  1.0000
  S   S19       1.0  0.17165  0.99640  0.86108  1.0000
  Fe  Fe6       1.0  0.33232  0.18007  0.70875  1.0000
  S   S20       1.0  0.31823  0.15488  0.72513  1.0000
  Fe  Fe7       1.0  0.39504  0.19569  0.82210  1.0000
  S   S21       1.0  0.39153  0.17943  0.85273  1.0000
  S   S22       1.0  0.41039  0.18325  0.79547  1.0000
  H   H62       1.0  0.07289  0.20477  0.73864  1.0000
  S   S23       1.0  0.35955  0.21649  0.86373  1.0000
  H   H63       1.0  0.01665  0.99814  0.82535  1.0000
  Fe  Fe8       1.0  0.39213  0.20883  0.86058  1.0000
  S   S24       1.0  0.40654  0.21495  0.88433  1.0000
  Fe  Fe9       1.0  0.35933  0.18894  0.85260  1.0000
  S   S25       1.0  0.33217  0.17412  0.86178  1.0000
  S   S26       1.0  0.39790  0.22402  0.82982  1.0000
  S   S27       1.0  0.36324  0.20376  0.82174  1.0000
  C   C37       1.0  0.17620  0.13360  0.75918  1.0000
  H   H64       1.0  0.21683  0.15130  0.70841  1.0000
  C   C38       1.0  0.22209  0.14295  0.72169  1.0000
  Fe  Fe10      1.0  0.25426  0.06025  0.84165  1.0000
  S   S28       1.0  0.22985  0.08303  0.83259  1.0000
  S   S29       1.0  0.25238  0.02846  0.84201  1.0000
  Fe  Fe11      1.0  0.27997  0.09128  0.84203  1.0000
  S   S30       1.0  0.25691  0.11587  0.83351  1.0000
  S   S31       1.0  0.31035  0.09814  0.84103  1.0000
  Fe  Fe12      1.0  0.23618  0.09864  0.85448  1.0000
  S   S32       1.0  0.21043  0.11399  0.87236  1.0000
  Fe  Fe13      1.0  0.25272  0.09802  0.81261  1.0000
  S   S33       1.0  0.24977  0.11327  0.78250  1.0000
  S   S34       1.0  0.25946  0.07496  0.86518  1.0000
  S   S35       1.0  0.27701  0.07418  0.81952  1.0000
  C   C39       1.0  0.28044  0.13413  0.70246  1.0000
  S   S36       1.0  0.23211  0.10352  0.68780  1.0000
  S   S37       1.0  0.27984  0.09133  0.68023  1.0000
  Fe  Fe14      1.0  0.25408  0.07672  0.69352  1.0000
  S   S38       1.0  0.25405  0.05783  0.72278  1.0000
  Fe  Fe15      1.0  0.25775  0.11722  0.67209  1.0000
  S   S39       1.0  0.25270  0.06545  0.66670  1.0000
  C   C40       1.0  0.25293  0.09725  0.76609  1.0000
  C   C41       1.0  0.25384  0.07726  0.77244  1.0000
  C   C42       1.0  0.25496  0.06489  0.75901  1.0000
  C   C43       1.0  0.25500  0.07260  0.73937  1.0000
  C   C44       1.0  0.25504  0.09242  0.73303  1.0000
  C   C45       1.0  0.25415  0.10472  0.74634  1.0000
  H   H65       1.0  0.25337  0.07143  0.78771  1.0000
  H   H66       1.0  0.25550  0.04948  0.76383  1.0000
  H   H67       1.0  0.25525  0.09839  0.71791  1.0000
  H   H68       1.0  0.25403  0.12011  0.74140  1.0000
  H   H69       1.0  0.00608  0.04808  0.77826  1.0000
  H   H70       1.0  0.31907  0.16648  0.77780  1.0000
  C   C46       1.0  0.19566  0.02210  0.86152  1.0000
  C   C47       1.0  0.21321  0.02957  0.85737  1.0000
  C   C48       1.0  0.23030  0.01880  0.84897  1.0000
  C   C49       1.0  0.22956  0.00041  0.84487  1.0000
  Fe  Fe16      1.0  0.32744  0.21827  0.68105  1.0000
  C   C50       1.0  0.44603  0.14923  0.71580  1.0000
  H   H71       1.0  0.21354  0.04367  0.86073  1.0000
  H   H72       1.0  0.01251  0.12796  0.91503  1.0000
  H   H73       1.0  0.20313  0.21223  0.87205  1.0000
  C   C51       1.0  0.32656  0.15278  0.85596  1.0000
  C   C52       1.0  0.30705  0.14995  0.85950  1.0000
  C   C53       1.0  0.30180  0.13352  0.85479  1.0000
  C   C54       1.0  0.31608  0.11938  0.84690  1.0000
  C   C55       1.0  0.33561  0.12211  0.84352  1.0000
  C   C56       1.0  0.34081  0.13875  0.84787  1.0000
  H   H74       1.0  0.29590  0.16057  0.86596  1.0000
  H   H75       1.0  0.28676  0.13157  0.85767  1.0000
  H   H76       1.0  0.34683  0.11122  0.83761  1.0000
  H   H77       1.0  0.35590  0.14056  0.84528  1.0000
  C   C57       1.0  0.29984  0.15344  0.71271  1.0000
  C   C58       1.0  0.29224  0.16975  0.70038  1.0000
  C   C59       1.0  0.27892  0.16821  0.68894  1.0000
  H   H78       1.0  0.29670  0.18361  0.69953  1.0000
  H   H79       1.0  0.41291  0.16841  0.70359  1.0000
  C   C60       1.0  0.37565  0.21606  0.74841  1.0000
  H   H80       1.0  0.28927  0.04595  0.69561  1.0000
  C   C61       1.0  0.38961  0.21548  0.77697  1.0000
  C   C62       1.0  0.39796  0.19604  0.77673  1.0000
  C   C63       1.0  0.39536  0.18664  0.76216  1.0000
  C   C64       1.0  0.38414  0.19665  0.74804  1.0000
  H   H81       1.0  0.27569  0.02058  0.71549  1.0000
  H   H82       1.0  0.39165  0.22288  0.78811  1.0000
  H   H83       1.0  0.40155  0.17151  0.76215  1.0000
  H   H84       1.0  0.38186  0.18928  0.73708  1.0000
  H   H85       1.0  0.30173  0.03688  0.67440  1.0000
  C   C65       1.0  0.40251  0.14483  0.68258  1.0000
  C   C66       1.0  0.41585  0.12862  0.68882  1.0000
  C   C67       1.0  0.43255  0.12211  0.67610  1.0000
  H   H86       1.0  0.09927  0.20741  0.78438  1.0000
  H   H87       1.0  0.38996  0.14989  0.69261  1.0000
  H   H88       1.0  0.41348  0.12134  0.70372  1.0000
  H   H89       1.0  0.18036  0.15971  0.76941  1.0000
  H   H90       1.0  0.05953  0.15308  0.80386  1.0000
  H   H91       1.0  0.09051  0.15645  0.79328  1.0000
  H   H92       1.0  0.45765  0.17604  0.74061  1.0000
  C   C68       1.0  0.31912  0.04973  0.68837  1.0000
  C   C69       1.0  0.17355  0.15399  0.83067  1.0000
  C   C70       1.0  0.16585  0.15017  0.85044  1.0000
  C   C71       1.0  0.17694  0.13735  0.86329  1.0000
  C   C72       1.0  0.19556  0.12824  0.85628  1.0000
  C   C73       1.0  0.20273  0.13138  0.83636  1.0000
  C   C74       1.0  0.19174  0.14418  0.82357  1.0000
  H   H93       1.0  0.15157  0.15739  0.85589  1.0000
  H   H94       1.0  0.17123  0.13478  0.87866  1.0000
  H   H95       1.0  0.21701  0.12444  0.83075  1.0000
  H   H96       1.0  0.19769  0.14704  0.80828  1.0000
  H   H97       1.0  0.29941  0.12305  0.72359  1.0000
  C   C75       1.0  0.27328  0.15031  0.68971  1.0000
  H   H98       1.0  0.31966  0.12558  0.67827  1.0000
  H   H99       1.0  0.36574  0.10183  0.65399  1.0000
  H   H100      1.0  0.14663  0.14670  0.73760  1.0000
  H   H101      1.0  0.02612  0.16079  0.87104  1.0000
  C   C76       1.0  0.14076  0.20786  0.76517  1.0000
  H   H102      1.0  0.32316  0.10046  0.65156  1.0000
  H   H103      1.0  0.15083  0.19469  0.76854  1.0000
  H   H104      1.0  0.04090  0.00219  0.82305  1.0000
  C   C77       1.0  0.04361  0.03105  0.86294  1.0000
  C   C78       1.0  0.05189  0.01318  0.87279  1.0000
  C   C79       1.0  0.06825  0.00168  0.86362  1.0000
  C   C80       1.0  0.07623  0.00773  0.84430  1.0000
  C   C81       1.0  0.06781  0.02551  0.83436  1.0000
  C   C82       1.0  0.05176  0.03725  0.84369  1.0000
  H   H105      1.0  0.04565  0.00822  0.88766  1.0000
  C   C83       1.0  0.35507  0.12385  0.69194  1.0000
  H   H106      1.0  0.07385  0.03028  0.81940  1.0000
  H   H107      1.0  0.04561  0.05098  0.83596  1.0000
  C   C84       1.0  0.05265  0.15071  0.85292  1.0000
  C   C85       1.0  0.07200  0.15346  0.84603  1.0000
  C   C86       1.0  0.07956  0.16820  0.85130  1.0000
  C   C87       1.0  0.06789  0.18042  0.86370  1.0000
  C   C88       1.0  0.04861  0.17745  0.87096  1.0000
  C   C89       1.0  0.04099  0.16271  0.86558  1.0000
  H   H108      1.0  0.08125  0.14401  0.83657  1.0000
  H   H109      1.0  0.09453  0.16998  0.84596  1.0000
  S   S40       1.0  0.33531  0.18720  0.67639  1.0000
  N   N3        1.0  0.20340  0.03847  0.79226  1.0000
  C   C90       1.0  0.22230  0.03671  0.79952  1.0000
  C   C91       1.0  0.19089  0.05695  0.79771  1.0000
  C   C92       1.0  0.20811  0.04033  0.77044  1.0000
  C   C93       1.0  0.19448  0.02051  0.80122  1.0000
  C   C94       1.0  0.23787  0.01900  0.79515  1.0000
  C   C95       1.0  0.18562  0.05774  0.81966  1.0000
  C   C96       1.0  0.19090  0.04305  0.75956  1.0000
  C   C97       1.0  0.17232  0.02202  0.80230  1.0000
  H   H110      1.0  0.22902  0.04999  0.79381  1.0000
  H   H111      1.0  0.21975  0.03569  0.81548  1.0000
  H   H112      1.0  0.17702  0.06007  0.79211  1.0000
  H   H113      1.0  0.19824  0.06968  0.79079  1.0000
  H   H114      1.0  0.21619  0.05269  0.76419  1.0000
  H   H115      1.0  0.21785  0.02716  0.76601  1.0000
  H   H116      1.0  0.20178  0.00815  0.79355  1.0000
  H   H117      1.0  0.19714  0.01576  0.81644  1.0000
  H   H118      1.0  0.24387  0.01976  0.77950  1.0000
  H   H119      1.0  0.25028  0.01879  0.80256  1.0000
  H   H120      1.0  0.29851  0.12960  0.65776  1.0000
  H   H121      1.0  0.18030  0.04449  0.82817  1.0000
  H   H122      1.0  0.19812  0.06018  0.82551  1.0000
  H   H123      1.0  0.17391  0.07026  0.82215  1.0000
  H   H124      1.0  0.18013  0.05618  0.76207  1.0000
  H   H125      1.0  0.18385  0.02994  0.76295  1.0000
  H   H126      1.0  0.19655  0.04499  0.74370  1.0000
  H   H127      1.0  0.16937  0.00860  0.79847  1.0000
  H   H128      1.0  0.16541  0.03431  0.79259  1.0000
  H   H129      1.0  0.16475  0.02229  0.81750  1.0000
  C   C98       1.0  0.99551  0.04739  0.82762  1.0000
  H   H130      1.0  0.16063  0.14839  0.78304  1.0000
  N   N4        1.0  0.07966  0.18723  0.78581  1.0000
  C   C99       1.0  0.09328  0.17070  0.79529  1.0000
  C   C100      1.0  0.08321  0.18686  0.76426  1.0000
  C   C101      1.0  0.11522  0.17050  0.78807  1.0000
  C   C102      1.0  0.21187  0.99307  0.84871  1.0000
  H   H131      1.0  0.01428  0.08080  0.77873  1.0000
  C   C103      1.0  0.31351  0.01587  0.71946  1.0000
  Fe  Fe17      1.0  0.36551  0.23023  0.83260  1.0000
  H   H132      1.0  0.19256  0.19635  0.82377  1.0000
  H   H133      1.0  0.12056  0.18197  0.79303  1.0000
  H   H134      1.0  0.12328  0.15654  0.79457  1.0000
  H   H135      1.0  0.11917  0.17158  0.77210  1.0000
  H   H136      1.0  0.23244  0.00507  0.80096  1.0000
  C   C104      1.0  0.00301  0.11964  0.92649  1.0000
  H   H137      1.0  0.33281  0.18397  0.74752  1.0000
  C   C105      1.0  0.30919  0.11677  0.78919  1.0000
  H   H138      1.0  0.21381  0.09047  0.73468  1.0000
  C   C106      1.0  0.02546  0.00931  0.82543  1.0000
  C   C107      1.0  0.45512  0.18219  0.70963  1.0000
  C   C108      1.0  0.13635  0.22156  0.77759  1.0000
  C   C109      1.0  0.22762  0.19864  0.88631  1.0000
  H   H139      1.0  0.34045  0.01986  0.67072  1.0000
  H   H140      1.0  0.23432  0.14957  0.72363  1.0000
  C   C110      1.0  0.40584  0.15482  0.66360  1.0000
  C   C111      1.0  0.32493  0.13563  0.66506  1.0000
  H   H141      1.0  0.35609  0.14924  0.67044  1.0000
  H   H142      1.0  0.33259  0.20521  0.75757  1.0000
  H   H143      1.0  0.14630  0.04160  0.88170  1.0000
  H   H144      1.0  0.05751  0.18513  0.81149  1.0000
  H   H145      1.0  0.21371  0.10501  0.75223  1.0000
  H   H146      1.0  0.16358  0.12638  0.75960  1.0000
  H   H147      1.0  0.35085  0.15364  0.78410  1.0000
  H   H148      1.0  0.05915  0.18607  0.74941  1.0000
  H   H149      1.0  0.19426  0.09156  0.75514  1.0000
  C   C112      1.0  0.02261  0.02699  0.80929  1.0000
  H   H150      1.0  0.28723  0.99602  0.71624  1.0000
  H   H151      1.0  0.44265  0.13865  0.70783  1.0000
  H   H152      1.0  0.15008  0.15897  0.71320  1.0000
  H   H153      1.0  0.28213  0.20116  0.80110  1.0000
  H   H154      1.0  0.14312  0.21869  0.79026  1.0000
  H   H155      1.0  0.18269  0.03053  0.86825  1.0000
  C   C113      1.0  0.31411  0.21438  0.81644  1.0000
  H   H156      1.0  0.03258  0.06118  0.78583  1.0000
  H   H157      1.0  0.36120  0.10816  0.69389  1.0000
  H   H158      1.0  0.28774  0.02291  0.74144  1.0000
  H   H159      1.0  0.31291  0.00287  0.67561  1.0000
  H   H160      1.0  0.35186  0.18413  0.79467  1.0000
  C   C114      1.0  0.27588  0.00918  0.68999  1.0000
  H   H161      1.0  0.36284  0.13068  0.70018  1.0000
  H   H162      1.0  0.15077  0.06198  0.86348  1.0000
  H   H163      1.0  0.40012  0.20370  0.70104  1.0000
  H   H164      1.0  0.42373  0.20927  0.69962  1.0000
  C   C115      1.0  0.44885  0.16841  0.68315  1.0000
  Fe  Fe18      1.0  0.14208  0.22767  0.85445  1.0000
  H   H165      1.0  0.31384  0.06101  0.69782  1.0000
  H   H166      1.0  0.21360  0.15976  0.67331  1.0000
  H   H167      1.0  0.00516  0.10514  0.92209  1.0000
  H   H168      1.0  0.22365  0.18152  0.67244  1.0000
  H   H169      1.0  0.32260  0.20492  0.82716  1.0000
  H   H170      1.0  0.08655  0.17156  0.76158  1.0000
  H   H171      1.0  0.09090  0.01413  0.91544  1.0000
  C   C116      1.0  0.43548  0.13153  0.65685  1.0000
  H   H172      1.0  0.22556  0.21316  0.89068  1.0000
  H   H173      1.0  0.30636  0.16165  0.81266  1.0000
  C   C117      1.0  0.05294  0.16559  0.79396  1.0000
  H   H174      1.0  0.10476  0.99998  0.89732  1.0000
  H   H175      1.0  0.41561  0.17870  0.72307  1.0000
  C   C118      1.0  0.21532  0.19989  0.87045  1.0000
  H   H176      1.0  0.03282  0.03641  0.81070  1.0000
  C   C119      1.0  0.00208  0.16101  0.94174  1.0000
  Fe  Fe19      1.0  0.27705  0.08201  0.65279  1.0000
  H   H177      1.0  0.05637  0.16244  0.77893  1.0000
  H   H178      1.0  0.29700  0.04401  0.72696  1.0000
  N   N5        1.0  0.32059  0.18585  0.79720  1.0000
  H   H179      1.0  0.20507  0.23113  0.71474  1.0000
  H   H180      1.0  0.33991  0.17628  0.81834  1.0000
  H   H181      1.0  0.15804  0.16244  0.75982  1.0000
  C   C120      1.0  0.35839  0.13338  0.67037  1.0000
  H   H182      1.0  0.21302  0.13574  0.75261  1.0000
  H   H183      1.0  0.35985  0.14884  0.80639  1.0000
  C   C121      1.0  0.19475  0.00397  0.85697  1.0000
  S   S41       1.0  0.32179  0.21072  0.71345  1.0000
  H   H184      1.0  0.47020  0.14115  0.68347  1.0000
  H   H185      1.0  0.15757  0.13351  0.71762  1.0000
  H   H186      1.0  0.45564  0.19595  0.69907  1.0000
  C   C122      1.0  0.19474  0.18707  0.85424  1.0000
  H   H187      1.0  0.29846  0.21500  0.82255  1.0000
  C   C123      1.0  0.31892  0.20746  0.79654  1.0000
  H   H188      1.0  0.21097  0.20596  0.83076  1.0000
  H   H189      1.0  0.32042  0.08175  0.74517  1.0000
  C   C124      1.0  0.05929  0.18463  0.79565  1.0000
  N   N6        1.0  0.00231  0.03826  0.80949  1.0000
  C   C125      1.0  0.16851  0.15226  0.76808  1.0000
  C   C126      1.0  0.21051  0.17583  0.67157  1.0000
  H   H190      1.0  0.41849  0.14588  0.73565  1.0000
  C   C127      1.0  0.11897  0.22818  0.74459  1.0000
  H   H191      1.0  0.18826  0.21075  0.70229  1.0000
  H   H192      1.0  0.20574  0.16789  0.89947  1.0000
  H   H193      1.0  0.19141  0.16010  0.88607  1.0000
  H   H194      1.0  0.21951  0.15633  0.85517  1.0000
  C   C128      1.0  0.08389  0.20580  0.78995  1.0000
  C   C129      1.0  0.33270  0.10913  0.75911  1.0000
  H   H195      1.0  0.24883  0.14421  0.86993  1.0000
  N   N7        1.0  0.10951  0.03947  0.87096  1.0000
  C   C130      1.0  0.12164  0.05545  0.86641  1.0000
  C   C131      1.0  0.08949  0.04822  0.86653  1.0000
  C   C132      1.0  0.11799  0.02375  0.85886  1.0000
  C   C133      1.0  0.10894  0.03053  0.89203  1.0000
  C   C134      1.0  0.14351  0.04896  0.86707  1.0000
  C   C135      1.0  0.07671  0.06119  0.88072  1.0000
  C   C136      1.0  0.12128  0.03051  0.83671  1.0000
  C   C137      1.0  0.09627  0.01442  0.89967  1.0000
  H   H196      1.0  0.12030  0.06422  0.85182  1.0000
  H   H197      1.0  0.11625  0.06595  0.87673  1.0000
  H   H198      1.0  0.08123  0.03682  0.86582  1.0000
  H   H199      1.0  0.09032  0.05720  0.85181  1.0000
  H   H200      1.0  0.13197  0.01566  0.86300  1.0000
  H   H201      1.0  0.10840  0.01254  0.86180  1.0000
  H   H202      1.0  0.12376  0.02356  0.89479  1.0000
  H   H203      1.0  0.10466  0.04169  0.90174  1.0000
  H   H204      1.0  0.00435  0.17449  0.93127  1.0000
  H   H205      1.0  0.02815  0.02179  0.79512  1.0000
  H   H206      1.0  0.27838  0.17700  0.80081  1.0000
  H   H207      1.0  0.06283  0.06744  0.87529  1.0000
  H   H208      1.0  0.07278  0.05274  0.89535  1.0000
  H   H209      1.0  0.08362  0.07351  0.88179  1.0000
  H   H210      1.0  0.10739  0.03647  0.83133  1.0000
  H   H211      1.0  0.12794  0.01771  0.82953  1.0000
  H   H212      1.0  0.13135  0.04121  0.83201  1.0000
  C   C138      1.0  0.33981  0.00635  0.68148  1.0000
  H   H213      1.0  0.29526  0.07983  0.74896  1.0000
  H   H214      1.0  0.24330  0.19429  0.88083  1.0000
  C   C139      1.0  0.29363  0.13569  0.71406  1.0000
  H   H215      1.0  0.03697  0.16674  0.79866  1.0000
  H   H216      1.0  0.23565  0.17345  0.85064  1.0000
  H   H217      1.0  0.27595  0.12039  0.70328  1.0000
  C   C140      1.0  0.42147  0.17805  0.70762  1.0000
  H   H218      1.0  0.01343  0.14893  0.93748  1.0000
  H   H219      1.0  0.30951  0.02909  0.74540  1.0000
  H   H220      1.0  0.24200  0.16152  0.88606  1.0000
  C   C141      1.0  0.33997  0.17611  0.80276  1.0000
  H   H221      1.0  0.41537  0.22086  0.91935  1.0000
  H   H222      1.0  0.22725  0.14314  0.88727  1.0000
  C   C142      1.0  0.17065  0.14592  0.66205  1.0000
  S   S42       1.0  0.35852  0.22167  0.67903  1.0000
  C   C143      1.0  0.28612  0.01052  0.70676  1.0000
  C   C144      1.0  0.23622  0.15338  0.87744  1.0000
  H   H223      1.0  0.17247  0.17962  0.91091  1.0000
  H   H224      1.0  0.30619  0.17881  0.82705  1.0000
  H   H225      1.0  0.48093  0.16287  0.68075  1.0000
  H   H226      1.0  0.43835  0.16172  0.67804  1.0000
  H   H227      1.0  0.27483  0.02276  0.67929  1.0000
  Fe  Fe20      1.0  0.23312  0.09395  0.65959  1.0000
  Fe  Fe21      1.0  0.10868  0.23121  0.67550  1.0000
  H   H228      1.0  0.31520  0.00062  0.72733  1.0000
  C   C145      1.0  0.19671  0.17326  0.88793  1.0000
  H   H229      1.0  0.00797  0.11771  0.94067  1.0000
  C   C146      1.0  0.19246  0.11701  0.73200  1.0000
  C   C147      1.0  0.22485  0.16656  0.86210  1.0000
  S   S43       1.0  0.36093  0.22884  0.73149  1.0000
  C   C148      1.0  0.20623  0.14361  0.73988  1.0000
  H   H230      1.0  0.26077  0.00673  0.69607  1.0000
  H   H231      1.0  0.33267  0.21263  0.78882  1.0000
  H   H232      1.0  0.19949  0.17955  0.68423  1.0000
  H   H233      1.0  0.19493  0.23198  0.74805  1.0000
  H   H234      1.0  0.18705  0.17489  0.85459  1.0000
  H   H235      1.0  0.30781  0.21584  0.78778  1.0000
  H   H236      1.0  0.32203  0.05783  0.67335  1.0000
  N   N8        1.0  0.18795  0.13626  0.73905  1.0000
  H   H237      1.0  0.22817  0.12787  0.71944  1.0000
  H   H238      1.0  0.43938  0.13052  0.74345  1.0000
  C   C149      1.0  0.17901  0.18706  0.89659  1.0000
  H   H239      1.0  0.28298  0.99667  0.68256  1.0000
  Fe  Fe22      1.0  0.13452  0.19415  0.66459  1.0000
  Fe  Fe23      1.0  0.47493  0.08610  0.66762  1.0000
  H   H240      1.0  0.33562  0.14548  0.80659  1.0000
  N   N9        1.0  0.44277  0.16960  0.70451  1.0000
  H   H241      1.0  0.08165  0.20556  0.80593  1.0000
  H   H242      1.0  0.19580  0.12695  0.67188  1.0000
  H   H243      1.0  0.35207  0.11896  0.77493  1.0000
  H   H244      1.0  0.07447  0.98797  0.87138  1.0000
  H   H245      1.0  0.33958  0.12608  0.69873  1.0000
  C   C150      1.0  0.20416  0.10017  0.74433  1.0000
  H   H246      1.0  0.17885  0.11174  0.73171  1.0000
  H   H247      1.0  0.27420  0.18646  0.82329  1.0000
  S   S44       1.0  0.25805  0.14820  0.67400  1.0000
  N   N10       1.0  0.34600  0.12864  0.65754  1.0000
  N   N11       1.0  0.20822  0.18169  0.86905  1.0000
  H   H248      1.0  0.29365  0.14629  0.78921  1.0000
  H   H249      1.0  0.28193  0.13165  0.77936  1.0000
  H   H250      1.0  0.00771  0.05263  0.83160  1.0000
  H   H251      1.0  0.22323  0.18888  0.89990  1.0000
  C   C151      1.0  0.00283  0.05424  0.79200  1.0000
  H   H252      1.0  0.43524  0.15550  0.74582  1.0000
  C   C152      1.0  0.29635  0.13490  0.77997  1.0000
  H   H253      1.0  0.35610  0.12613  0.74920  1.0000
  H   H254      1.0  0.33563  0.13821  0.76330  1.0000
  C   C153      1.0  0.34468  0.12383  0.76216  1.0000
  H   H255      1.0  0.16749  0.19082  0.88745  1.0000
  H   H256      1.0  0.33323  0.04159  0.69170  1.0000
  H   H257      1.0  0.30299  0.14086  0.76514  1.0000
  H   H258      1.0  0.32547  0.11631  0.74646  1.0000
  H   H259      1.0  0.32032  0.12190  0.79489  1.0000
  H   H260      1.0  0.18314  0.19942  0.85764  1.0000
  C   C154      1.0  0.45013  0.18736  0.73028  1.0000
  C   C155      1.0  0.18000  0.21955  0.71342  1.0000
  C   C156      1.0  0.41585  0.19862  0.69642  1.0000
  H   H261      1.0  0.18307  0.20052  0.89909  1.0000
  Fe  Fe24      1.0  0.35338  0.21193  0.71131  1.0000
  C   C157      1.0  0.34665  0.15481  0.79969  1.0000
  S   S45       1.0  0.47608  0.01565  0.65928  1.0000
  C   C158      1.0  0.30482  0.17758  0.81207  1.0000
  H   H262      1.0  0.19972  0.11835  0.71656  1.0000
  S   S46       1.0  0.39046  0.17646  0.65601  1.0000
  H   H263      1.0  0.41797  0.19873  0.68054  1.0000
  H   H264      1.0  0.44867  0.18313  0.67423  1.0000
  H   H265      1.0  0.29480  0.10923  0.75916  1.0000
  H   H266      1.0  0.34811  0.07233  0.80784  1.0000
  H   H267      1.0  0.29986  0.11017  0.80236  1.0000
  H   H268      1.0  0.34323  0.09675  0.75386  1.0000
  N   N12       1.0  0.31814  0.10186  0.77620  1.0000
  H   H269      1.0  0.34130  0.09784  0.80595  1.0000
  H   H270      1.0  0.27337  0.18080  0.67915  1.0000
  H   H271      1.0  0.17976  0.20996  0.72772  1.0000
  H   H272      1.0  0.18498  0.12365  0.76952  1.0000
  H   H273      1.0  0.32327  0.14983  0.67008  1.0000
  C   C159      1.0  0.34991  0.10690  0.65838  1.0000
  H   H274      1.0  0.30978  0.06557  0.76591  1.0000
  H   H275      1.0  0.34590  0.09938  0.67347  1.0000
  C   C160      1.0  0.06655  0.19699  0.75291  1.0000
  C   C161      1.0  0.33441  0.18912  0.76075  1.0000
  C   C162      1.0  0.30185  0.09654  0.76862  1.0000
  C   C163      1.0  0.20414  0.19283  0.83291  1.0000
  H   H276      1.0  0.29017  0.09246  0.78078  1.0000
  C   C164      1.0  0.34453  0.08582  0.79744  1.0000
  H   H277      1.0  0.00186  0.15827  0.90641  1.0000
  H   H278      1.0  0.31757  0.22924  0.81474  1.0000
  H   H279      1.0  0.01607  0.07403  0.80380  1.0000
  H   H280      1.0  0.34789  0.00614  0.69330  1.0000
  C   C165      1.0  0.01741  0.06817  0.79024  1.0000
  C   C166      1.0  0.42213  0.14787  0.65062  1.0000
  C   C167      1.0  0.32730  0.08384  0.78833  1.0000
  H   H281      1.0  0.47977  0.01582  0.71718  1.0000
  C   C168      1.0  0.30748  0.07993  0.75649  1.0000
  S   S47       1.0  0.15753  0.19673  0.68054  1.0000
  H   H282      1.0  0.47056  0.17503  0.70808  1.0000
  H   H283      1.0  0.47192  0.15746  0.66111  1.0000
  H   H284      1.0  0.99496  0.01852  0.79357  1.0000
  H   H285      1.0  0.35771  0.08716  0.78631  1.0000
  H   H286      1.0  0.33297  0.07195  0.77966  1.0000
  H   H287      1.0  0.22445  0.20511  0.85656  1.0000
  H   H288      1.0  0.31624  0.07819  0.80041  1.0000
  C   C169      1.0  0.13198  0.21103  0.74877  1.0000
  Fe  Fe25      1.0  0.13298  0.20508  0.70370  1.0000
  H   H289      1.0  0.18529  0.15178  0.71006  1.0000
  H   H290      1.0  0.34935  0.18321  0.76343  1.0000
  H   H291      1.0  0.46162  0.14451  0.71723  1.0000
  H   H292      1.0  0.21470  0.18072  0.82732  1.0000
  H   H293      1.0  0.16506  0.22388  0.71014  1.0000
  C   C170      1.0  0.15673  0.14695  0.72358  1.0000
  H   H294      1.0  0.43443  0.18997  0.73605  1.0000
  C   C171      1.0  0.18588  0.12985  0.66162  1.0000
  H   H295      1.0  0.04826  0.19667  0.79035  1.0000
  H   H296      1.0  0.30458  0.18946  0.77348  1.0000
  C   C172      1.0  0.31884  0.18216  0.77759  1.0000
  Fe  Fe26      1.0  0.15271  0.22804  0.66728  1.0000
  C   C173      1.0  0.28376  0.18606  0.80896  1.0000
  C   C174      1.0  0.17691  0.15088  0.72506  1.0000
  H   H297      1.0  0.19658  0.20051  0.65358  1.0000
  H   H298      1.0  0.16874  0.15524  0.67278  1.0000
  C   C175      1.0  0.37856  0.22548  0.76280  1.0000
  H   H299      1.0  0.15068  0.03943  0.85626  1.0000
  H   H300      1.0  0.36513  0.22954  0.89995  1.0000
  H   H301      1.0  0.17070  0.22978  0.74986  1.0000
  N   N13       1.0  0.30572  0.01707  0.70098  1.0000
  H   H302      1.0  0.08311  0.01677  0.89298  1.0000
  C   C176      1.0  0.41986  0.23205  0.88877  1.0000
  C   C177      1.0  0.30109  0.02881  0.73394  1.0000
  H   H303      1.0  0.32832  0.01951  0.71662  1.0000
  S   S48       1.0  0.15285  0.22510  0.82322  1.0000
  H   H304      1.0  0.09635  0.19339  0.75707  1.0000
  H   H305      1.0  0.17494  0.16578  0.72857  1.0000
  C   C178      1.0  0.30317  0.03736  0.68951  1.0000
  C   C179      1.0  0.43402  0.14542  0.73633  1.0000
  H   H306      1.0  0.05563  0.20785  0.75993  1.0000
  S   S49       1.0  0.48513  0.05716  0.68507  1.0000
  H   H307      1.0  0.18909  0.17835  0.65368  1.0000
  Fe  Fe27      1.0  0.48547  0.04499  0.65805  1.0000
  S   S50       1.0  0.09641  0.99357  0.83182  1.0000
  H   H308      1.0  0.45496  0.20135  0.73000  1.0000
  H   H309      1.0  0.02281  0.01373  0.83993  1.0000
  H   H310      1.0  0.22429  0.21292  0.65162  1.0000
  C   C180      1.0  0.45397  0.99139  0.65108  1.0000
  H   H311      1.0  0.47359  0.00027  0.70352  1.0000
  C   C181      1.0  0.48508  0.00211  0.71122  1.0000
  H   H312      1.0  0.34766  0.99436  0.67359  1.0000
  H   H313      1.0  0.24270  0.99191  0.83842  1.0000
  H   H314      1.0  0.31938  0.98779  0.69709  1.0000
  H   H315      1.0  0.99067  0.03787  0.85894  1.0000
  H   H316      1.0  0.07568  0.22759  0.76518  1.0000
  H   H317      1.0  0.05625  0.22562  0.78615  1.0000
  H   H318      1.0  0.48649  0.98959  0.72313  1.0000
  C   C182      1.0  0.20218  0.18490  0.65283  1.0000
  C   C183      1.0  0.07209  0.22488  0.78125  1.0000
  H   H319      1.0  0.99005  0.01888  0.84651  1.0000
  C   C184      1.0  0.31023  0.13826  0.65100  1.0000
  Fe  Fe28      1.0  0.12213  0.23589  0.81902  1.0000
  S   S51       1.0  0.13119  0.22526  0.64935  1.0000
  H   H320      1.0  0.99023  0.16363  0.87621  1.0000
  H   H321      1.0  0.48814  0.33243  0.01050  1.0000
  Fe  Fe29      1.0  0.01589  0.32051  0.61242  1.0000
  S   S52       1.0  0.02379  0.34297  0.58679  1.0000
  S   S53       1.0  0.03453  0.29121  0.60996  1.0000
  Fe  Fe30      1.0  0.01896  0.36365  0.60822  1.0000
  S   S54       1.0  0.04280  0.38278  0.60314  1.0000
  C   C185      1.0  0.02492  0.31376  0.54490  1.0000
  C   C186      1.0  0.10709  0.38180  0.62857  1.0000
  Fe  Fe31      1.0  0.09385  0.45832  0.64287  1.0000
  C   C187      1.0  0.12966  0.40962  0.63824  1.0000
  C   C188      1.0  0.99638  0.27399  0.59331  1.0000
  C   C189      1.0  0.07305  0.32661  0.61437  1.0000
  H   H322      1.0  0.20567  0.43961  0.60781  1.0000
  C   C190      1.0  0.04655  0.27922  0.62935  1.0000
  H   H323      1.0  0.09953  0.33488  0.63360  1.0000
  H   H324      1.0  0.13595  0.36712  0.61905  1.0000
  H   H325      1.0  0.25020  0.33997  0.63885  1.0000
  H   H326      1.0  0.12284  0.41016  0.60271  1.0000
  H   H327      1.0  0.01752  0.32102  0.53245  1.0000
  C   C191      1.0  0.05058  0.39783  0.61650  1.0000
  C   C192      1.0  0.07162  0.42136  0.61687  1.0000
  C   C193      1.0  0.06440  0.40974  0.60686  1.0000
  H   H328      1.0  0.08218  0.43042  0.60919  1.0000
  H   H329      1.0  0.06950  0.41005  0.59147  1.0000
  C   C194      1.0  0.99556  0.29202  0.53867  1.0000
  H   H330      1.0  0.00586  0.29649  0.52531  1.0000
  C   C195      1.0  0.02323  0.27016  0.55035  1.0000
  H   H331      1.0  0.16246  0.35833  0.64371  1.0000
  C   C196      1.0  0.13810  0.40409  0.60463  1.0000
  C   C197      1.0  0.06445  0.26706  0.62558  1.0000
  H   H332      1.0  0.14333  0.39318  0.59467  1.0000
  H   H333      1.0  0.27361  0.32507  0.63513  1.0000
  H   H334      1.0  0.07049  0.26481  0.61086  1.0000
  H   H335      1.0  0.01075  0.26538  0.59511  1.0000
  C   C198      1.0  0.29324  0.35011  0.64474  1.0000
  H   H336      1.0  0.09908  0.39152  0.63894  1.0000
  H   H337      1.0  0.03913  0.27343  0.57341  1.0000
  C   C199      1.0  0.21316  0.41532  0.62973  1.0000
  C   C200      1.0  0.16036  0.38817  0.62712  1.0000
  Fe  Fe32      1.0  0.99190  0.34984  0.58526  1.0000
  H   H338      1.0  0.03161  0.27533  0.53593  1.0000
  H   H339      1.0  0.02894  0.32553  0.55071  1.0000
  C   C201      1.0  0.20058  0.43106  0.62155  1.0000
  S   S55       1.0  0.16646  0.45535  0.61924  1.0000
  C   C202      1.0  0.18149  0.43574  0.63090  1.0000
  C   C203      1.0  0.16530  0.37284  0.64478  1.0000
  C   C204      1.0  0.14953  0.42109  0.59656  1.0000
  H   H340      1.0  0.03424  0.24931  0.57443  1.0000
  H   H341      1.0  0.10464  0.29850  0.63421  1.0000
  C   C205      1.0  0.07489  0.25827  0.64072  1.0000
  H   H342      1.0  0.14379  0.43353  0.60440  1.0000
  H   H343      1.0  0.31021  0.31187  0.64009  1.0000
  H   H344      1.0  0.08902  0.32490  0.61001  1.0000
  H   H345      1.0  0.03861  0.30431  0.53994  1.0000
  H   H346      1.0  0.26581  0.36859  0.63772  1.0000
  H   H347      1.0  0.06764  0.31885  0.60495  1.0000
  H   H348      1.0  0.05263  0.25932  0.55625  1.0000
  H   H349      1.0  0.99517  0.28824  0.59787  1.0000
  C   C206      1.0  0.01142  0.30263  0.56104  1.0000
  N   N14       1.0  0.13917  0.39467  0.62543  1.0000
  H   H350      1.0  0.10106  0.36810  0.63269  1.0000
  Fe  Fe33      1.0  0.13527  0.46668  0.63063  1.0000
  C   C207      1.0  0.03782  0.26277  0.56461  1.0000
  C   C208      1.0  0.04411  0.39767  0.63640  1.0000
  S   S56       1.0  0.11149  0.46740  0.61371  1.0000
  H   H351      1.0  0.13039  0.36848  0.64393  1.0000
  H   H352      1.0  0.30797  0.35288  0.64532  1.0000
  S   S57       1.0  0.01279  0.34049  0.63417  1.0000
  H   H353      1.0  0.28744  0.37566  0.62291  1.0000
  H   H354      1.0  0.06896  0.35584  0.63565  1.0000
  H   H355      1.0  0.14777  0.42650  0.58118  1.0000
  H   H356      1.0  0.99816  0.31313  0.56523  1.0000
  H   H357      1.0  0.16534  0.41678  0.59667  1.0000
  H   H358      1.0  0.06643  0.34208  0.61116  1.0000
  H   H359      1.0  0.16731  0.40078  0.62726  1.0000
  H   H360      1.0  0.16842  0.38183  0.61411  1.0000
  H   H361      1.0  0.22786  0.41185  0.62224  1.0000
  H   H362      1.0  0.01842  0.25698  0.54799  1.0000
  C   C209      1.0  0.06538  0.42095  0.63684  1.0000
  N   N15       1.0  0.00586  0.28507  0.55602  1.0000
  C   C210      1.0  0.20678  0.40390  0.64729  1.0000
  H   H363      1.0  0.13859  0.42130  0.63598  1.0000
  H   H364      1.0  0.18111  0.37112  0.64504  1.0000
  H   H365      1.0  0.01854  0.29908  0.57403  1.0000
  H   H366      1.0  0.29578  0.34167  0.63276  1.0000
  C   C211      1.0  0.28103  0.36984  0.63796  1.0000
  H   H367      1.0  0.08891  0.24932  0.63767  1.0000
  H   H368      1.0  0.11568  0.41760  0.63389  1.0000
  C   C212      1.0  0.12897  0.37727  0.62947  1.0000
  H   H369      1.0  0.99427  0.26370  0.53083  1.0000
  H   H370      1.0  0.05087  0.31890  0.63797  1.0000
  C   C213      1.0  0.26080  0.32868  0.64609  1.0000
  C   C214      1.0  0.06689  0.31763  0.63572  1.0000
  C   C215      1.0  0.99175  0.27632  0.57265  1.0000
  H   H371      1.0  0.12251  0.30604  0.64402  1.0000
  H   H372      1.0  0.07232  0.30178  0.63711  1.0000
  H   H373      1.0  0.10409  0.38801  0.61373  1.0000
  H   H374      1.0  0.03344  0.38873  0.64406  1.0000
  C   C216      1.0  0.05162  0.40899  0.64649  1.0000
  H   H375      1.0  0.16659  0.48216  0.64734  1.0000
  C   C217      1.0  0.17505  0.42464  0.64873  1.0000
  C   C218      1.0  0.10686  0.30488  0.64644  1.0000
  C   C219      1.0  0.09471  0.32529  0.64730  1.0000
  C   C220      1.0  0.03873  0.28195  0.64839  1.0000
  H   H376      1.0  0.28110  0.38079  0.64707  1.0000
  H   H377      1.0  0.98999  0.26171  0.57055  1.0000
  C   C221      1.0  0.42263  0.41348  0.93843  1.0000
  H   H378      1.0  0.09926  0.33101  0.65886  1.0000
  H   H379      1.0  0.03607  0.31563  0.66853  1.0000
  C   C222      1.0  0.39302  0.28786  0.88862  1.0000
  H   H380      1.0  0.37651  0.46040  0.95284  1.0000
  S   S58       1.0  0.08044  0.25225  0.67889  1.0000
  H   H381      1.0  0.15952  0.36805  0.93539  1.0000
  H   H382      1.0  0.28197  0.25744  0.80581  1.0000
  C   C223      1.0  0.48281  0.27020  0.84390  1.0000
  S   S59       1.0  0.35030  0.25939  0.82037  1.0000
  Fe  Fe34      1.0  0.47378  0.29591  0.89859  1.0000
  H   H383      1.0  0.45285  0.38002  0.82753  1.0000
  S   S60       1.0  0.45284  0.27368  0.90730  1.0000
  H   H384      1.0  0.47081  0.33273  0.82298  1.0000
  S   S61       1.0  0.46615  0.36964  0.87558  1.0000
  S   S62       1.0  0.47359  0.31999  0.91539  1.0000
  S   S63       1.0  0.17945  0.24184  0.65667  1.0000
  H   H385      1.0  0.35695  0.26647  0.91640  1.0000
  H   H386      1.0  0.48711  0.24660  0.82816  1.0000
  H   H387      1.0  0.14152  0.38853  0.93225  1.0000
  S   S64       1.0  0.11855  0.45566  0.65934  1.0000
  C   C224      1.0  0.28147  0.26968  0.81338  1.0000
  H   H388      1.0  0.33643  0.27178  0.87528  1.0000
  H   H389      1.0  0.39748  0.30140  0.89050  1.0000
  Fe  Fe35      1.0  0.21664  0.32764  0.86032  1.0000
  S   S65       1.0  0.24153  0.30966  0.84427  1.0000
  S   S66       1.0  0.18579  0.32096  0.86459  1.0000
  Fe  Fe36      1.0  0.24293  0.35682  0.86425  1.0000
  S   S67       1.0  0.26947  0.34057  0.84810  1.0000
  S   S68       1.0  0.24104  0.38521  0.87579  1.0000
  Fe  Fe37      1.0  0.24976  0.33789  0.82806  1.0000
  S   S69       1.0  0.25853  0.33863  0.79590  1.0000
  Fe  Fe38      1.0  0.25852  0.31394  0.86591  1.0000
  S   S70       1.0  0.27680  0.28750  0.87955  1.0000
  S   S71       1.0  0.22378  0.35606  0.84269  1.0000
  S   S72       1.0  0.23302  0.33005  0.88354  1.0000
  Fe  Fe39      1.0  0.21182  0.36141  0.68037  1.0000
  S   S73       1.0  0.18141  0.36326  0.69661  1.0000
  H   H390      1.0  0.29223  0.26539  0.82341  1.0000
  Fe  Fe40      1.0  0.22551  0.32173  0.70367  1.0000
  S   S74       1.0  0.19583  0.32019  0.72118  1.0000
  H   H391      1.0  0.46081  0.36528  0.80900  1.0000
  Fe  Fe41      1.0  0.18501  0.33211  0.69302  1.0000
  S   S75       1.0  0.15984  0.32293  0.68471  1.0000
  Fe  Fe42      1.0  0.19528  0.35124  0.72302  1.0000
  S   S76       1.0  0.18647  0.36113  0.75193  1.0000
  S   S77       1.0  0.21478  0.33080  0.67506  1.0000
  S   S78       1.0  0.22549  0.35239  0.70705  1.0000
  Fe  Fe43      1.0  0.36349  0.43549  0.89742  1.0000
  S   S79       1.0  0.33499  0.44351  0.91662  1.0000
  S   S80       1.0  0.38070  0.40709  0.91008  1.0000
  Fe  Fe44      1.0  0.35550  0.47170  0.86781  1.0000
  C   C225      1.0  0.06624  0.35769  0.66586  1.0000
  Fe  Fe45      1.0  0.34237  0.47371  0.91074  1.0000
  C   C226      1.0  0.46545  0.37537  0.81650  1.0000
  Fe  Fe46      1.0  0.32203  0.45094  0.88924  1.0000
  S   S81       1.0  0.29158  0.44663  0.88681  1.0000
  S   S82       1.0  0.37162  0.46524  0.89315  1.0000
  S   S83       1.0  0.35001  0.44107  0.87043  1.0000
  H   H392      1.0  0.46858  0.38862  0.80613  1.0000
  H   H393      1.0  0.20761  0.36727  0.88685  1.0000
  Fe  Fe47      1.0  0.47926  0.33842  0.88594  1.0000
  H   H394      1.0  0.04223  0.30700  0.69214  1.0000
  C   C227      1.0  0.30955  0.32037  0.77723  1.0000
  C   C228      1.0  0.27925  0.42815  0.88354  1.0000
  C   C229      1.0  0.25893  0.43217  0.88657  1.0000
  C   C230      1.0  0.24790  0.41878  0.88414  1.0000
  C   C231      1.0  0.25680  0.40101  0.87832  1.0000
  C   C232      1.0  0.27725  0.39674  0.87517  1.0000
  C   C233      1.0  0.28846  0.41025  0.87788  1.0000
  H   H395      1.0  0.25157  0.44586  0.89084  1.0000
  H   H396      1.0  0.23223  0.42236  0.88662  1.0000
  H   H397      1.0  0.28439  0.38308  0.87072  1.0000
  H   H398      1.0  0.30414  0.40689  0.87541  1.0000
  C   C234      1.0  0.23834  0.34496  0.78393  1.0000
  C   C235      1.0  0.22214  0.35809  0.79047  1.0000
  C   C236      1.0  0.20618  0.36306  0.78065  1.0000
  C   C237      1.0  0.20636  0.35482  0.76432  1.0000
  C   C238      1.0  0.22235  0.34130  0.75811  1.0000
  C   C239      1.0  0.23842  0.33662  0.76771  1.0000
  H   H399      1.0  0.22216  0.36496  0.80267  1.0000
  H   H400      1.0  0.19384  0.37351  0.78551  1.0000
  H   H401      1.0  0.22234  0.33428  0.74601  1.0000
  H   H402      1.0  0.25082  0.32645  0.76259  1.0000
  C   C240      1.0  0.11475  0.24212  0.75700  1.0000
  H   H403      1.0  0.15487  0.32757  0.91174  1.0000
  S   S84       1.0  0.47720  0.31508  0.86966  1.0000
  H   H404      1.0  0.29163  0.44890  0.92622  1.0000
  H   H405      1.0  0.48857  0.35004  0.79183  1.0000
  H   H406      1.0  0.17983  0.39082  0.84711  1.0000
  H   H407      1.0  0.18270  0.40009  0.67062  1.0000
  H   H408      1.0  0.14888  0.44123  0.71200  1.0000
  C   C241      1.0  0.32942  0.26696  0.83637  1.0000
  C   C242      1.0  0.32177  0.28673  0.83502  1.0000
  C   C243      1.0  0.30535  0.29303  0.84805  1.0000
  C   C244      1.0  0.29675  0.27963  0.86266  1.0000
  C   C245      1.0  0.30433  0.25984  0.86394  1.0000
  C   C246      1.0  0.18770  0.40865  0.65692  1.0000
  H   H409      1.0  0.32873  0.29723  0.82412  1.0000
  H   H410      1.0  0.29975  0.30832  0.84717  1.0000
  C   C247      1.0  0.19959  0.45391  0.67123  1.0000
  H   H411      1.0  0.19219  0.45661  0.65852  1.0000
  C   C248      1.0  0.28990  0.25614  0.67885  1.0000
  H   H412      1.0  0.16333  0.39907  0.89894  1.0000
  C   C249      1.0  0.26523  0.28329  0.70034  1.0000
  C   C250      1.0  0.26042  0.28011  0.68326  1.0000
  C   C251      1.0  0.27277  0.26655  0.67251  1.0000
  H   H413      1.0  0.24713  0.28789  0.67845  1.0000
  C   C252      1.0  0.42841  0.24593  0.87436  1.0000
  C   C253      1.0  0.44205  0.37956  0.88474  1.0000
  C   C254      1.0  0.43068  0.36915  0.89998  1.0000
  C   C255      1.0  0.41174  0.37764  0.90724  1.0000
  C   C256      1.0  0.40391  0.39652  0.89923  1.0000
  C   C257      1.0  0.41522  0.40691  0.88389  1.0000
  C   C258      1.0  0.43425  0.39846  0.87673  1.0000
  H   H414      1.0  0.43654  0.35461  0.90629  1.0000
  H   H415      1.0  0.40313  0.36956  0.91921  1.0000
  H   H416      1.0  0.40940  0.42151  0.87769  1.0000
  H   H417      1.0  0.44297  0.40662  0.86495  1.0000
  C   C259      1.0  0.29988  0.30675  0.76915  1.0000
  H   H418      1.0  0.33137  0.29848  0.90603  1.0000
  C   C260      1.0  0.17420  0.25301  0.76291  1.0000
  H   H419      1.0  0.44491  0.26977  0.86847  1.0000
  H   H420      1.0  0.26850  0.29506  0.75788  1.0000
  C   C261      1.0  0.17062  0.26061  0.86518  1.0000
  C   C262      1.0  0.19008  0.26300  0.86342  1.0000
  C   C263      1.0  0.19496  0.28137  0.86299  1.0000
  C   C264      1.0  0.18038  0.29754  0.86483  1.0000
  C   C265      1.0  0.16090  0.29513  0.86676  1.0000
  C   C266      1.0  0.15605  0.27685  0.86666  1.0000
  H   H421      1.0  0.47767  0.35462  0.83923  1.0000
  H   H422      1.0  0.20999  0.28292  0.86169  1.0000
  H   H423      1.0  0.14947  0.30746  0.86836  1.0000
  H   H424      1.0  0.14099  0.27517  0.86840  1.0000
  C   C267      1.0  0.23934  0.46550  0.96293  1.0000
  H   H425      1.0  0.17848  0.26753  0.75924  1.0000
  H   H426      1.0  0.38855  0.25827  0.87087  1.0000
  C   C268      1.0  0.16570  0.30142  0.67490  1.0000
  C   C269      1.0  0.15071  0.29246  0.67257  1.0000
  C   C270      1.0  0.18046  0.24083  0.74636  1.0000
  H   H427      1.0  0.13576  0.29913  0.67630  1.0000
  H   H428      1.0  0.43754  0.43487  0.90355  1.0000
  H   H429      1.0  0.34141  0.29557  0.87006  1.0000
  H   H430      1.0  0.34193  0.47295  0.81316  1.0000
  H   H431      1.0  0.14333  0.26776  0.66417  1.0000
  H   H432      1.0  0.05185  0.36420  0.67321  1.0000
  C   C271      1.0  0.30386  0.44820  0.96376  1.0000
  C   C272      1.0  0.12319  0.23860  0.77375  1.0000
  H   H433      1.0  0.27253  0.36485  0.67718  1.0000
  H   H434      1.0  0.16608  0.39198  0.93147  1.0000
  H   H435      1.0  0.15497  0.29011  0.71925  1.0000
  N   N16       1.0  0.07301  0.32618  0.65085  1.0000
  H   H436      1.0  0.04289  0.27505  0.67827  1.0000
  C   C273      1.0  0.43873  0.25892  0.87948  1.0000
  N   N17       1.0  0.41051  0.43307  0.94087  1.0000
  C   C274      1.0  0.48562  0.32682  0.81619  1.0000
  H   H437      1.0  0.28125  0.47021  0.97455  1.0000
  C   C275      1.0  0.32788  0.46905  0.82140  1.0000
  H   H438      1.0  0.34290  0.24428  0.89425  1.0000
  H   H439      1.0  0.36233  0.28619  0.84384  1.0000
  H   H440      1.0  0.28499  0.31456  0.76760  1.0000
  S   S85       1.0  0.07528  0.43384  0.65071  1.0000
  H   H441      1.0  0.02479  0.29105  0.65144  1.0000
  H   H442      1.0  0.04665  0.40854  0.66192  1.0000
  H   H443      1.0  0.42410  0.47133  0.95616  1.0000
  N   N18       1.0  0.16833  0.47364  0.68856  1.0000
  H   H444      1.0  0.36885  0.30434  0.87543  1.0000
  C   C276      1.0  0.06696  0.31443  0.67048  1.0000
  S   S86       1.0  0.22330  0.38394  0.65639  1.0000
  H   H445      1.0  0.36678  0.25398  0.86574  1.0000
  H   H446      1.0  0.15283  0.34317  0.88929  1.0000
  C   C277      1.0  0.37116  0.29192  0.88742  1.0000
  C   C278      1.0  0.19001  0.23724  0.71221  1.0000
  C   C279      1.0  0.16213  0.31110  0.76957  1.0000
  H   H447      1.0  0.20776  0.34857  0.91909  1.0000
  C   C280      1.0  0.42043  0.44275  0.95227  1.0000
  C   C281      1.0  0.28238  0.27300  0.70657  1.0000
  H   H448      1.0  0.19604  0.39291  0.86233  1.0000
  N   N19       1.0  0.17660  0.31130  0.79997  1.0000
  C   C282      1.0  0.16493  0.33133  0.80117  1.0000
  C   C283      1.0  0.18040  0.30882  0.77893  1.0000
  C   C284      1.0  0.19560  0.31078  0.80654  1.0000
  C   C285      1.0  0.16524  0.29650  0.81306  1.0000
  C   C286      1.0  0.16132  0.33804  0.82109  1.0000
  C   C287      1.0  0.15981  0.47730  0.70898  1.0000
  C   C288      1.0  0.21050  0.29204  0.80566  1.0000
  C   C289      1.0  0.16989  0.27553  0.80849  1.0000
  H   H449      1.0  0.17201  0.34251  0.79042  1.0000
  H   H450      1.0  0.15031  0.33242  0.79732  1.0000
  H   H451      1.0  0.18912  0.29459  0.77656  1.0000
  H   H452      1.0  0.18944  0.31954  0.77001  1.0000
  H   H453      1.0  0.20293  0.32295  0.79794  1.0000
  H   H454      1.0  0.19319  0.31293  0.82194  1.0000
  H   H455      1.0  0.16704  0.29560  0.82832  1.0000
  H   H456      1.0  0.14940  0.30123  0.81286  1.0000
  H   H457      1.0  0.15558  0.32712  0.83309  1.0000
  H   H458      1.0  0.17467  0.34181  0.82420  1.0000
  H   H459      1.0  0.15037  0.35151  0.82083  1.0000
  H   H460      1.0  0.15878  0.27289  0.80077  1.0000
  H   H461      1.0  0.32332  0.28542  0.79555  1.0000
  H   H462      1.0  0.26230  0.42728  0.93518  1.0000
  H   H463      1.0  0.20532  0.27980  0.81638  1.0000
  H   H464      1.0  0.22398  0.29433  0.80990  1.0000
  H   H465      1.0  0.21470  0.28828  0.79087  1.0000
  H   H466      1.0  0.15092  0.30298  0.77883  1.0000
  H   H467      1.0  0.18456  0.27129  0.80049  1.0000
  H   H468      1.0  0.15773  0.37699  0.65881  1.0000
  H   H469      1.0  0.43654  0.45607  0.91468  1.0000
  H   H470      1.0  0.40928  0.39428  0.96385  1.0000
  S   S87       1.0  0.11662  0.25453  0.79072  1.0000
  C   C290      1.0  0.15705  0.45974  0.68400  1.0000
  H   H471      1.0  0.37859  0.25407  0.90497  1.0000
  H   H472      1.0  0.36360  0.29762  0.90089  1.0000
  H   H473      1.0  0.25387  0.31545  0.65066  1.0000
  H   H474      1.0  0.16860  0.26520  0.82241  1.0000
  H   H475      1.0  0.31783  0.26256  0.79487  1.0000
  H   H476      1.0  0.29159  0.33148  0.70519  1.0000
  H   H477      1.0  0.40208  0.28354  0.87515  1.0000
  H   H478      1.0  0.13350  0.27951  0.72650  1.0000
  C   C291      1.0  0.42835  0.44835  0.90781  1.0000
  N   N20       1.0  0.17663  0.36948  0.89641  1.0000
  C   C292      1.0  0.15961  0.25822  0.72205  1.0000
  C   C293      1.0  0.17438  0.34878  0.90517  1.0000
  H   H479      1.0  0.47986  0.23979  0.88216  1.0000
  H   H480      1.0  0.04007  0.33234  0.68286  1.0000
  H   H481      1.0  0.16270  0.46392  0.71975  1.0000
  C   C294      1.0  0.27907  0.34206  0.70049  1.0000
  C   C295      1.0  0.26467  0.33528  0.66427  1.0000
  N   N21       1.0  0.27524  0.46699  0.94685  1.0000
  H   H482      1.0  0.19666  0.29963  0.67170  1.0000
  H   H483      1.0  0.10390  0.29471  0.66023  1.0000
  H   H484      1.0  0.26668  0.27185  0.82213  1.0000
  H   H485      1.0  0.07435  0.36987  0.65942  1.0000
  H   H486      1.0  0.28999  0.29749  0.80832  1.0000
  H   H487      1.0  0.04763  0.34865  0.64973  1.0000
  H   H488      1.0  0.07125  0.29862  0.67001  1.0000
  C   C296      1.0  0.15705  0.38294  0.92724  1.0000
  H   H489      1.0  0.15577  0.32666  0.76608  1.0000
  H   H490      1.0  0.30805  0.25192  0.70060  1.0000
  C   C297      1.0  0.43182  0.24430  0.91310  1.0000
  C   C298      1.0  0.14889  0.27751  0.72849  1.0000
  C   C299      1.0  0.37366  0.44680  0.94958  1.0000
  H   H491      1.0  0.07625  0.23710  0.78627  1.0000
  H   H492      1.0  0.23670  0.45487  0.95467  1.0000
  C   C300      1.0  0.04505  0.31774  0.67873  1.0000
  H   H493      1.0  0.43315  0.38479  0.95319  1.0000
  H   H494      1.0  0.32062  0.46305  0.81208  1.0000
  H   H495      1.0  0.39948  0.45853  0.92113  1.0000
  C   C301      1.0  0.27653  0.45200  0.93412  1.0000
  C   C302      1.0  0.44049  0.25810  0.89899  1.0000
  H   H496      1.0  0.27577  0.35338  0.70994  1.0000
  C   C303      1.0  0.06724  0.26135  0.65971  1.0000
  C   C304      1.0  0.32049  0.25348  0.85060  1.0000
  H   H497      1.0  0.21750  0.37016  0.91714  1.0000
  H   H498      1.0  0.19802  0.47772  0.68661  1.0000
  S   S88       1.0  0.16515  0.23684  0.86747  1.0000
  H   H499      1.0  0.12316  0.38750  0.66475  1.0000
  H   H500      1.0  0.07403  0.34838  0.67717  1.0000
  H   H501      1.0  0.40196  0.43640  0.91283  1.0000
  H   H502      1.0  0.19368  0.36872  0.93041  1.0000
  H   H503      1.0  0.18622  0.33855  0.89791  1.0000
  H   H504      1.0  0.14236  0.35188  0.91206  1.0000
  C   C305      1.0  0.29470  0.25953  0.69584  1.0000
  H   H505      1.0  0.41713  0.40673  0.92823  1.0000
  N   N22       1.0  0.29906  0.28677  0.78095  1.0000
  C   C306      1.0  0.15488  0.34286  0.90437  1.0000
  C   C307      1.0  0.29283  0.27451  0.76902  1.0000
  C   C308      1.0  0.31860  0.27722  0.78606  1.0000
  C   C309      1.0  0.28493  0.28876  0.79954  1.0000
  H   H506      1.0  0.17617  0.34529  0.92061  1.0000
  C   C310      1.0  0.27156  0.28000  0.76567  1.0000
  C   C311      1.0  0.33515  0.27441  0.76874  1.0000
  H   H507      1.0  0.26056  0.32421  0.67702  1.0000
  H   H508      1.0  0.29777  0.35713  0.67755  1.0000
  H   H509      1.0  0.16621  0.30549  0.75559  1.0000
  H   H510      1.0  0.29538  0.25884  0.77534  1.0000
  H   H511      1.0  0.30192  0.27532  0.75431  1.0000
  H   H512      1.0  0.27065  0.29739  0.79680  1.0000
  H   H513      1.0  0.19222  0.45583  0.70149  1.0000
  H   H514      1.0  0.43627  0.44175  0.94655  1.0000
  H   H515      1.0  0.36975  0.44945  0.93488  1.0000
  C   C312      1.0  0.17426  0.26550  0.66195  1.0000
  H   H516      1.0  0.26902  0.26400  0.65934  1.0000
  H   H517      1.0  0.19101  0.27521  0.70564  1.0000
  C   C313      1.0  0.04899  0.27290  0.66354  1.0000
  H   H518      1.0  0.29230  0.31209  0.68311  1.0000
  H   H519      1.0  0.43792  0.41488  0.93181  1.0000
  H   H520      1.0  0.34896  0.26869  0.77444  1.0000
  H   H521      1.0  0.33718  0.28818  0.75880  1.0000
  H   H522      1.0  0.33296  0.26352  0.76050  1.0000
  H   H523      1.0  0.26275  0.43131  0.95893  1.0000
  C   C314      1.0  0.17584  0.37184  0.87500  1.0000
  H   H524      1.0  0.25378  0.34854  0.66650  1.0000
  C   C315      1.0  0.18502  0.29277  0.67003  1.0000
  C   C316      1.0  0.40903  0.44429  0.92078  1.0000
  S   S89       1.0  0.25039  0.30001  0.71440  1.0000
  H   H525      1.0  0.16118  0.37070  0.87259  1.0000
  C   C317      1.0  0.20386  0.36462  0.91748  1.0000
  H   H526      1.0  0.16162  0.45684  0.66897  1.0000
  H   H527      1.0  0.26620  0.33484  0.70318  1.0000
  N   N23       1.0  0.18019  0.25138  0.72584  1.0000
  H   H528      1.0  0.26888  0.27036  0.75631  1.0000
  C   C318      1.0  0.18931  0.27480  0.66353  1.0000
  H   H529      1.0  0.30245  0.32271  0.79209  1.0000
  C   C319      1.0  0.06349  0.34714  0.64976  1.0000
  N   N24       1.0  0.28484  0.33912  0.66393  1.0000
  H   H530      1.0  0.30806  0.33487  0.76790  1.0000
  H   H531      1.0  0.29758  0.24942  0.87514  1.0000
  H   H532      1.0  0.24277  0.45828  0.97738  1.0000
  H   H533      1.0  0.20145  0.25053  0.86261  1.0000
  H   H534      1.0  0.21429  0.25583  0.73878  1.0000
  N   N25       1.0  0.36259  0.27495  0.88498  1.0000
  H   H535      1.0  0.30692  0.44066  0.97829  1.0000
  C   C320      1.0  0.37392  0.26571  0.86799  1.0000
  C   C321      1.0  0.36328  0.25994  0.90308  1.0000
  H   H536      1.0  0.21849  0.27714  0.72171  1.0000
  C   C322      1.0  0.37648  0.27945  0.84836  1.0000
  H   H537      1.0  0.14147  0.46636  0.68468  1.0000
  H   H538      1.0  0.38460  0.27085  0.83700  1.0000
  S   S90       1.0  0.13021  0.23673  0.69211  1.0000
  C   C323      1.0  0.34203  0.28235  0.88141  1.0000
  H   H539      1.0  0.48398  0.31678  0.80672  1.0000
  H   H540      1.0  0.10443  0.25521  0.75401  1.0000
  C   C324      1.0  0.39059  0.42973  0.95167  1.0000
  H   H541      1.0  0.42512  0.45788  0.89409  1.0000
  H   H542      1.0  0.28625  0.27553  0.71968  1.0000
  H   H543      1.0  0.13779  0.40458  0.66726  1.0000
  H   H544      1.0  0.14873  0.27787  0.74393  1.0000
  H   H545      1.0  0.42000  0.43478  0.96739  1.0000
  H   H546      1.0  0.19141  0.24476  0.69683  1.0000
  H   H547      1.0  0.07480  0.31685  0.68160  1.0000
  H   H548      1.0  0.27643  0.48041  0.83543  1.0000
  C   C325      1.0  0.32707  0.28765  0.89918  1.0000
  H   H549      1.0  0.18423  0.27998  0.72942  1.0000
  C   C326      1.0  0.27114  0.43195  0.94411  1.0000
  C   C327      1.0  0.15498  0.27458  0.66598  1.0000
  H   H550      1.0  0.30688  0.43708  0.95418  1.0000
  H   H551      1.0  0.32531  0.31517  0.77697  1.0000
  H   H552      1.0  0.39083  0.42510  0.96750  1.0000
  H   H553      1.0  0.14649  0.38376  0.90058  1.0000
  H   H554      1.0  0.39649  0.27679  0.90128  1.0000
  H   H555      1.0  0.32585  0.23815  0.85126  1.0000
  H   H556      1.0  0.26740  0.45783  0.92260  1.0000
  C   C328      1.0  0.15771  0.43988  0.69748  1.0000
  H   H557      1.0  0.16033  0.42819  0.65601  1.0000
  H   H558      1.0  0.43021  0.40314  0.96783  1.0000
  C   C329      1.0  0.18090  0.39107  0.86241  1.0000
  H   H559      1.0  0.43296  0.24345  0.92818  1.0000
  C   C330      1.0  0.42368  0.39831  0.95710  1.0000
  S   S91       1.0  0.30525  0.23923  0.66525  1.0000
  H   H560      1.0  0.30750  0.30592  0.75402  1.0000
  C   C331      1.0  0.16055  0.38405  0.90502  1.0000
  H   H561      1.0  0.19670  0.38915  0.89565  1.0000
  H   H562      1.0  0.17065  0.40390  0.86681  1.0000
  C   C332      1.0  0.19626  0.37327  0.89826  1.0000
  H   H563      1.0  0.18595  0.35993  0.86847  1.0000
  H   H564      1.0  0.40068  0.46511  0.96730  1.0000
  C   C333      1.0  0.29838  0.32044  0.66904  1.0000
  C   C334      1.0  0.19122  0.26823  0.72100  1.0000
  H   H565      1.0  0.48055  0.27321  0.85897  1.0000
  H   H566      1.0  0.15831  0.25447  0.76805  1.0000
  H   H567      1.0  0.28552  0.46447  0.81765  1.0000
  H   H568      1.0  0.28441  0.42076  0.94428  1.0000
  H   H569      1.0  0.33143  0.45732  0.83357  1.0000
  H   H570      1.0  0.26443  0.48203  0.81548  1.0000
  H   H571      1.0  0.17270  0.43273  0.69909  1.0000
  C   C335      1.0  0.12577  0.40263  0.66038  1.0000
  H   H572      1.0  0.38603  0.41759  0.94679  1.0000
  H   H573      1.0  0.20176  0.43809  0.67693  1.0000
  H   H574      1.0  0.15918  0.26020  0.70621  1.0000
  H   H575      1.0  0.26111  0.27802  0.77941  1.0000
  H   H576      1.0  0.42704  0.24665  0.85938  1.0000
  C   C336      1.0  0.18971  0.46572  0.68769  1.0000
  C   C337      1.0  0.28779  0.48186  0.93607  1.0000
  H   H577      1.0  0.15116  0.43007  0.69126  1.0000
  H   H578      1.0  0.38497  0.29089  0.84846  1.0000
  H   H579      1.0  0.29000  0.30006  0.65380  1.0000
  C   C338      1.0  0.48274  0.36583  0.82701  1.0000
  C   C339      1.0  0.28259  0.45857  0.96570  1.0000
  H   H580      1.0  0.31419  0.45866  0.95847  1.0000
  C   C340      1.0  0.30302  0.30590  0.65470  1.0000
  H   H581      1.0  0.32440  0.27461  0.91010  1.0000
  H   H582      1.0  0.27379  0.44801  0.97502  1.0000
  H   H583      1.0  0.48572  0.37728  0.83410  1.0000
  S   S92       1.0  0.11134  0.24068  0.84987  1.0000
  C   C341      1.0  0.48773  0.24823  0.84323  1.0000
  H   H584      1.0  0.11222  0.41146  0.66680  1.0000
  H   H585      1.0  0.37215  0.24051  0.76311  1.0000
  C   C342      1.0  0.25473  0.47756  0.95106  1.0000
  H   H586      1.0  0.36055  0.44296  0.95989  1.0000
  C   C343      1.0  0.35384  0.24194  0.90386  1.0000
  H   H587      1.0  0.21440  0.45747  0.66564  1.0000
  H   H588      1.0  0.47543  0.24142  0.85231  1.0000
  H   H589      1.0  0.46900  0.27617  0.83831  1.0000
  H   H590      1.0  0.18155  0.24553  0.77535  1.0000
  H   H591      1.0  0.40673  0.47294  0.94144  1.0000
  H   H592      1.0  0.22181  0.25484  0.71300  1.0000
  H   H593      1.0  0.31251  0.32362  0.67102  1.0000
  C   C344      1.0  0.21262  0.26338  0.72391  1.0000
  C   C345      1.0  0.41224  0.46411  0.95436  1.0000
  H   H594      1.0  0.15036  0.24705  0.72902  1.0000
  C   C346      1.0  0.28380  0.35167  0.67910  1.0000
  S   S93       1.0  0.32674  0.48212  0.88491  1.0000
  H   H595      1.0  0.30292  0.47471  0.93158  1.0000
  H   H596      1.0  0.14370  0.48110  0.71074  1.0000
  H   H597      1.0  0.30455  0.48059  0.84206  1.0000
  H   H598      1.0  0.34619  0.23761  0.91882  1.0000
  C   C347      1.0  0.27898  0.47956  0.81980  1.0000
  H   H599      1.0  0.31295  0.29420  0.89438  1.0000
  H   H600      1.0  0.20425  0.26785  0.66030  1.0000
  H   H601      1.0  0.31334  0.29315  0.66030  1.0000
  H   H602      1.0  0.22532  0.47542  0.96567  1.0000
  H   H603      1.0  0.24910  0.48410  0.93734  1.0000
  H   H604      1.0  0.27987  0.48514  0.90692  1.0000
  Fe  Fe48      1.0  0.12984  0.62653  0.28299  1.0000
  S   S94       1.0  0.13647  0.65604  0.28328  1.0000
  H   H605      1.0  0.38116  0.58680  0.22679  1.0000
  Fe  Fe49      1.0  0.14531  0.62881  0.23969  1.0000
  S   S95       1.0  0.15207  0.65871  0.23631  1.0000
  S   S96       1.0  0.15063  0.61453  0.21324  1.0000
  Fe  Fe50      1.0  0.16431  0.64718  0.26366  1.0000
  Fe  Fe51      1.0  0.12374  0.66506  0.25601  1.0000
  S   S97       1.0  0.10321  0.69300  0.24952  1.0000
  S   S98       1.0  0.15930  0.61663  0.26600  1.0000
  S   S99       1.0  0.11535  0.63615  0.25669  1.0000
  S   S100      1.0  0.47341  0.58734  0.15890  1.0000
  S   S101      1.0  0.47116  0.62053  0.06833  1.0000
  Fe  Fe52      1.0  0.38222  0.65164  0.20604  1.0000
  S   S102      1.0  0.37786  0.68201  0.21245  1.0000
  S   S103      1.0  0.39501  0.64598  0.17568  1.0000
  Fe  Fe53      1.0  0.36142  0.63641  0.24665  1.0000
  S   S104      1.0  0.35608  0.66517  0.25647  1.0000
  C   C348      1.0  0.41827  0.55892  0.15582  1.0000
  Fe  Fe54      1.0  0.34792  0.67683  0.22711  1.0000
  S   S105      1.0  0.31888  0.69440  0.22280  1.0000
  Fe  Fe55      1.0  0.38651  0.66721  0.24106  1.0000
  S   S106      1.0  0.40993  0.67367  0.25448  1.0000
  S   S107      1.0  0.35160  0.64781  0.21809  1.0000
  S   S108      1.0  0.39270  0.63714  0.23368  1.0000
  Fe  Fe56      1.0  0.40654  0.56709  0.02080  1.0000
  S   S109      1.0  0.37984  0.58605  0.03324  1.0000
  S   S110      1.0  0.43652  0.56477  0.02875  1.0000
  H   H606      1.0  0.40359  0.61850  0.99300  1.0000
  H   H607      1.0  0.46488  0.69983  0.20665  1.0000
  H   H608      1.0  0.33626  0.55051  0.19418  1.0000
  Fe  Fe57      1.0  0.36502  0.56041  0.03600  1.0000
  S   S111      1.0  0.34196  0.55318  0.06184  1.0000
  S   S112      1.0  0.39219  0.54050  0.02557  1.0000
  Fe  Fe58      1.0  0.30361  0.60451  0.15064  1.0000
  S   S113      1.0  0.30250  0.63204  0.16199  1.0000
  S   S114      1.0  0.33374  0.59325  0.13576  1.0000
  Fe  Fe59      1.0  0.26029  0.60429  0.16534  1.0000
  S   S115      1.0  0.25602  0.63152  0.17773  1.0000
  S   S116      1.0  0.23451  0.59034  0.16577  1.0000
  Fe  Fe60      1.0  0.27489  0.64212  0.15007  1.0000
  S   S117      1.0  0.26916  0.67126  0.13160  1.0000
  Fe  Fe61      1.0  0.28387  0.61873  0.18846  1.0000
  S   S118      1.0  0.28735  0.61944  0.21891  1.0000
  S   S119      1.0  0.27723  0.61578  0.13657  1.0000
  S   S120      1.0  0.28700  0.59021  0.17829  1.0000
  H   H609      1.0  0.45063  0.65442  0.23527  1.0000
  H   H610      1.0  0.26111  0.67091  0.17297  1.0000
  C   C349      1.0  0.34019  0.56359  0.08277  1.0000
  C   C350      1.0  0.32279  0.56457  0.09613  1.0000
  C   C351      1.0  0.32059  0.57375  0.11238  1.0000
  C   C352      1.0  0.33593  0.58168  0.11554  1.0000
  C   C353      1.0  0.35341  0.58052  0.10231  1.0000
  C   C354      1.0  0.35550  0.57163  0.08589  1.0000
  H   H611      1.0  0.31089  0.55840  0.09377  1.0000
  H   H612      1.0  0.30707  0.57453  0.12253  1.0000
  H   H613      1.0  0.36529  0.58668  0.10469  1.0000
  H   H614      1.0  0.36898  0.57083  0.07573  1.0000
  H   H615      1.0  0.34794  0.61750  0.16443  1.0000
  H   H616      1.0  0.31793  0.57958  0.24751  1.0000
  C   C355      1.0  0.21132  0.67266  0.28289  1.0000
  H   H617      1.0  0.32084  0.72877  0.23956  1.0000
  C   C356      1.0  0.30518  0.67596  0.22431  1.0000
  C   C357      1.0  0.29552  0.67554  0.20913  1.0000
  C   C358      1.0  0.28960  0.65828  0.20756  1.0000
  C   C359      1.0  0.29265  0.64172  0.22160  1.0000
  C   C360      1.0  0.30072  0.64271  0.23765  1.0000
  C   C361      1.0  0.30710  0.65975  0.23892  1.0000
  H   H618      1.0  0.29361  0.68811  0.19801  1.0000
  H   H619      1.0  0.28311  0.65763  0.19529  1.0000
  H   H620      1.0  0.30303  0.63001  0.24863  1.0000
  H   H621      1.0  0.31454  0.65994  0.25069  1.0000
  C   C362      1.0  0.46135  0.60444  0.05823  1.0000
  C   C363      1.0  0.47188  0.58641  0.05460  1.0000
  C   C364      1.0  0.46394  0.57440  0.04578  1.0000
  C   C365      1.0  0.44525  0.58003  0.04087  1.0000
  C   C366      1.0  0.43439  0.59772  0.04522  1.0000
  C   C367      1.0  0.44251  0.60997  0.05360  1.0000
  N   N26       1.0  0.17514  0.72644  0.24399  1.0000
  H   H622      1.0  0.47245  0.56072  0.04255  1.0000
  H   H623      1.0  0.41984  0.60200  0.04197  1.0000
  H   H624      1.0  0.43417  0.62380  0.05655  1.0000
  C   C368      1.0  0.41654  0.62928  0.17155  1.0000
  C   C369      1.0  0.42391  0.61602  0.18667  1.0000
  C   C370      1.0  0.44133  0.60310  0.18269  1.0000
  C   C371      1.0  0.45160  0.60363  0.16367  1.0000
  C   C372      1.0  0.44406  0.61679  0.14861  1.0000
  C   C373      1.0  0.42658  0.62948  0.15253  1.0000
  H   H625      1.0  0.41621  0.61567  0.20140  1.0000
  H   H626      1.0  0.44696  0.59280  0.19439  1.0000
  H   H627      1.0  0.42094  0.63967  0.14076  1.0000
  C   C374      1.0  0.17446  0.60798  0.20106  1.0000
  C   C375      1.0  0.17686  0.59794  0.18552  1.0000
  C   C376      1.0  0.19533  0.59268  0.17501  1.0000
  C   C377      1.0  0.21170  0.59765  0.17965  1.0000
  C   C378      1.0  0.20944  0.60788  0.19514  1.0000
  C   C379      1.0  0.19080  0.61293  0.20597  1.0000
  H   H628      1.0  0.16434  0.59407  0.18165  1.0000
  H   H629      1.0  0.19694  0.58471  0.16318  1.0000
  H   H630      1.0  0.22204  0.61158  0.19893  1.0000
  H   H631      1.0  0.18907  0.62058  0.21806  1.0000
  H   H632      1.0  0.41566  0.56321  0.17042  1.0000
  C   C380      1.0  0.10852  0.70673  0.28140  1.0000
  C   C381      1.0  0.10183  0.71106  0.26363  1.0000
  C   C382      1.0  0.46166  0.68481  0.21144  1.0000
  C   C383      1.0  0.10753  0.72149  0.29221  1.0000
  H   H633      1.0  0.11451  0.69208  0.28690  1.0000
  C   C384      1.0  0.06311  0.60534  0.30318  1.0000
  N   N27       1.0  0.24645  0.61265  0.27294  1.0000
  C   C385      1.0  0.24429  0.60346  0.25624  1.0000
  C   C386      1.0  0.26416  0.60126  0.28088  1.0000
  C   C387      1.0  0.24948  0.63334  0.26504  1.0000
  C   C388      1.0  0.22808  0.61199  0.28769  1.0000
  C   C389      1.0  0.22881  0.61456  0.24388  1.0000
  H   H634      1.0  0.14557  0.71228  0.27080  1.0000
  H   H635      1.0  0.25832  0.60139  0.24609  1.0000
  H   H636      1.0  0.24042  0.58871  0.26148  1.0000
  H   H637      1.0  0.27660  0.57339  0.29574  1.0000
  H   H638      1.0  0.04985  0.64496  0.30006  1.0000
  H   H639      1.0  0.25869  0.63423  0.25041  1.0000
  H   H640      1.0  0.23545  0.64275  0.26279  1.0000
  H   H641      1.0  0.21561  0.62141  0.28161  1.0000
  H   H642      1.0  0.22373  0.59735  0.29085  1.0000
  H   H643      1.0  0.21396  0.61589  0.25246  1.0000
  H   H644      1.0  0.23201  0.62911  0.23654  1.0000
  H   H645      1.0  0.22879  0.60623  0.23225  1.0000
  H   H646      1.0  0.42279  0.60981  0.00602  1.0000
  H   H647      1.0  0.26746  0.60772  0.29247  1.0000
  H   H648      1.0  0.46841  0.68454  0.18056  1.0000
  C   C390      1.0  0.17536  0.70571  0.25401  1.0000
  C   C391      1.0  0.31304  0.59952  0.04117  1.0000
  H   H649      1.0  0.32554  0.60193  0.23628  1.0000
  H   H650      1.0  0.19562  0.70003  0.13257  1.0000
  N   N28       1.0  0.31822  0.62812  0.05590  1.0000
  C   C392      1.0  0.33142  0.63382  0.03705  1.0000
  C   C393      1.0  0.31840  0.60658  0.05827  1.0000
  C   C394      1.0  0.32689  0.63209  0.07213  1.0000
  C   C395      1.0  0.29819  0.63990  0.05517  1.0000
  C   C396      1.0  0.33497  0.65507  0.03245  1.0000
  H   H651      1.0  0.39976  0.57562  0.08726  1.0000
  C   C397      1.0  0.31535  0.62811  0.09279  1.0000
  C   C398      1.0  0.28080  0.63074  0.06756  1.0000
  H   H652      1.0  0.34592  0.62433  0.03654  1.0000
  H   H653      1.0  0.45268  0.63117  0.01574  1.0000
  H   H654      1.0  0.30869  0.60119  0.07162  1.0000
  H   H655      1.0  0.33315  0.59857  0.06013  1.0000
  H   H656      1.0  0.34177  0.62350  0.07225  1.0000
  H   H657      1.0  0.32858  0.64758  0.07006  1.0000
  H   H658      1.0  0.29733  0.65427  0.05956  1.0000
  H   H659      1.0  0.29507  0.64336  0.04003  1.0000
  H   H660      1.0  0.45286  0.60975  0.00582  1.0000
  H   H661      1.0  0.14907  0.69288  0.25707  1.0000
  H   H662      1.0  0.32651  0.64298  0.28125  1.0000
  C   C399      1.0  0.41272  0.56977  0.11353  1.0000
  H   H663      1.0  0.45648  0.55323  0.12916  1.0000
  H   H664      1.0  0.34575  0.63643  0.17811  1.0000
  H   H665      1.0  0.36857  0.56774  0.21216  1.0000
  H   H666      1.0  0.31121  0.61350  0.09657  1.0000
  C   C400      1.0  0.29932  0.72851  0.17328  1.0000
  C   C401      1.0  0.18177  0.66091  0.29976  1.0000
  H   H667      1.0  0.06050  0.71421  0.29234  1.0000
  H   H668      1.0  0.04964  0.65614  0.26863  1.0000
  Fe  Fe62      1.0  0.37312  0.59281  0.00298  1.0000
  C   C402      1.0  0.42142  0.73589  0.24539  1.0000
  H   H669      1.0  0.24154  0.61436  0.31263  1.0000
  H   H670      1.0  0.02278  0.55828  0.30093  1.0000
  C   C403      1.0  0.45606  0.62470  0.00224  1.0000
  C   C404      1.0  0.44591  0.63832  0.98612  1.0000
  H   H671      1.0  0.45474  0.62859  0.23946  1.0000
  H   H672      1.0  0.42842  0.66970  0.20962  1.0000
  H   H673      1.0  0.29380  0.72285  0.25784  1.0000
  H   H674      1.0  0.26740  0.64172  0.06708  1.0000
  C   C405      1.0  0.46024  0.64062  0.20875  1.0000
  C   C406      1.0  0.43503  0.72028  0.25204  1.0000
  H   H675      1.0  0.05358  0.53759  0.30167  1.0000
  S   S121      1.0  0.35936  0.62337  0.99295  1.0000
  H   H676      1.0  0.43344  0.64119  0.23040  1.0000
  C   C407      1.0  0.33201  0.69357  0.16857  1.0000
  H   H677      1.0  0.08227  0.65019  0.29749  1.0000
  C   C408      1.0  0.15604  0.70011  0.26565  1.0000
  H   H678      1.0  0.29712  0.72379  0.14495  1.0000
  N   N29       1.0  0.19840  0.67249  0.16834  1.0000
  C   C409      1.0  0.19449  0.66847  0.19030  1.0000
  C   C410      1.0  0.17990  0.67152  0.16157  1.0000
  C   C411      1.0  0.20304  0.69283  0.16224  1.0000
  C   C412      1.0  0.21533  0.65781  0.16116  1.0000
  C   C413      1.0  0.21114  0.66996  0.20062  1.0000
  C   C414      1.0  0.17229  0.65199  0.16819  1.0000
  C   C415      1.0  0.20764  0.70011  0.14027  1.0000
  C   C416      1.0  0.21679  0.65341  0.14044  1.0000
  H   H679      1.0  0.18137  0.67836  0.19610  1.0000
  H   H680      1.0  0.19120  0.65352  0.19568  1.0000
  H   H681      1.0  0.18123  0.67474  0.14558  1.0000
  H   H682      1.0  0.16802  0.68298  0.16677  1.0000
  H   H683      1.0  0.19092  0.70346  0.16853  1.0000
  H   H684      1.0  0.21607  0.69425  0.16786  1.0000
  H   H685      1.0  0.22922  0.66240  0.16178  1.0000
  H   H686      1.0  0.21500  0.64354  0.17091  1.0000
  H   H687      1.0  0.22502  0.66106  0.19523  1.0000
  H   H688      1.0  0.21323  0.68519  0.19940  1.0000
  H   H689      1.0  0.41689  0.64279  0.01802  1.0000
  H   H690      1.0  0.18386  0.63932  0.16619  1.0000
  H   H691      1.0  0.16511  0.65044  0.18363  1.0000
  H   H692      1.0  0.16107  0.65144  0.15957  1.0000
  H   H693      1.0  0.17293  0.72327  0.28489  1.0000
  H   H694      1.0  0.21003  0.71542  0.13800  1.0000
  H   H695      1.0  0.43587  0.69560  0.17986  1.0000
  H   H696      1.0  0.23239  0.65065  0.13385  1.0000
  H   H697      1.0  0.20974  0.66512  0.13026  1.0000
  H   H698      1.0  0.21139  0.63965  0.14101  1.0000
  H   H699      1.0  0.29682  0.64445  0.30673  1.0000
  H   H700      1.0  0.45206  0.59162  0.11424  1.0000
  H   H701      1.0  0.20385  0.72656  0.25002  1.0000
  H   H702      1.0  0.40420  0.55621  0.15339  1.0000
  N   N30       1.0  0.43101  0.57211  0.11984  1.0000
  H   H703      1.0  0.37765  0.71815  0.28716  1.0000
  H   H704      1.0  0.28215  0.62600  0.08302  1.0000
  H   H705      1.0  0.29749  0.73411  0.22263  1.0000
  C   C417      1.0  0.30412  0.63069  0.30261  1.0000
  C   C418      1.0  0.43123  0.70127  0.25486  1.0000
  C   C419      1.0  0.33026  0.61198  0.28276  1.0000
  C   C420      1.0  0.19593  0.72974  0.23749  1.0000
  H   H706      1.0  0.48530  0.62589  0.17955  1.0000
  H   H707      1.0  0.30232  0.63940  0.09503  1.0000
  C   C421      1.0  0.00907  0.55763  0.31132  1.0000
  C   C422      1.0  0.44906  0.64161  0.22951  1.0000
  C   C423      1.0  0.46785  0.67361  0.19411  1.0000
  H   H708      1.0  0.30337  0.72055  0.18725  1.0000
  H   H709      1.0  0.15878  0.68987  0.27906  1.0000
  H   H710      1.0  0.31875  0.67235  0.12568  1.0000
  Fe  Fe63      1.0  0.38430  0.55088  0.99560  1.0000
  H   H711      1.0  0.11286  0.71809  0.30589  1.0000
  C   C424      1.0  0.08226  0.60906  0.29994  1.0000
  H   H712      1.0  0.13724  0.72074  0.23840  1.0000
  C   C425      1.0  0.21272  0.67994  0.29935  1.0000
  S   S122      1.0  0.19364  0.65516  0.26208  1.0000
  C   C426      1.0  0.30369  0.71538  0.15763  1.0000
  H   H713      1.0  0.46979  0.67778  0.22344  1.0000
  C   C427      1.0  0.22762  0.61846  0.30721  1.0000
  C   C428      1.0  0.33704  0.72322  0.14569  1.0000
  H   H714      1.0  0.30418  0.67833  0.14777  1.0000
  C   C429      1.0  0.40424  0.73233  0.24094  1.0000
  H   H715      1.0  0.45308  0.64239  0.17142  1.0000
  H   H716      1.0  0.44164  0.68929  0.26041  1.0000
  H   H717      1.0  0.33737  0.61699  0.20840  1.0000
  C   C430      1.0  0.37318  0.70479  0.29655  1.0000
  C   C431      1.0  0.45868  0.55083  0.09947  1.0000
  C   C432      1.0  0.43481  0.66555  0.19523  1.0000
  C   C433      1.0  0.05546  0.68057  0.28041  1.0000
  H   H718      1.0  0.32264  0.68229  0.17469  1.0000
  H   H719      1.0  0.32560  0.59850  0.02915  1.0000
  S   S123      1.0  0.35602  0.56874  0.00652  1.0000
  H   H720      1.0  0.45658  0.62756  0.20469  1.0000
  H   H721      1.0  0.33524  0.56333  0.22046  1.0000
  H   H722      1.0  0.30062  0.58268  0.31288  1.0000
  H   H723      1.0  0.27834  0.61825  0.06174  1.0000
  H   H724      1.0  0.38380  0.69232  0.29169  1.0000
  H   H725      1.0  0.22207  0.67467  0.26994  1.0000
  C   C434      1.0  0.35561  0.66971  0.31069  1.0000
  H   H726      1.0  0.24995  0.69749  0.19240  1.0000
  H   H727      1.0  0.25221  0.64284  0.29222  1.0000
  H   H728      1.0  0.27730  0.60180  0.26936  1.0000
  H   H729      1.0  0.42697  0.65375  0.19439  1.0000
  H   H730      1.0  0.34147  0.69479  0.12660  1.0000
  C   C435      1.0  0.31911  0.67738  0.13939  1.0000
  C   C436      1.0  0.35046  0.62058  0.17832  1.0000
  C   C437      1.0  0.33834  0.60958  0.19595  1.0000
  C   C438      1.0  0.46293  0.65172  0.17378  1.0000
  H   H731      1.0  0.20734  0.66440  0.21638  1.0000
  C   C439      1.0  0.06079  0.66564  0.26636  1.0000
  H   H732      1.0  0.43360  0.62029  0.09724  1.0000
  C   C440      1.0  0.25218  0.70077  0.17671  1.0000
  H   H733      1.0  0.22140  0.69186  0.13358  1.0000
  H   H734      1.0  0.37413  0.70557  0.31170  1.0000
  C   C441      1.0  0.20842  0.71747  0.22249  1.0000
  H   H735      1.0  0.13871  0.73479  0.21485  1.0000
  H   H736      1.0  0.35846  0.68062  0.14987  1.0000
  H   H737      1.0  0.18625  0.70151  0.26392  1.0000
  C   C442      1.0  0.34844  0.55727  0.18490  1.0000
  H   H738      1.0  0.00194  0.57288  0.31206  1.0000
  C   C443      1.0  0.32281  0.59508  0.29176  1.0000
  H   H739      1.0  0.22476  0.68719  0.29924  1.0000
  C   C444      1.0  0.26321  0.57978  0.28949  1.0000
  H   H740      1.0  0.29506  0.70345  0.16340  1.0000
  H   H741      1.0  0.32131  0.66558  0.03446  1.0000
  H   H742      1.0  0.22344  0.72078  0.21959  1.0000
  H   H743      1.0  0.36099  0.66572  0.29598  1.0000
  H   H744      1.0  0.31781  0.70636  0.12358  1.0000
  H   H745      1.0  0.36221  0.55097  0.19036  1.0000
  H   H746      1.0  0.30943  0.58464  0.04606  1.0000
  H   H747      1.0  0.34402  0.71828  0.29344  1.0000
  H   H748      1.0  0.41283  0.68799  0.18348  1.0000
  C   C445      1.0  0.48375  0.64028  0.17007  1.0000
  H   H749      1.0  0.18045  0.69554  0.24334  1.0000
  N   N31       1.0  0.45634  0.65816  0.19338  1.0000
  H   H750      1.0  0.43888  0.57845  0.14549  1.0000
  H   H751      1.0  0.41468  0.58861  0.14225  1.0000
  H   H752      1.0  0.42897  0.54531  0.15643  1.0000
  H   H753      1.0  0.41905  0.61364  0.12000  1.0000
  N   N32       1.0  0.34233  0.68911  0.30950  1.0000
  H   H754      1.0  0.40045  0.58141  0.11756  1.0000
  H   H755      1.0  0.03407  0.69547  0.31038  1.0000
  C   C446      1.0  0.36578  0.58298  0.20451  1.0000
  C   C447      1.0  0.42544  0.60880  0.10595  1.0000
  H   H756      1.0  0.26080  0.71251  0.12045  1.0000
  H   H757      1.0  0.32317  0.61240  0.19315  1.0000
  H   H758      1.0  0.38738  0.71051  0.23991  1.0000
  H   H759      1.0  0.27494  0.63698  0.27639  1.0000
  H   H760      1.0  0.07525  0.65671  0.26730  1.0000
  H   H761      1.0  0.33773  0.72988  0.15839  1.0000
  C   C448      1.0  0.25935  0.64332  0.27693  1.0000
  H   H762      1.0  0.34187  0.65823  0.01698  1.0000
  C   C449      1.0  0.42594  0.57555  0.14065  1.0000
  H   H763      1.0  0.35491  0.66906  0.17430  1.0000
  H   H764      1.0  0.36319  0.69222  0.16833  1.0000
  H   H765      1.0  0.06149  0.67355  0.25122  1.0000
  H   H766      1.0  0.33001  0.58123  0.28779  1.0000
  H   H767      1.0  0.43135  0.67918  0.16520  1.0000
  H   H768      1.0  0.47597  0.63711  0.20981  1.0000
  H   H769      1.0  0.45149  0.61701  0.13386  1.0000
  C   C450      1.0  0.25855  0.68572  0.16573  1.0000
  C   C451      1.0  0.41407  0.69770  0.25053  1.0000
  C   C452      1.0  0.40062  0.71321  0.24337  1.0000
  H   H770      1.0  0.04041  0.68813  0.27905  1.0000
  H   H771      1.0  0.36619  0.61738  0.17892  1.0000
  H   H772      1.0  0.25886  0.65885  0.27033  1.0000
  H   H773      1.0  0.06499  0.69169  0.27421  1.0000
  C   C453      1.0  0.35246  0.70335  0.29418  1.0000
  C   C454      1.0  0.26159  0.68993  0.14546  1.0000
  H   H774      1.0  0.32455  0.62893  0.10341  1.0000
  C   C455      1.0  0.32632  0.69713  0.13455  1.0000
  C   C456      1.0  0.43959  0.58940  0.10809  1.0000
  H   H775      1.0  0.33101  0.70136  0.18089  1.0000
  H   H776      1.0  0.41375  0.60816  0.09799  1.0000
  C   C457      1.0  0.42870  0.68309  0.17993  1.0000
  C   C458      1.0  0.44597  0.55385  0.11924  1.0000
  H   H777      1.0  0.43892  0.54072  0.12465  1.0000
  H   H778      1.0  0.40756  0.55620  0.12162  1.0000
  H   H779      1.0  0.44598  0.58709  0.09314  1.0000
  C   C459      1.0  0.25849  0.70921  0.13614  1.0000
  H   H780      1.0  0.20317  0.72112  0.20836  1.0000
  H   H781      1.0  0.46922  0.56112  0.09482  1.0000
  H   H782      1.0  0.46747  0.53606  0.10103  1.0000
  H   H783      1.0  0.30044  0.60901  0.03547  1.0000
  H   H784      1.0  0.08785  0.67388  0.29210  1.0000
  C   C460      1.0  0.41386  0.56878  0.09188  1.0000
  H   H785      1.0  0.20956  0.70168  0.22800  1.0000
  H   H786      1.0  0.42464  0.57686  0.08203  1.0000
  H   H787      1.0  0.44118  0.65259  0.99125  1.0000
  C   C461      1.0  0.19580  0.66319  0.28309  1.0000
  H   H788      1.0  0.45022  0.55180  0.08781  1.0000
  H   H789      1.0  0.41698  0.55348  0.08934  1.0000
  H   H790      1.0  0.37619  0.58358  0.19056  1.0000
  N   N33       1.0  0.34518  0.58803  0.20054  1.0000
  H   H791      1.0  0.32900  0.66609  0.14745  1.0000
  S   S124      1.0  0.35150  0.60969  0.26520  1.0000
  H   H792      1.0  0.30320  0.71292  0.30838  1.0000
  C   C462      1.0  0.25235  0.72428  0.14709  1.0000
  C   C463      1.0  0.24914  0.72005  0.16736  1.0000
  H   H793      1.0  0.35239  0.71718  0.14037  1.0000
  H   H794      1.0  0.36014  0.60451  0.22504  1.0000
  C   C464      1.0  0.32963  0.58603  0.23697  1.0000
  C   C465      1.0  0.33121  0.57937  0.21734  1.0000
  C   C466      1.0  0.06085  0.70641  0.30738  1.0000
  H   H795      1.0  0.08923  0.61403  0.28540  1.0000
  H   H796      1.0  0.34528  0.65750  0.04118  1.0000
  H   H797      1.0  0.17005  0.65319  0.30016  1.0000
  H   H798      1.0  0.32550  0.63163  0.02445  1.0000
  H   H799      1.0  0.05540  0.60764  0.29108  1.0000
  C   C467      1.0  0.32085  0.62987  0.28812  1.0000
  C   C468      1.0  0.37209  0.59601  0.21635  1.0000
  H   H800      1.0  0.34316  0.58072  0.24318  1.0000
  H   H801      1.0  0.34982  0.55329  0.17030  1.0000
  H   H802      1.0  0.38150  0.60598  0.20675  1.0000
  H   H803      1.0  0.48699  0.63734  0.15490  1.0000
  C   C469      1.0  0.30616  0.59591  0.30598  1.0000
  C   C470      1.0  0.34412  0.57960  0.18296  1.0000
  H   H804      1.0  0.17092  0.71800  0.21768  1.0000
  H   H805      1.0  0.31723  0.71435  0.28392  1.0000
  H   H806      1.0  0.31629  0.58230  0.21365  1.0000
  H   H807      1.0  0.35457  0.58505  0.17018  1.0000
  C   C471      1.0  0.35337  0.68349  0.16489  1.0000
  H   H808      1.0  0.32951  0.58436  0.17866  1.0000
  N   N34       1.0  0.32480  0.70733  0.15160  1.0000
  C   C472      1.0  0.09376  0.73017  0.25692  1.0000
  H   H809      1.0  0.35359  0.69953  0.27950  1.0000
  H   H810      1.0  0.44596  0.68676  0.21720  1.0000
  H   H811      1.0  0.02949  0.66298  0.30582  1.0000
  H   H812      1.0  0.44831  0.72294  0.25545  1.0000
  C   C473      1.0  0.14333  0.73320  0.22915  1.0000
  H   H813      1.0  0.39800  0.62826  0.02566  1.0000
  C   C474      1.0  0.41557  0.62324  0.99791  1.0000
  S   S125      1.0  0.48744  0.62582  0.11459  1.0000
  H   H814      1.0  0.33094  0.73438  0.11591  1.0000
  H   H815      1.0  0.08823  0.73354  0.24338  1.0000
  C   C475      1.0  0.40602  0.63673  0.01285  1.0000
  H   H816      1.0  0.02725  0.52372  0.30380  1.0000
  C   C476      1.0  0.16571  0.73017  0.22611  1.0000
  H   H817      1.0  0.48337  0.66721  0.19430  1.0000
  H   H818      1.0  0.39508  0.64862  0.00697  1.0000
  S   S126      1.0  0.11623  0.61117  0.31212  1.0000
  H   H819      1.0  0.22272  0.63434  0.30638  1.0000
  H   H820      1.0  0.35211  0.73157  0.22264  1.0000
  H   H821      1.0  0.29817  0.70030  0.29147  1.0000
  C   C477      1.0  0.31019  0.70481  0.29643  1.0000
  H   H822      1.0  0.25079  0.57819  0.30151  1.0000
  H   H823      1.0  0.26279  0.57113  0.27829  1.0000
  H   H824      1.0  0.46222  0.66434  0.16177  1.0000
  H   H825      1.0  0.27417  0.73339  0.27417  1.0000
  H   H826      1.0  0.47206  0.62342  0.99776  1.0000
  C   C478      1.0  0.29677  0.61361  0.31154  1.0000
  H   H827      1.0  0.07605  0.70161  0.30970  1.0000
  S   S127      1.0  0.40101  0.57595  0.98996  1.0000
  H   H828      1.0  0.28346  0.73366  0.17619  1.0000
  C   C479      1.0  0.04930  0.68938  0.31253  1.0000
  H   H829      1.0  0.99942  0.51179  0.30457  1.0000
  H   H830      1.0  0.32784  0.67790  0.29109  1.0000
  H   H831      1.0  0.03261  0.73088  0.10225  1.0000
  H   H832      1.0  0.43993  0.58991  0.98742  1.0000
  C   C480      1.0  0.04463  0.65715  0.30840  1.0000
  H   H833      1.0  0.99929  0.55079  0.30541  1.0000
  C   C481      1.0  0.07828  0.66453  0.30250  1.0000
  H   H834      1.0  0.01085  0.72664  0.13016  1.0000
  C   C482      1.0  0.32407  0.68639  0.30328  1.0000
  N   N35       1.0  0.05722  0.67273  0.30142  1.0000
  H   H835      1.0  0.48636  0.58194  0.05810  1.0000
  H   H836      1.0  0.04589  0.73496  0.07019  1.0000
  H   H837      1.0  0.31517  0.67770  0.31525  1.0000
  C   C483      1.0  0.09239  0.60607  0.31547  1.0000
  H   H838      1.0  0.34857  0.52801  0.98234  1.0000
  C   C484      1.0  0.18269  0.54260  0.47637  1.0000
  Fe  Fe64      1.0  0.01581  0.58201  0.39943  1.0000
  S   S128      1.0  0.11772  0.71987  0.57137  1.0000
  S   S129      1.0  0.03963  0.57695  0.41822  1.0000
  Fe  Fe65      1.0  0.01364  0.58895  0.35634  1.0000
  H   H839      1.0  0.13888  0.67114  0.62498  1.0000
  S   S130      1.0  0.02203  0.56198  0.37713  1.0000
  H   H840      1.0  0.02656  0.56080  0.53369  1.0000
  Fe  Fe66      1.0  0.12206  0.59005  0.50443  1.0000
  S   S131      1.0  0.09749  0.61012  0.51877  1.0000
  S   S132      1.0  0.13384  0.55907  0.51674  1.0000
  Fe  Fe67      1.0  0.12877  0.62038  0.46781  1.0000
  S   S133      1.0  0.10491  0.64261  0.47964  1.0000
  S   S134      1.0  0.14353  0.62734  0.43689  1.0000
  Fe  Fe68      1.0  0.11674  0.63314  0.50779  1.0000
  S   S135      1.0  0.13116  0.64903  0.52460  1.0000
  Fe  Fe69      1.0  0.08812  0.61755  0.48919  1.0000
  S   S136      1.0  0.05765  0.61931  0.48261  1.0000
  S   S137      1.0  0.14175  0.61230  0.49481  1.0000
  S   S138      1.0  0.11151  0.59605  0.47584  1.0000
  Fe  Fe70      1.0  0.22700  0.67165  0.34675  1.0000
  S   S139      1.0  0.23083  0.64010  0.35965  1.0000
  C   C485      1.0  0.04339  0.64750  0.32986  1.0000
  Fe  Fe71      1.0  0.26549  0.67687  0.35413  1.0000
  S   S140      1.0  0.27284  0.64598  0.36843  1.0000
  S   S141      1.0  0.28469  0.69957  0.34737  1.0000
  Fe  Fe72      1.0  0.26153  0.63915  0.34371  1.0000
  H   H841      1.0  0.17185  0.66716  0.32884  1.0000
  Fe  Fe73      1.0  0.24155  0.64960  0.38324  1.0000
  S   S142      1.0  0.23157  0.63909  0.41518  1.0000
  H   H842      1.0  0.32112  0.72466  0.32214  1.0000
  S   S143      1.0  0.23550  0.68135  0.37133  1.0000
  S   S144      1.0  0.16961  0.71067  0.58716  1.0000
  H   H843      1.0  0.32578  0.68807  0.33870  1.0000
  Fe  Fe74      1.0  0.16379  0.70311  0.61956  1.0000
  H   H844      1.0  0.16734  0.70837  0.47745  1.0000
  H   H845      1.0  0.11498  0.60855  0.39225  1.0000
  C   C486      1.0  0.20502  0.72828  0.36250  1.0000
  H   H846      1.0  0.03276  0.50201  0.31975  1.0000
  H   H847      1.0  0.09433  0.56451  0.50779  1.0000
  H   H848      1.0  0.07034  0.54018  0.31619  1.0000
  H   H849      1.0  0.08842  0.62984  0.44253  1.0000
  H   H850      1.0  0.20452  0.67824  0.46338  1.0000
  C   C487      1.0  0.13565  0.65748  0.62188  1.0000
  H   H851      1.0  0.21028  0.71725  0.35276  1.0000
  H   H852      1.0  0.08037  0.66862  0.60451  1.0000
  S   S145      1.0  0.09039  0.52440  0.59929  1.0000
  H   H853      1.0  0.15791  0.53424  0.46774  1.0000
  H   H854      1.0  0.24902  0.67164  0.64450  1.0000
  C   C488      1.0  0.17135  0.67113  0.48925  1.0000
  H   H855      1.0  0.09348  0.64020  0.62503  1.0000
  H   H856      1.0  0.12427  0.70344  0.48475  1.0000
  C   C489      1.0  0.10320  0.66547  0.63999  1.0000
  C   C490      1.0  0.22813  0.71282  0.61974  1.0000
  C   C491      1.0  0.21736  0.72125  0.60494  1.0000
  S   S146      1.0  0.25261  0.71272  0.64450  1.0000
  H   H857      1.0  0.20790  0.71306  0.60096  1.0000
  C   C492      1.0  0.26731  0.70982  0.38256  1.0000
  C   C493      1.0  0.27701  0.71582  0.36389  1.0000
  H   H858      1.0  0.04845  0.66502  0.39135  1.0000
  H   H859      1.0  0.26523  0.69486  0.38714  1.0000
  H   H860      1.0  0.24099  0.71873  0.33846  1.0000
  C   C494      1.0  0.12332  0.54974  0.54059  1.0000
  C   C495      1.0  0.10986  0.56171  0.55202  1.0000
  C   C496      1.0  0.10045  0.55382  0.57030  1.0000
  C   C497      1.0  0.10457  0.53392  0.57748  1.0000
  C   C498      1.0  0.11856  0.52199  0.56639  1.0000
  C   C499      1.0  0.12786  0.52989  0.54794  1.0000
  H   H861      1.0  0.10659  0.57705  0.54681  1.0000
  H   H862      1.0  0.08983  0.56316  0.57891  1.0000
  H   H863      1.0  0.12178  0.50661  0.57177  1.0000
  H   H864      1.0  0.13832  0.52051  0.53925  1.0000
  C   C500      1.0  0.12684  0.66906  0.53724  1.0000
  C   C501      1.0  0.10921  0.68185  0.53893  1.0000
  C   C502      1.0  0.10677  0.69757  0.54907  1.0000
  C   C503      1.0  0.12185  0.70065  0.55765  1.0000
  C   C504      1.0  0.13955  0.68801  0.55568  1.0000
  C   C505      1.0  0.14198  0.67231  0.54560  1.0000
  H   H865      1.0  0.09744  0.67961  0.53252  1.0000
  C   C506      1.0  0.01203  0.54729  0.33197  1.0000
  H   H866      1.0  0.15133  0.69026  0.56205  1.0000
  H   H867      1.0  0.15572  0.66257  0.54433  1.0000
  C   C507      1.0  0.16780  0.63121  0.43155  1.0000
  C   C508      1.0  0.17543  0.63841  0.41239  1.0000
  C   C509      1.0  0.19488  0.64113  0.40737  1.0000
  C   C510      1.0  0.20697  0.63631  0.42140  1.0000
  C   C511      1.0  0.19932  0.62918  0.44065  1.0000
  C   C512      1.0  0.17970  0.62682  0.44578  1.0000
  H   H868      1.0  0.16629  0.64189  0.40133  1.0000
  H   H869      1.0  0.20052  0.64689  0.39258  1.0000
  H   H870      1.0  0.20865  0.62549  0.45155  1.0000
  H   H871      1.0  0.17387  0.62145  0.46062  1.0000
  C   C513      1.0  0.14570  0.67135  0.47076  1.0000
  S   S147      1.0  0.19983  0.68760  0.33616  1.0000
  H   H872      1.0  0.17456  0.72897  0.35964  1.0000
  H   H873      1.0  0.09302  0.70729  0.55045  1.0000
  H   H874      1.0  0.09237  0.64665  0.32602  1.0000
  N   N36       1.0  0.11432  0.65956  0.62108  1.0000
  H   H875      1.0  0.16496  0.65257  0.60606  1.0000
  H   H876      1.0  0.03324  0.63683  0.33284  1.0000
  H   H877      1.0  0.04825  0.55046  0.49506  1.0000
  H   H878      1.0  0.18132  0.52617  0.45334  1.0000
  H   H879      1.0  0.03847  0.55908  0.56193  1.0000
  H   H880      1.0  0.02015  0.49003  0.37453  1.0000
  H   H881      1.0  0.05423  0.71726  0.31709  1.0000
  H   H882      1.0  0.25318  0.71844  0.40996  1.0000
  H   H883      1.0  0.18969  0.55937  0.50620  1.0000
  H   H884      1.0  0.17452  0.51461  0.47757  1.0000
  H   H885      1.0  0.15089  0.65586  0.46919  1.0000
  H   H886      1.0  0.16027  0.67126  0.50263  1.0000
  H   H887      1.0  0.09985  0.62308  0.35700  1.0000
  H   H888      1.0  0.01813  0.55715  0.33860  1.0000
  C   C514      1.0  0.04378  0.58886  0.43643  1.0000
  C   C515      1.0  0.06068  0.58191  0.44476  1.0000
  C   C516      1.0  0.06516  0.59117  0.45870  1.0000
  C   C517      1.0  0.05267  0.60744  0.46473  1.0000
  C   C518      1.0  0.03559  0.61422  0.45666  1.0000
  C   C519      1.0  0.03124  0.60511  0.44246  1.0000
  H   H889      1.0  0.07042  0.56929  0.44032  1.0000
  H   H890      1.0  0.07815  0.58551  0.46494  1.0000
  H   H891      1.0  0.02570  0.62667  0.46133  1.0000
  H   H892      1.0  0.01814  0.61061  0.43629  1.0000
  H   H893      1.0  0.19738  0.53496  0.47906  1.0000
  C   C520      1.0  0.08767  0.55193  0.50698  1.0000
  C   C521      1.0  0.06396  0.59578  0.33755  1.0000
  H   H894      1.0  0.10602  0.63577  0.42178  1.0000
  C   C522      1.0  0.11133  0.62588  0.36395  1.0000
  S   S148      1.0  0.00892  0.60919  0.37796  1.0000
  H   H895      1.0  0.34565  0.72422  0.32533  1.0000
  H   H896      1.0  0.05698  0.59066  0.35209  1.0000
  H   H897      1.0  0.06846  0.61925  0.42392  1.0000
  N   N37       1.0  0.05756  0.55736  0.53414  1.0000
  H   H898      1.0  0.33570  0.72712  0.52707  1.0000
  H   H899      1.0  0.03039  0.59305  0.52906  1.0000
  C   C523      1.0  0.15415  0.57033  0.44664  1.0000
  C   C524      1.0  0.00205  0.51125  0.31954  1.0000
  C   C525      1.0  0.09041  0.63488  0.42658  1.0000
  H   H900      1.0  0.19148  0.55239  0.43667  1.0000
  C   C526      1.0  0.08652  0.58926  0.39037  1.0000
  C   C527      1.0  0.19395  0.57305  0.47542  1.0000
  H   H901      1.0  0.06546  0.58341  0.51456  1.0000
  H   H902      1.0  0.16449  0.58983  0.46004  1.0000
  H   H903      1.0  0.19381  0.58847  0.46838  1.0000
  C   C528      1.0  0.33785  0.69505  0.32938  1.0000
  H   H904      1.0  0.20959  0.56657  0.47486  1.0000
  C   C529      1.0  0.07563  0.61032  0.38903  1.0000
  H   H905      1.0  0.05171  0.64867  0.41329  1.0000
  H   H906      1.0  0.16934  0.57720  0.49956  1.0000
  C   C530      1.0  0.08731  0.68145  0.60371  1.0000
  H   H907      1.0  0.17038  0.68821  0.44041  1.0000
  H   H908      1.0  0.22678  0.69824  0.62714  1.0000
  H   H909      1.0  0.04687  0.53401  0.34641  1.0000
  S   S149      1.0  0.30881  0.70774  0.63824  1.0000
  H   H910      1.0  0.04659  0.60793  0.53210  1.0000
  C   C531      1.0  0.16405  0.57397  0.46281  1.0000
  H   H911      1.0  0.24925  0.73351  0.54846  1.0000
  H   H912      1.0  0.17019  0.64027  0.48979  1.0000
  H   H913      1.0  0.07303  0.52990  0.52602  1.0000
  C   C532      1.0  0.07602  0.54448  0.52682  1.0000
  H   H914      1.0  0.11636  0.62003  0.59863  1.0000
  H   H915      1.0  0.18042  0.66465  0.45018  1.0000
  H   H916      1.0  0.13473  0.72231  0.48982  1.0000
  H   H917      1.0  0.31402  0.71752  0.55538  1.0000
  H   H918      1.0  0.13991  0.64589  0.63391  1.0000
  H   H919      1.0  0.03975  0.53876  0.52786  1.0000
  H   H920      1.0  0.08561  0.69096  0.58958  1.0000
  C   C533      1.0  0.19691  0.56080  0.44533  1.0000
  C   C534      1.0  0.06055  0.57827  0.53016  1.0000
  H   H921      1.0  0.08641  0.54175  0.53723  1.0000
  S   S150      1.0  0.02944  0.59554  0.32559  1.0000
  H   H922      1.0  0.15392  0.57147  0.47679  1.0000
  C   C535      1.0  0.19603  0.68703  0.45230  1.0000
  S   S151      1.0  0.27541  0.61343  0.32897  1.0000
  H   H923      1.0  0.11737  0.62819  0.62777  1.0000
  C   C536      1.0  0.11202  0.63597  0.59812  1.0000
  C   C537      1.0  0.10910  0.67591  0.60506  1.0000
  H   H924      1.0  0.04271  0.52368  0.55789  1.0000
  H   H925      1.0  0.12460  0.61572  0.35914  1.0000
  C   C538      1.0  0.10666  0.62272  0.38640  1.0000
  Fe  Fe75      1.0  0.10204  0.49798  0.61993  1.0000
  H   H926      1.0  0.07254  0.61515  0.37397  1.0000
  H   H927      1.0  0.08162  0.64955  0.42430  1.0000
  H   H928      1.0  0.04811  0.68475  0.32839  1.0000
  N   N38       1.0  0.08545  0.62456  0.39518  1.0000
  C   C539      1.0  0.08371  0.62027  0.41699  1.0000
  C   C540      1.0  0.17680  0.67977  0.45317  1.0000
  H   H929      1.0  0.06792  0.52109  0.56079  1.0000
  H   H930      1.0  0.14988  0.63741  0.60151  1.0000
  H   H931      1.0  0.11391  0.64099  0.35808  1.0000
  C   C541      1.0  0.01686  0.51674  0.35391  1.0000
  H   H932      1.0  0.13531  0.69556  0.44813  1.0000
  N   N39       1.0  0.16238  0.68111  0.47165  1.0000
  C   C542      1.0  0.24069  0.73419  0.33169  1.0000
  C   C543      1.0  0.26062  0.72311  0.39550  1.0000
  H   H933      1.0  0.18657  0.59011  0.42998  1.0000
  H   H934      1.0  0.07646  0.64758  0.37245  1.0000
  H   H935      1.0  0.11355  0.63353  0.39082  1.0000
  H   H936      1.0  0.30656  0.71306  0.58945  1.0000
  H   H937      1.0  0.08348  0.65583  0.39139  1.0000
  H   H938      1.0  0.07248  0.57985  0.53745  1.0000
  H   H939      1.0  0.18240  0.67912  0.49162  1.0000
  C   C544      1.0  0.05403  0.64977  0.39728  1.0000
  H   H940      1.0  0.17365  0.54358  0.49094  1.0000
  H   H941      1.0  0.11665  0.67284  0.59063  1.0000
  C   C545      1.0  0.24029  0.72329  0.62510  1.0000
  C   C546      1.0  0.07569  0.64486  0.38849  1.0000
  H   H942      1.0  0.21727  0.61095  0.31860  1.0000
  H   H943      1.0  0.09807  0.63967  0.59246  1.0000
  H   H944      1.0  0.04721  0.57523  0.49826  1.0000
  H   H945      1.0  0.06104  0.60952  0.39806  1.0000
  H   H946      1.0  0.06349  0.55615  0.56316  1.0000
  C   C547      1.0  0.17360  0.52892  0.46788  1.0000
  H   H947      1.0  0.00107  0.49616  0.32710  1.0000
  C   C548      1.0  0.29098  0.71865  0.58874  1.0000
  H   H948      1.0  0.13526  0.67047  0.48466  1.0000
  H   H949      1.0  0.07901  0.55576  0.49514  1.0000
  H   H950      1.0  0.20799  0.57729  0.41752  1.0000
  N   N40       1.0  0.18402  0.56257  0.46469  1.0000
  S   S152      1.0  0.25643  0.66981  0.32831  1.0000
  H   H951      1.0  0.21370  0.72359  0.37449  1.0000
  C   C549      1.0  0.05301  0.55158  0.55595  1.0000
  Fe  Fe76      1.0  0.13829  0.72465  0.59032  1.0000
  H   H952      1.0  0.99713  0.54718  0.34045  1.0000
  H   H953      1.0  0.25657  0.72679  0.57162  1.0000
  H   H954      1.0  0.10030  0.58806  0.37989  1.0000
  H   H955      1.0  0.20981  0.58769  0.43769  1.0000
  H   H956      1.0  0.04508  0.64047  0.39337  1.0000
  N   N41       1.0  0.02410  0.52719  0.33394  1.0000
  H   H957      1.0  0.07730  0.58008  0.38663  1.0000
  H   H958      1.0  0.11413  0.68930  0.60659  1.0000
  H   H959      1.0  0.13987  0.67183  0.44149  1.0000
  C   C550      1.0  0.05318  0.52970  0.56367  1.0000
  H   H960      1.0  0.00121  0.51571  0.35564  1.0000
  H   H961      1.0  0.03800  0.59097  0.55242  1.0000
  S   S153      1.0  0.17193  0.72989  0.62502  1.0000
  H   H962      1.0  0.19363  0.70258  0.45372  1.0000
  H   H963      1.0  0.09219  0.60582  0.42169  1.0000
  H   H964      1.0  0.34010  0.65552  0.33835  1.0000
  C   C551      1.0  0.15003  0.65234  0.60375  1.0000
  H   H965      1.0  0.19109  0.58464  0.50220  1.0000
  H   H966      1.0  0.28311  0.71726  0.60394  1.0000
  H   H967      1.0  0.04859  0.55723  0.31586  1.0000
  S   S154      1.0  0.13206  0.71510  0.62275  1.0000
  H   H968      1.0  0.09118  0.59630  0.34617  1.0000
  H   H969      1.0  0.28537  0.70935  0.58109  1.0000
  H   H970      1.0  0.12327  0.64274  0.58742  1.0000
  H   H971      1.0  0.01759  0.52525  0.36524  1.0000
  Fe  Fe77      1.0  0.27913  0.72521  0.64456  1.0000
  C   C552      1.0  0.13743  0.70660  0.48883  1.0000
  H   H972      1.0  0.15332  0.58326  0.43500  1.0000
  H   H973      1.0  0.02557  0.56607  0.50111  1.0000
  C   C553      1.0  0.02743  0.49596  0.35986  1.0000
  H   H974      1.0  0.09990  0.54034  0.50297  1.0000
  H   H975      1.0  0.21146  0.55234  0.44752  1.0000
  C   C554      1.0  0.20032  0.58020  0.43209  1.0000
  H   H976      1.0  0.11877  0.67939  0.45869  1.0000
  H   H977      1.0  0.07321  0.66445  0.33481  1.0000
  H   H978      1.0  0.16075  0.55737  0.43996  1.0000
  H   H979      1.0  0.14773  0.66301  0.59054  1.0000
  H   H980      1.0  0.13888  0.56851  0.45275  1.0000
  C   C555      1.0  0.10912  0.64058  0.61899  1.0000
  H   H981      1.0  0.08932  0.58306  0.40527  1.0000
  H   H982      1.0  0.28443  0.72117  0.54596  1.0000
  H   H983      1.0  0.05755  0.63907  0.33295  1.0000
  C   C556      1.0  0.15568  0.70223  0.47354  1.0000
  C   C557      1.0  0.18535  0.57349  0.49704  1.0000
  H   H984      1.0  0.15289  0.71128  0.45945  1.0000
  H   H985      1.0  0.36886  0.67030  0.31647  1.0000
  C   C558      1.0  0.08326  0.59914  0.33422  1.0000
  H   H986      1.0  0.04891  0.52762  0.57973  1.0000
  C   C559      1.0  0.04073  0.55446  0.52569  1.0000
  C   C560      1.0  0.04079  0.56190  0.50382  1.0000
  H   H987      1.0  0.18749  0.64445  0.50263  1.0000
  C   C561      1.0  0.04267  0.59313  0.53646  1.0000
  H   H988      1.0  0.07942  0.69003  0.61514  1.0000
  C   C562      1.0  0.31329  0.73355  0.55160  1.0000
  H   H989      1.0  0.20520  0.68552  0.43792  1.0000
  C   C563      1.0  0.18095  0.64974  0.48925  1.0000
  H   H990      1.0  0.03741  0.65782  0.34014  1.0000
  H   H991      1.0  0.18334  0.71082  0.37832  1.0000
  H   H992      1.0  0.19281  0.64786  0.47677  1.0000
  S   S155      1.0  0.12743  0.49807  0.63423  1.0000
  C   C564      1.0  0.13445  0.68010  0.45375  1.0000
  H   H993      1.0  0.13920  0.69857  0.50353  1.0000
  H   H994      1.0  0.02656  0.48602  0.35002  1.0000
  H   H995      1.0  0.04275  0.49572  0.36108  1.0000
  C   C565      1.0  0.34669  0.65244  0.32358  1.0000
  S   S156      1.0  0.17638  0.67391  0.63431  1.0000
  C   C566      1.0  0.04510  0.52858  0.33330  1.0000
  C   C567      1.0  0.18376  0.72609  0.37106  1.0000
  H   H996      1.0  0.17731  0.73553  0.38212  1.0000
  H   H997      1.0  0.32737  0.71889  0.34571  1.0000
  C   C568      1.0  0.05382  0.59896  0.32200  1.0000
  H   H998      1.0  0.08728  0.66703  0.64045  1.0000
  H   H999      1.0  0.33573  0.64818  0.31683  1.0000
  H   H1000     1.0  0.09580  0.67124  0.32166  1.0000
  C   C569      1.0  0.33271  0.71696  0.33035  1.0000
  C   C570      1.0  0.08487  0.66179  0.32245  1.0000
  H   H1001     1.0  0.05430  0.51400  0.33355  1.0000
  H   H1002     1.0  0.10595  0.67999  0.64144  1.0000
  H   H1003     1.0  0.35033  0.68965  0.33735  1.0000
  H   H1004     1.0  0.23337  0.65677  0.63953  1.0000
  H   H1005     1.0  0.16799  0.50710  0.64506  1.0000
  C   C571      1.0  0.02252  0.51599  0.31861  1.0000
  H   H1006     1.0  0.99018  0.52152  0.32647  1.0000
  S   S157      1.0  0.08267  0.48911  0.64826  1.0000
  C   C572      1.0  0.28004  0.73509  0.35816  1.0000
  H   H1007     1.0  0.35831  0.63959  0.32517  1.0000
  C   C573      1.0  0.19830  0.67823  0.31577  1.0000
  C   C574      1.0  0.18283  0.66874  0.31599  1.0000
  Fe  Fe78      1.0  0.99015  0.55957  0.38351  1.0000
  C   C575      1.0  0.05464  0.54169  0.31559  1.0000
  C   C576      1.0  0.24126  0.71530  0.78890  1.0000
  H   H1008     1.0  0.40298  0.64631  0.96881  1.0000
  H   H1009     1.0  0.17352  0.63707  0.65806  1.0000
  H   H1010     1.0  0.21917  0.66624  0.93267  1.0000
  S   S158      1.0  0.19468  0.72306  0.88067  1.0000
  H   H1011     1.0  0.16409  0.70378  0.69534  1.0000
  N   N42       1.0  0.22493  0.64310  0.68393  1.0000
  Fe  Fe79      1.0  0.27654  0.60260  0.81640  1.0000
  S   S159      1.0  0.30135  0.61632  0.79834  1.0000
  S   S160      1.0  0.26063  0.61383  0.84324  1.0000
  Fe  Fe80      1.0  0.27766  0.57564  0.78829  1.0000
  S   S161      1.0  0.30223  0.58724  0.76728  1.0000
  S   S162      1.0  0.26227  0.55240  0.78460  1.0000
  Fe  Fe81      1.0  0.31450  0.58557  0.79447  1.0000
  S   S163      1.0  0.34579  0.57292  0.79571  1.0000
  Fe  Fe82      1.0  0.28673  0.61687  0.77309  1.0000
  S   S164      1.0  0.27574  0.64427  0.75349  1.0000
  S   S165      1.0  0.29092  0.57196  0.81492  1.0000
  S   S166      1.0  0.26101  0.60510  0.79172  1.0000
  Fe  Fe83      1.0  0.14005  0.62117  0.73068  1.0000
  S   S167      1.0  0.12407  0.60384  0.75651  1.0000
  S   S168      1.0  0.12587  0.64965  0.71560  1.0000
  Fe  Fe84      1.0  0.17853  0.59600  0.73543  1.0000
  S   S169      1.0  0.16577  0.57684  0.76188  1.0000
  S   S170      1.0  0.20998  0.59512  0.72240  1.0000
  Fe  Fe85      1.0  0.14217  0.57766  0.74441  1.0000
  S   S171      1.0  0.13013  0.55004  0.74436  1.0000
  Fe  Fe86      1.0  0.14902  0.60483  0.77123  1.0000
  S   S172      1.0  0.14424  0.61220  0.80195  1.0000
  S   S173      1.0  0.15627  0.59516  0.71752  1.0000
  S   S174      1.0  0.16374  0.62363  0.74600  1.0000
  Fe  Fe87      1.0  0.16748  0.69939  0.85071  1.0000
  S   S175      1.0  0.19970  0.69826  0.84506  1.0000
  S   S176      1.0  0.15691  0.68956  0.82627  1.0000
  H   H1012     1.0  0.33279  0.55129  0.92967  1.0000
  H   H1013     1.0  0.23301  0.68086  0.78907  1.0000
  H   H1014     1.0  0.28580  0.69870  0.77744  1.0000
  H   H1015     1.0  0.23494  0.70735  0.81993  1.0000
  Fe  Fe88      1.0  0.19804  0.69195  0.87713  1.0000
  S   S177      1.0  0.22127  0.66956  0.88938  1.0000
  H   H1016     1.0  0.30063  0.67770  0.78739  1.0000
  S   S178      1.0  0.16609  0.69054  0.88325  1.0000
  Fe  Fe89      1.0  0.34815  0.68524  0.85077  1.0000
  S   S179      1.0  0.31930  0.67555  0.86175  1.0000
  S   S180      1.0  0.35296  0.69753  0.81871  1.0000
  Fe  Fe90      1.0  0.36088  0.67136  0.89037  1.0000
  S   S181      1.0  0.33260  0.66167  0.90467  1.0000
  S   S182      1.0  0.38598  0.66249  0.90672  1.0000
  Fe  Fe91      1.0  0.33535  0.64911  0.87777  1.0000
  S   S183      1.0  0.33215  0.61811  0.88007  1.0000
  Fe  Fe92      1.0  0.31930  0.68914  0.88746  1.0000
  S   S184      1.0  0.29135  0.70837  0.89601  1.0000
  S   S185      1.0  0.36439  0.65715  0.86421  1.0000
  S   S186      1.0  0.34731  0.70052  0.87571  1.0000
  H   H1017     1.0  0.32797  0.55213  0.83285  1.0000
  H   H1018     1.0  0.07305  0.65587  0.76938  1.0000
  C   C577      1.0  0.34017  0.54250  0.82641  1.0000
  C   C578      1.0  0.37812  0.65108  0.93034  1.0000
  C   C579      1.0  0.36140  0.65953  0.94159  1.0000
  C   C580      1.0  0.35561  0.65079  0.96076  1.0000
  C   C581      1.0  0.36618  0.63327  0.96854  1.0000
  C   C582      1.0  0.38245  0.62438  0.95705  1.0000
  C   C583      1.0  0.38870  0.63351  0.93810  1.0000
  H   H1019     1.0  0.35321  0.67312  0.93566  1.0000
  H   H1020     1.0  0.21012  0.73348  0.69987  1.0000
  H   H1021     1.0  0.39048  0.61077  0.96295  1.0000
  H   H1022     1.0  0.40160  0.62694  0.92935  1.0000
  C   C584      1.0  0.24189  0.67964  0.88925  1.0000
  C   C585      1.0  0.24308  0.69885  0.88046  1.0000
  C   C586      1.0  0.25827  0.70769  0.88258  1.0000
  C   C587      1.0  0.27280  0.69706  0.89280  1.0000
  C   C588      1.0  0.27243  0.67744  0.90043  1.0000
  C   C589      1.0  0.25682  0.66880  0.89887  1.0000
  H   H1023     1.0  0.23235  0.70691  0.87195  1.0000
  H   H1024     1.0  0.26942  0.67161  0.85350  1.0000
  H   H1025     1.0  0.28386  0.66908  0.90804  1.0000
  H   H1026     1.0  0.25620  0.65380  0.90533  1.0000
  C   C590      1.0  0.15118  0.63231  0.80880  1.0000
  C   C591      1.0  0.14700  0.63458  0.82845  1.0000
  C   C592      1.0  0.15030  0.65132  0.83431  1.0000
  C   C593      1.0  0.15761  0.66618  0.82051  1.0000
  C   C594      1.0  0.16256  0.66352  0.80095  1.0000
  C   C595      1.0  0.15971  0.64656  0.79516  1.0000
  H   H1027     1.0  0.14044  0.62367  0.83916  1.0000
  H   H1028     1.0  0.14607  0.65327  0.84934  1.0000
  H   H1029     1.0  0.16802  0.67499  0.79011  1.0000
  H   H1030     1.0  0.16327  0.64498  0.78002  1.0000
  C   C596      1.0  0.27875  0.61350  0.85667  1.0000
  C   C597      1.0  0.27817  0.62884  0.86650  1.0000
  C   C598      1.0  0.29443  0.63022  0.87420  1.0000
  C   C599      1.0  0.31081  0.61572  0.87285  1.0000
  C   C600      1.0  0.31070  0.59961  0.86442  1.0000
  C   C601      1.0  0.29490  0.59876  0.85589  1.0000
  H   H1031     1.0  0.26542  0.63993  0.86758  1.0000
  H   H1032     1.0  0.29434  0.64252  0.88105  1.0000
  H   H1033     1.0  0.32321  0.58822  0.86362  1.0000
  H   H1034     1.0  0.29532  0.58674  0.84858  1.0000
  C   C602      1.0  0.24873  0.56285  0.76609  1.0000
  C   C603      1.0  0.25307  0.58000  0.75407  1.0000
  C   C604      1.0  0.24143  0.58950  0.74030  1.0000
  C   C605      1.0  0.22515  0.58209  0.73871  1.0000
  C   C606      1.0  0.22077  0.56485  0.75066  1.0000
  C   C607      1.0  0.23274  0.55507  0.76420  1.0000
  H   H1035     1.0  0.26536  0.58612  0.75543  1.0000
  H   H1036     1.0  0.24476  0.60293  0.73135  1.0000
  H   H1037     1.0  0.20823  0.55904  0.74939  1.0000
  H   H1038     1.0  0.22928  0.54184  0.77354  1.0000
  N   N43       1.0  0.30516  0.50183  0.81525  1.0000
  H   H1039     1.0  0.18966  0.72275  0.71112  1.0000
  C   C608      1.0  0.38198  0.51205  0.94530  1.0000
  H   H1040     1.0  0.23370  0.64637  0.82246  1.0000
  C   C609      1.0  0.32297  0.64104  0.82577  1.0000
  H   H1041     1.0  0.42343  0.61451  0.96131  1.0000
  C   C610      1.0  0.35107  0.54912  0.80844  1.0000
  C   C611      1.0  0.36720  0.53678  0.80054  1.0000
  C   C612      1.0  0.37216  0.51782  0.81010  1.0000
  H   H1042     1.0  0.37579  0.54181  0.78680  1.0000
  N   N44       1.0  0.10410  0.66938  0.78076  1.0000
  C   C613      1.0  0.11463  0.51292  0.70454  1.0000
  C   C614      1.0  0.11088  0.50864  0.72483  1.0000
  C   C615      1.0  0.11577  0.52023  0.73634  1.0000
  C   C616      1.0  0.12443  0.53663  0.72800  1.0000
  C   C617      1.0  0.12827  0.54121  0.70757  1.0000
  C   C618      1.0  0.12343  0.52933  0.69585  1.0000
  H   H1043     1.0  0.34935  0.65784  0.78774  1.0000
  H   H1044     1.0  0.11267  0.51646  0.75199  1.0000
  H   H1045     1.0  0.13495  0.55382  0.70084  1.0000
  H   H1046     1.0  0.12642  0.53292  0.68020  1.0000
  C   C619      1.0  0.32219  0.66690  0.72044  1.0000
  C   C620      1.0  0.31086  0.65530  0.73486  1.0000
  C   C621      1.0  0.29081  0.65775  0.73537  1.0000
  C   C622      1.0  0.27922  0.51534  0.84263  1.0000
  H   H1047     1.0  0.33770  0.66498  0.72005  1.0000
  H   H1048     1.0  0.31761  0.64454  0.74554  1.0000
  H   H1049     1.0  0.33257  0.51256  0.80541  1.0000
  H   H1050     1.0  0.25317  0.62519  0.67693  1.0000
  C   C623      1.0  0.12031  0.66067  0.76631  1.0000
  C   C624      1.0  0.15269  0.64260  0.68350  1.0000
  C   C625      1.0  0.13973  0.65657  0.69295  1.0000
  C   C626      1.0  0.13784  0.67611  0.68417  1.0000
  H   H1051     1.0  0.28677  0.69351  0.69604  1.0000
  H   H1052     1.0  0.19635  0.71962  0.92269  1.0000
  H   H1053     1.0  0.15384  0.62752  0.68986  1.0000
  H   H1054     1.0  0.12772  0.68697  0.69136  1.0000
  H   H1055     1.0  0.18741  0.68017  0.92512  1.0000
  N   N45       1.0  0.35811  0.63226  0.80846  1.0000
  C   C627      1.0  0.35084  0.50259  0.94542  1.0000
  S   S187      1.0  0.33547  0.49097  0.93604  1.0000
  H   H1056     1.0  0.14592  0.66539  0.74495  1.0000
  H   H1057     1.0  0.39882  0.65447  0.79829  1.0000
  H   H1058     1.0  0.28088  0.50657  0.79977  1.0000
  S   S188      1.0  0.32802  0.69532  0.68865  1.0000
  H   H1059     1.0  0.25438  0.48985  0.95879  1.0000
  C   C628      1.0  0.20884  0.70702  0.69022  1.0000
  C   C629      1.0  0.16220  0.66754  0.65683  1.0000
  C   C630      1.0  0.28154  0.49422  0.91729  1.0000
  H   H1060     1.0  0.17683  0.68985  0.94720  1.0000
  H   H1061     1.0  0.16183  0.49267  0.73187  1.0000
  H   H1062     1.0  0.19909  0.70020  0.68431  1.0000
  C   C631      1.0  0.33955  0.71832  0.74624  1.0000
  C   C632      1.0  0.24200  0.65858  0.65026  1.0000
  H   H1063     1.0  0.32673  0.52808  0.77182  1.0000
  H   H1064     1.0  0.26042  0.65355  0.68959  1.0000
  H   H1065     1.0  0.34725  0.70326  0.74983  1.0000
  H   H1066     1.0  0.25139  0.71082  0.77602  1.0000
  H   H1067     1.0  0.41756  0.67305  0.94578  1.0000
  H   H1068     1.0  0.29535  0.72369  0.71355  1.0000
  H   H1069     1.0  0.15960  0.72251  0.71037  1.0000
  H   H1070     1.0  0.20170  0.73235  0.94959  1.0000
  C   C633      1.0  0.16383  0.64805  0.66545  1.0000
  H   H1071     1.0  0.32023  0.62587  0.82946  1.0000
  H   H1072     1.0  0.31119  0.53996  0.79021  1.0000
  H   H1073     1.0  0.20328  0.64140  0.66710  1.0000
  C   C634      1.0  0.08270  0.64474  0.77784  1.0000
  H   H1074     1.0  0.17203  0.70291  0.92436  1.0000
  C   C635      1.0  0.22557  0.61668  0.66293  1.0000
  H   H1075     1.0  0.25891  0.65639  0.83043  1.0000
  C   C636      1.0  0.24336  0.63069  0.68949  1.0000
  H   H1076     1.0  0.34295  0.65768  0.96956  1.0000
  H   H1077     1.0  0.37650  0.49597  0.92460  1.0000
  C   C637      1.0  0.21365  0.68260  0.95724  1.0000
  N   N46       1.0  0.36581  0.58319  0.92605  1.0000
  C   C638      1.0  0.38320  0.58036  0.93601  1.0000
  C   C639      1.0  0.35153  0.60032  0.93238  1.0000
  C   C640      1.0  0.37163  0.58713  0.90431  1.0000
  C   C641      1.0  0.35700  0.56484  0.93159  1.0000
  C   C642      1.0  0.40101  0.56599  0.92847  1.0000
  C   C643      1.0  0.34259  0.59798  0.95413  1.0000
  C   C644      1.0  0.38158  0.60515  0.89610  1.0000
  C   C645      1.0  0.33741  0.56577  0.92498  1.0000
  H   H1078     1.0  0.38821  0.59436  0.93508  1.0000
  H   H1079     1.0  0.37932  0.57502  0.95183  1.0000
  H   H1080     1.0  0.33948  0.60426  0.92374  1.0000
  H   H1081     1.0  0.35854  0.61350  0.92943  1.0000
  H   H1082     1.0  0.38120  0.57431  0.89888  1.0000
  H   H1083     1.0  0.35878  0.58939  0.89708  1.0000
  H   H1084     1.0  0.36701  0.55263  0.92550  1.0000
  H   H1085     1.0  0.35483  0.56012  0.94761  1.0000
  H   H1086     1.0  0.39738  0.55149  0.92876  1.0000
  H   H1087     1.0  0.40803  0.57161  0.91364  1.0000
  H   H1088     1.0  0.41198  0.56384  0.93813  1.0000
  H   H1089     1.0  0.33261  0.61159  0.95698  1.0000
  H   H1090     1.0  0.33392  0.58604  0.95863  1.0000
  H   H1091     1.0  0.35377  0.59578  0.96351  1.0000
  H   H1092     1.0  0.37135  0.61882  0.89801  1.0000
  H   H1093     1.0  0.38633  0.60572  0.88021  1.0000
  H   H1094     1.0  0.39462  0.60485  0.90248  1.0000
  H   H1095     1.0  0.32573  0.57635  0.93170  1.0000
  H   H1096     1.0  0.22214  0.65175  0.95571  1.0000
  H   H1097     1.0  0.33844  0.56916  0.90899  1.0000
  N   N47       1.0  0.20618  0.59054  0.81751  1.0000
  C   C646      1.0  0.20668  0.61114  0.81962  1.0000
  C   C647      1.0  0.21141  0.58917  0.79616  1.0000
  C   C648      1.0  0.22156  0.57743  0.82795  1.0000
  C   C649      1.0  0.18624  0.58569  0.82642  1.0000
  C   C650      1.0  0.20362  0.61528  0.84059  1.0000
  C   C651      1.0  0.19977  0.60470  0.78267  1.0000
  C   C652      1.0  0.22387  0.55558  0.82743  1.0000
  C   C653      1.0  0.17891  0.57064  0.81792  1.0000
  H   H1098     1.0  0.22074  0.61559  0.81200  1.0000
  H   H1099     1.0  0.19518  0.62151  0.81269  1.0000
  H   H1100     1.0  0.20989  0.57485  0.79331  1.0000
  H   H1101     1.0  0.22698  0.59021  0.79081  1.0000
  H   H1102     1.0  0.23602  0.58193  0.82209  1.0000
  H   H1103     1.0  0.21872  0.57862  0.84362  1.0000
  H   H1104     1.0  0.18535  0.58048  0.84232  1.0000
  H   H1105     1.0  0.17497  0.59888  0.82525  1.0000
  H   H1106     1.0  0.19083  0.60962  0.84986  1.0000
  H   H1107     1.0  0.21679  0.60945  0.84735  1.0000
  H   H1108     1.0  0.20100  0.63125  0.84026  1.0000
  H   H1109     1.0  0.18413  0.60696  0.78862  1.0000
  H   H1110     1.0  0.20523  0.61873  0.77996  1.0000
  H   H1111     1.0  0.20146  0.60004  0.76838  1.0000
  H   H1112     1.0  0.21160  0.54922  0.83697  1.0000
  H   H1113     1.0  0.23725  0.54809  0.83322  1.0000
  H   H1114     1.0  0.22564  0.55226  0.81258  1.0000
  H   H1115     1.0  0.17583  0.57645  0.80304  1.0000
  H   H1116     1.0  0.16491  0.56742  0.82691  1.0000
  H   H1117     1.0  0.18901  0.55674  0.81771  1.0000
  H   H1118     1.0  0.37461  0.66516  0.79613  1.0000
  C   C654      1.0  0.34313  0.51182  0.96171  1.0000
  H   H1119     1.0  0.18890  0.66832  0.68790  1.0000
  H   H1120     1.0  0.09342  0.63613  0.76797  1.0000
  H   H1121     1.0  0.26903  0.63007  0.70194  1.0000
  H   H1122     1.0  0.21381  0.69677  0.70283  1.0000
  H   H1123     1.0  0.23986  0.61734  0.69964  1.0000
  H   H1124     1.0  0.24036  0.66579  0.94322  1.0000
  C   C655      1.0  0.22445  0.66583  0.94638  1.0000
  C   C656      1.0  0.29509  0.51904  0.82485  1.0000
  H   H1125     1.0  0.26697  0.69463  0.83878  1.0000
  H   H1126     1.0  0.11440  0.65552  0.75531  1.0000
  H   H1127     1.0  0.24978  0.64584  0.79926  1.0000
  S   S189      1.0  0.16125  0.73145  0.85289  1.0000
  Fe  Fe93      1.0  0.16288  0.72260  0.88483  1.0000
  H   H1128     1.0  0.10573  0.63632  0.65833  1.0000
  H   H1129     1.0  0.14223  0.67989  0.76336  1.0000
  H   H1130     1.0  0.38448  0.50834  0.80357  1.0000
  H   H1131     1.0  0.12090  0.66216  0.80404  1.0000
  H   H1132     1.0  0.32806  0.51177  0.96821  1.0000
  C   C657      1.0  0.22886  0.66126  0.66984  1.0000
  C   C658      1.0  0.23595  0.65302  0.80689  1.0000
  H   H1133     1.0  0.31345  0.70947  0.74363  1.0000
  H   H1134     1.0  0.30591  0.52579  0.82946  1.0000
  C   C659      1.0  0.16511  0.49270  0.67501  1.0000
  H   H1135     1.0  0.14785  0.69674  0.65949  1.0000
  N   N48       1.0  0.42901  0.63194  0.98063  1.0000
  N   N49       1.0  0.21185  0.70255  0.94506  1.0000
  C   C660      1.0  0.36140  0.51103  0.82796  1.0000
  C   C661      1.0  0.23499  0.67516  0.80439  1.0000
  H   H1136     1.0  0.24090  0.70445  0.94896  1.0000
  N   N50       1.0  0.25215  0.68191  0.80899  1.0000
  H   H1137     1.0  0.39704  0.51215  0.93880  1.0000
  H   H1138     1.0  0.23480  0.67124  0.67649  1.0000
  H   H1139     1.0  0.17598  0.72770  0.97695  1.0000
  C   C662      1.0  0.26988  0.67577  0.79453  1.0000
  H   H1140     1.0  0.22623  0.71394  0.78790  1.0000
  C   C663      1.0  0.26996  0.67891  0.83818  1.0000
  H   H1141     1.0  0.22542  0.73060  0.91313  1.0000
  C   C664      1.0  0.28670  0.68759  0.79071  1.0000
  C   C665      1.0  0.23408  0.72694  0.92506  1.0000
  H   H1142     1.0  0.19936  0.67870  0.96441  1.0000
  H   H1143     1.0  0.22402  0.65004  0.80054  1.0000
  H   H1144     1.0  0.09693  0.65626  0.67128  1.0000
  C   C666      1.0  0.13455  0.67402  0.75433  1.0000
  H   H1145     1.0  0.08048  0.65889  0.80206  1.0000
  H   H1146     1.0  0.12732  0.68580  0.74424  1.0000
  H   H1147     1.0  0.17110  0.72001  0.95647  1.0000
  H   H1148     1.0  0.12334  0.68493  0.79015  1.0000
  C   C667      1.0  0.19101  0.65763  0.70117  1.0000
  S   S190      1.0  0.38970  0.53285  0.97094  1.0000
  H   H1149     1.0  0.28802  0.69442  0.80289  1.0000
  H   H1150     1.0  0.08776  0.69734  0.80568  1.0000
  H   H1151     1.0  0.28486  0.67428  0.83075  1.0000
  C   C668      1.0  0.10739  0.65140  0.65868  1.0000
  C   C669      1.0  0.21376  0.63151  0.67572  1.0000
  H   H1152     1.0  0.08950  0.67429  0.82202  1.0000
  C   C670      1.0  0.44768  0.59793  0.97418  1.0000
  C   C671      1.0  0.41709  0.64963  0.97054  1.0000
  H   H1153     1.0  0.26571  0.67669  0.78005  1.0000
  C   C672      1.0  0.37864  0.63381  0.80956  1.0000
  C   C673      1.0  0.35961  0.59901  0.83130  1.0000
  C   C674      1.0  0.38354  0.65458  0.80571  1.0000
  H   H1154     1.0  0.34570  0.65794  0.82141  1.0000
  H   H1155     1.0  0.38201  0.62740  0.82430  1.0000
  H   H1156     1.0  0.38941  0.62488  0.79986  1.0000
  H   H1157     1.0  0.34924  0.60474  0.84337  1.0000
  H   H1158     1.0  0.35706  0.58400  0.83173  1.0000
  H   H1159     1.0  0.37469  0.59776  0.83381  1.0000
  H   H1160     1.0  0.38177  0.66017  0.81957  1.0000
  H   H1161     1.0  0.28888  0.49214  0.94563  1.0000
  H   H1162     1.0  0.35642  0.72187  0.78159  1.0000
  H   H1163     1.0  0.31455  0.64852  0.83779  1.0000
  H   H1164     1.0  0.10175  0.64120  0.79873  1.0000
  C   C675      1.0  0.25468  0.67240  0.82944  1.0000
  Fe  Fe94      1.0  0.19358  0.72927  0.84894  1.0000
  H   H1165     1.0  0.30306  0.70517  0.83051  1.0000
  H   H1166     1.0  0.18320  0.49145  0.71370  1.0000
  C   C676      1.0  0.09784  0.68485  0.81190  1.0000
  H   H1167     1.0  0.10415  0.49611  0.73181  1.0000
  C   C677      1.0  0.35643  0.61106  0.81137  1.0000
  C   C678      1.0  0.09094  0.68587  0.77071  1.0000
  H   H1168     1.0  0.27414  0.52901  0.84875  1.0000
  H   H1169     1.0  0.44135  0.66166  0.95023  1.0000
  H   H1170     1.0  0.21148  0.69835  0.91596  1.0000
  C   C679      1.0  0.35475  0.52105  0.96979  1.0000
  C   C680      1.0  0.37431  0.52118  0.96167  1.0000
  H   H1171     1.0  0.17611  0.72225  0.66737  1.0000
  H   H1172     1.0  0.36710  0.60363  0.80041  1.0000
  C   C681      1.0  0.34464  0.64223  0.82399  1.0000
  H   H1173     1.0  0.24950  0.72711  0.91820  1.0000
  C   C682      1.0  0.34547  0.52348  0.83631  1.0000
  C   C683      1.0  0.28220  0.67176  0.72146  1.0000
  H   H1174     1.0  0.28774  0.53049  0.81446  1.0000
  H   H1175     1.0  0.09734  0.71149  0.74946  1.0000
  H   H1176     1.0  0.24007  0.69621  0.92722  1.0000
  H   H1177     1.0  0.12900  0.64757  0.77369  1.0000
  H   H1178     1.0  0.18451  0.66497  0.71389  1.0000
  C   C684      1.0  0.11255  0.67514  0.79621  1.0000
  H   H1179     1.0  0.26810  0.50478  0.92034  1.0000
  C   C685      1.0  0.21257  0.64922  0.70227  1.0000
  H   H1180     1.0  0.34895  0.63657  0.83848  1.0000
  H   H1181     1.0  0.25912  0.70999  0.81083  1.0000
  H   H1182     1.0  0.34202  0.60921  0.80891  1.0000
  H   H1183     1.0  0.26669  0.67371  0.72180  1.0000
  H   H1184     1.0  0.07351  0.63445  0.78723  1.0000
  H   H1185     1.0  0.31710  0.64840  0.81245  1.0000
  H   H1186     1.0  0.38120  0.64277  0.77009  1.0000
  C   C686      1.0  0.15928  0.71952  0.69584  1.0000
  H   H1187     1.0  0.10598  0.69044  0.82083  1.0000
  H   H1188     1.0  0.25427  0.64650  0.65133  1.0000
  C   C687      1.0  0.35266  0.64175  0.78897  1.0000
  C   C688      1.0  0.19867  0.72641  0.69678  1.0000
  H   H1189     1.0  0.24801  0.64402  0.71345  1.0000
  H   H1190     1.0  0.26635  0.51173  0.83841  1.0000
  H   H1191     1.0  0.21254  0.63670  0.71447  1.0000
  C   C689      1.0  0.09247  0.65352  0.79084  1.0000
  C   C690      1.0  0.16714  0.49329  0.71603  1.0000
  C   C691      1.0  0.42657  0.65886  0.95030  1.0000
  H   H1192     1.0  0.37118  0.62102  0.77086  1.0000
  H   H1193     1.0  0.33892  0.63754  0.78722  1.0000
  H   H1194     1.0  0.22197  0.70907  0.67915  1.0000
  C   C692      1.0  0.36768  0.63686  0.77107  1.0000
  H   H1195     1.0  0.33090  0.70914  0.72254  1.0000
  C   C693      1.0  0.29405  0.73493  0.72288  1.0000
  H   H1196     1.0  0.25879  0.72272  0.87624  1.0000
  Fe  Fe95      1.0  0.31349  0.71627  0.66547  1.0000
  C   C694      1.0  0.32402  0.71822  0.73391  1.0000
  H   H1197     1.0  0.21870  0.66031  0.70713  1.0000
  C   C695      1.0  0.24714  0.70366  0.80810  1.0000
  H   H1198     1.0  0.33719  0.51843  0.85021  1.0000
  C   C696      1.0  0.31357  0.68073  0.70635  1.0000
  H   H1199     1.0  0.36150  0.64368  0.75773  1.0000
  C   C697      1.0  0.37036  0.50284  0.93721  1.0000
  H   H1200     1.0  0.46217  0.59957  0.97651  1.0000
  C   C698      1.0  0.29354  0.68307  0.70690  1.0000
  C   C699      1.0  0.23225  0.70659  0.93705  1.0000
  C   C700      1.0  0.31453  0.52627  0.78410  1.0000
  C   C701      1.0  0.09773  0.70594  0.76511  1.0000
  C   C702      1.0  0.25566  0.64044  0.69912  1.0000
  H   H1201     1.0  0.20486  0.62275  0.68761  1.0000
  C   C703      1.0  0.20131  0.70413  0.92829  1.0000
  H   H1202     1.0  0.07635  0.68812  0.77995  1.0000
  H   H1203     1.0  0.22125  0.68091  0.81343  1.0000
  H   H1204     1.0  0.24064  0.67471  0.83961  1.0000
  H   H1205     1.0  0.12198  0.65161  0.66168  1.0000
  C   C704      1.0  0.43597  0.61763  0.96666  1.0000
  C   C705      1.0  0.29116  0.49428  0.80634  1.0000
  C   C706      1.0  0.14915  0.68162  0.66612  1.0000
  C   C707      1.0  0.18088  0.71640  0.96745  1.0000
  H   H1206     1.0  0.42691  0.64984  0.93913  1.0000
  H   H1207     1.0  0.11253  0.70617  0.76745  1.0000
  C   C708      1.0  0.18359  0.69350  0.93191  1.0000
  C   C709      1.0  0.20211  0.71741  0.95789  1.0000
  H   H1208     1.0  0.18259  0.64584  0.70207  1.0000
  C   C710      1.0  0.35835  0.72131  0.81145  1.0000
  H   H1209     1.0  0.21507  0.67010  0.66595  1.0000
  H   H1210     1.0  0.27597  0.66020  0.79886  1.0000
  H   H1211     1.0  0.08827  0.68201  0.75715  1.0000
  H   H1212     1.0  0.22137  0.68224  0.96950  1.0000
  H   H1213     1.0  0.36203  0.72513  0.83966  1.0000
  H   H1214     1.0  0.45039  0.58849  0.96291  1.0000
  S   S191      1.0  0.10871  0.49629  0.69155  1.0000
  C   C711      1.0  0.32095  0.50867  0.79925  1.0000
  H   H1215     1.0  0.16106  0.50800  0.70913  1.0000
  H   H1216     1.0  0.44564  0.62379  0.95359  1.0000
  H   H1217     1.0  0.23359  0.60419  0.67173  1.0000
  H   H1218     1.0  0.21056  0.71669  0.96968  1.0000
  H   H1219     1.0  0.30195  0.52441  0.77805  1.0000
  H   H1220     1.0  0.08752  0.71670  0.77318  1.0000
  H   H1221     1.0  0.29302  0.50300  0.90994  1.0000
  H   H1222     1.0  0.32828  0.49686  0.79087  1.0000
  H   H1223     1.0  0.17899  0.70230  0.97681  1.0000
  H   H1224     1.0  0.28455  0.50420  0.85443  1.0000
  H   H1225     1.0  0.23569  0.62310  0.65061  1.0000
  H   H1226     1.0  0.14934  0.49877  0.67655  1.0000
  C   C712      1.0  0.36180  0.73183  0.82472  1.0000
  C   C713      1.0  0.29819  0.72100  0.82649  1.0000
  H   H1227     1.0  0.17226  0.50372  0.67868  1.0000
  H   H1228     1.0  0.28214  0.72325  0.82877  1.0000
  H   H1229     1.0  0.45726  0.64093  0.97312  1.0000
  H   H1230     1.0  0.41315  0.66145  0.97947  1.0000
  H   H1231     1.0  0.24118  0.73099  0.78861  1.0000
  H   H1232     1.0  0.35483  0.72951  0.70561  1.0000
  H   H1233     1.0  0.20596  0.73074  0.65692  1.0000
  H   H1234     1.0  0.21535  0.61067  0.65672  1.0000
  H   H1235     1.0  0.14374  0.72237  0.69412  1.0000
  C   C714      1.0  0.35858  0.73007  0.79201  1.0000
  C   C715      1.0  0.17066  0.73185  0.67858  1.0000
  H   H1236     1.0  0.29850  0.72613  0.85478  1.0000
  H   H1237     1.0  0.33283  0.72330  0.76021  1.0000
  H   H1238     1.0  0.32432  0.49309  0.83661  1.0000
  Fe  Fe96      1.0  0.10897  0.48737  0.66214  1.0000
  H   H1239     1.0  0.28586  0.72897  0.73709  1.0000
  H   H1240     1.0  0.35067  0.72734  0.73871  1.0000
  S   S192      1.0  0.28323  0.73211  0.67261  1.0000
  H   H1241     1.0  0.18456  0.73222  0.81471  1.0000
  C   C716      1.0  0.17265  0.49250  0.65324  1.0000
  H   H1242     1.0  0.29800  0.73502  0.76266  1.0000
  H   H1243     1.0  0.32325  0.73404  0.69476  1.0000
  H   H1244     1.0  0.30445  0.72482  0.81098  1.0000
  H   H1245     1.0  0.32126  0.72621  0.83912  1.0000
  C   C717      1.0  0.30540  0.73163  0.83979  1.0000
  H   H1246     1.0  0.18873  0.48975  0.65009  1.0000
  S   S193      1.0  0.36808  0.48655  0.83833  1.0000
  H   H1247     1.0  0.29922  0.48677  0.79409  1.0000
  C   C718      1.0  0.31498  0.48657  0.82971  1.0000
  Fe  Fe97      1.0  0.00374  0.82156  0.17575  1.0000
  S   S194      1.0  0.01150  0.84233  0.14847  1.0000
  S   S195      1.0  0.01062  0.81951  0.20599  1.0000
  Fe  Fe98      1.0  0.01981  0.81602  0.13357  1.0000
  S   S196      1.0  0.05075  0.80780  0.11780  1.0000
  S   S197      1.0  0.01371  0.79527  0.16139  1.0000
  Fe  Fe99      1.0  0.10850  0.78602  0.27956  1.0000
  S   S198      1.0  0.10155  0.81694  0.28531  1.0000
  H   H1248     1.0  0.01146  0.74331  0.09272  1.0000
  Fe  Fe100     1.0  0.13469  0.79606  0.24166  1.0000
  S   S199      1.0  0.13061  0.82727  0.24433  1.0000
  S   S200      1.0  0.15214  0.78292  0.21637  1.0000
  Fe  Fe101     1.0  0.13386  0.81678  0.27575  1.0000
  Fe  Fe102     1.0  0.09903  0.82448  0.25333  1.0000
  S   S201      1.0  0.07864  0.84584  0.23535  1.0000
  S   S202      1.0  0.14062  0.78558  0.27189  1.0000
  S   S203      1.0  0.10335  0.79367  0.24887  1.0000
  Fe  Fe103     1.0  0.39915  0.77973  0.25299  1.0000
  S   S204      1.0  0.39531  0.81235  0.24520  1.0000
  S   S205      1.0  0.42614  0.75964  0.24296  1.0000
  Fe  Fe104     1.0  0.36103  0.77993  0.28021  1.0000
  S   S206      1.0  0.35459  0.81238  0.27484  1.0000
  S   S207      1.0  0.15662  0.82885  0.28649  1.0000
  Fe  Fe105     1.0  0.36450  0.80945  0.24332  1.0000
  S   S208      1.0  0.34330  0.82427  0.22249  1.0000
  Fe  Fe106     1.0  0.38567  0.81176  0.27760  1.0000
  S   S209      1.0  0.39097  0.82745  0.30100  1.0000
  S   S210      1.0  0.36945  0.77703  0.24895  1.0000
  S   S211      1.0  0.39119  0.77922  0.28509  1.0000
  C   C719      1.0  0.32976  0.83600  0.31510  1.0000
  H   H1249     1.0  0.05893  0.82440  0.15304  1.0000
  H   H1250     1.0  0.27396  0.74022  0.24880  1.0000
  Fe  Fe107     1.0  0.16423  0.80874  0.02835  1.0000
  S   S212      1.0  0.14067  0.83492  0.02565  1.0000
  S   S213      1.0  0.17593  0.80007  0.05735  1.0000
  Fe  Fe108     1.0  0.12350  0.81524  0.01778  1.0000
  S   S214      1.0  0.09077  0.81825  0.02866  1.0000
  H   H1251     1.0  0.10720  0.83099  0.18014  1.0000
  S   S215      1.0  0.14632  0.78860  0.02161  1.0000
  Fe  Fe109     1.0  0.24108  0.80943  0.16094  1.0000
  S   S216      1.0  0.26604  0.81518  0.13703  1.0000
  S   S217      1.0  0.21786  0.83152  0.17404  1.0000
  Fe  Fe110     1.0  0.25070  0.76627  0.16329  1.0000
  S   S218      1.0  0.27622  0.76815  0.13925  1.0000
  C   C720      1.0  0.44742  0.84473  0.31040  1.0000
  Fe  Fe111     1.0  0.28335  0.79019  0.15460  1.0000
  S   S219      1.0  0.31394  0.78506  0.16219  1.0000
  Fe  Fe112     1.0  0.25656  0.79273  0.12392  1.0000
  S   S220      1.0  0.25321  0.79802  0.09183  1.0000
  S   S221      1.0  0.25888  0.78656  0.17943  1.0000
  S   S222      1.0  0.23071  0.78870  0.14689  1.0000
  H   H1252     1.0  0.06757  0.77895  0.18718  1.0000
  H   H1253     1.0  0.07359  0.86698  0.98551  1.0000
  H   H1254     1.0  0.29141  0.79357  0.26155  1.0000
  H   H1255     1.0  0.00140  0.77621  0.07798  1.0000
  H   H1256     1.0  0.23357  0.80149  0.23491  1.0000
  H   H1257     1.0  0.99085  0.73862  0.14509  1.0000
  H   H1258     1.0  0.21887  0.79624  0.26768  1.0000
  C   C721      1.0  0.48170  0.77103  0.27604  1.0000
  C   C722      1.0  0.19795  0.79917  0.06618  1.0000
  C   C723      1.0  0.21422  0.80619  0.05457  1.0000
  C   C724      1.0  0.23106  0.80551  0.06256  1.0000
  C   C725      1.0  0.23187  0.79792  0.08225  1.0000
  C   C726      1.0  0.21564  0.79079  0.09380  1.0000
  C   C727      1.0  0.19883  0.79149  0.08584  1.0000
  H   H1259     1.0  0.21384  0.81215  0.03944  1.0000
  H   H1260     1.0  0.24352  0.81100  0.05341  1.0000
  H   H1261     1.0  0.21608  0.78461  0.10887  1.0000
  H   H1262     1.0  0.18640  0.78592  0.09496  1.0000
  C   C728      1.0  0.19130  0.85114  0.22683  1.0000
  H   H1263     1.0  0.30068  0.85201  0.31121  1.0000
  H   H1264     1.0  0.08706  0.77188  0.22337  1.0000
  H   H1265     1.0  0.24986  0.73917  0.13982  1.0000
  H   H1266     1.0  0.21036  0.78220  0.23751  1.0000
  H   H1267     1.0  0.01470  0.73928  0.14858  1.0000
  H   H1268     1.0  0.01130  0.88990  0.21907  1.0000
  H   H1269     1.0  0.16372  0.74815  0.28593  1.0000
  H   H1270     1.0  0.42435  0.84055  0.27380  1.0000
  H   H1271     1.0  0.32222  0.79628  0.27767  1.0000
  C   C729      1.0  0.33526  0.81298  0.20592  1.0000
  C   C730      1.0  0.34658  0.79698  0.19819  1.0000
  C   C731      1.0  0.33995  0.78884  0.18467  1.0000
  C   C732      1.0  0.32174  0.79624  0.17897  1.0000
  C   C733      1.0  0.31024  0.81200  0.18698  1.0000
  C   C734      1.0  0.31709  0.82045  0.20014  1.0000
  H   H1272     1.0  0.36066  0.79116  0.20231  1.0000
  H   H1273     1.0  0.34902  0.77673  0.17855  1.0000
  H   H1274     1.0  0.29625  0.81794  0.18272  1.0000
  H   H1275     1.0  0.30825  0.83289  0.20589  1.0000
  C   C735      1.0  0.41310  0.83362  0.30421  1.0000
  C   C736      1.0  0.04064  0.75752  0.11815  1.0000
  H   H1276     1.0  0.32820  0.78011  0.23372  1.0000
  H   H1277     1.0  0.34091  0.75034  0.12628  1.0000
  H   H1278     1.0  0.30982  0.74754  0.20099  1.0000
  C   C737      1.0  0.42692  0.83973  0.28843  1.0000
  C   C738      1.0  0.48022  0.77778  0.30888  1.0000
  H   H1279     1.0  0.06344  0.79439  0.20469  1.0000
  H   H1280     1.0  0.47894  0.77714  0.26101  1.0000
  S   S223      1.0  0.13411  0.82253  0.98547  1.0000
  H   H1281     1.0  0.44562  0.77795  0.30144  1.0000
  C   C739      1.0  0.09986  0.77403  0.15840  1.0000
  C   C740      1.0  0.31658  0.77593  0.24584  1.0000
  H   H1282     1.0  0.16675  0.75592  0.24953  1.0000
  H   H1283     1.0  0.18825  0.81461  0.22912  1.0000
  C   C741      1.0  0.10024  0.92164  0.99111  1.0000
  C   C742      1.0  0.10620  0.78402  0.17283  1.0000
  H   H1284     1.0  0.44753  0.80923  0.26438  1.0000
  H   H1285     1.0  0.44558  0.78406  0.26530  1.0000
  H   H1286     1.0  0.22238  0.83709  0.27349  1.0000
  C   C743      1.0  0.16980  0.79685  0.20406  1.0000
  C   C744      1.0  0.16563  0.81717  0.20056  1.0000
  C   C745      1.0  0.18034  0.82801  0.19124  1.0000
  C   C746      1.0  0.19921  0.81848  0.18581  1.0000
  C   C747      1.0  0.20328  0.79821  0.18971  1.0000
  C   C748      1.0  0.18856  0.78741  0.19841  1.0000
  H   H1287     1.0  0.15111  0.82454  0.20488  1.0000
  H   H1288     1.0  0.17712  0.84370  0.18838  1.0000
  H   H1289     1.0  0.21784  0.79070  0.18624  1.0000
  H   H1290     1.0  0.19189  0.77173  0.20116  1.0000
  H   H1291     1.0  0.17817  0.81371  0.25393  1.0000
  H   H1292     1.0  0.06705  0.89789  0.99694  1.0000
  H   H1293     1.0  0.19640  0.78091  0.26204  1.0000
  H   H1294     1.0  0.05078  0.87436  0.01468  1.0000
  C   C749      1.0  0.06148  0.81235  0.09294  1.0000
  C   C750      1.0  0.08174  0.80742  0.08796  1.0000
  C   C751      1.0  0.09094  0.80957  0.06840  1.0000
  C   C752      1.0  0.07992  0.81638  0.05353  1.0000
  C   C753      1.0  0.05965  0.82145  0.05849  1.0000
  C   C754      1.0  0.05046  0.81958  0.07809  1.0000
  H   H1295     1.0  0.09041  0.80174  0.09930  1.0000
  H   H1296     1.0  0.10653  0.80557  0.06482  1.0000
  H   H1297     1.0  0.05099  0.82674  0.04709  1.0000
  H   H1298     1.0  0.03487  0.82343  0.08167  1.0000
  C   C755      1.0  0.03078  0.82596  0.21285  1.0000
  C   C756      1.0  0.03633  0.81678  0.23069  1.0000
  C   C757      1.0  0.05147  0.82224  0.23736  1.0000
  C   C758      1.0  0.06064  0.83756  0.22664  1.0000
  C   C759      1.0  0.05511  0.84677  0.20877  1.0000
  C   C760      1.0  0.04055  0.84070  0.20167  1.0000
  H   H1299     1.0  0.02880  0.80542  0.23950  1.0000
  H   H1300     1.0  0.05553  0.81510  0.25119  1.0000
  H   H1301     1.0  0.06220  0.85860  0.20036  1.0000
  H   H1302     1.0  0.03657  0.84778  0.18782  1.0000
  S   S224      1.0  0.17804  0.81580  0.99701  1.0000
  H   H1303     1.0  0.08609  0.87711  0.04701  1.0000
  H   H1304     1.0  0.30624  0.74169  0.16857  1.0000
  H   H1305     1.0  0.23987  0.83900  0.23724  1.0000
  H   H1306     1.0  0.99972  0.88680  0.16660  1.0000
  H   H1307     1.0  0.35168  0.75519  0.22763  1.0000
  H   H1308     1.0  0.11710  0.79291  0.16406  1.0000
  C   C761      1.0  0.44389  0.84528  0.29152  1.0000
  H   H1309     1.0  0.28196  0.76596  0.26219  1.0000
  H   H1310     1.0  0.20154  0.84773  0.21359  1.0000
  H   H1311     1.0  0.29497  0.82194  0.28653  1.0000
  H   H1312     1.0  0.09371  0.75663  0.20461  1.0000
  H   H1313     1.0  0.25434  0.82304  0.22175  1.0000
  C   C762      1.0  0.29817  0.80896  0.29695  1.0000
  C   C763      1.0  0.28362  0.73647  0.25988  1.0000
  C   C764      1.0  0.09295  0.74497  0.26761  1.0000
  H   H1314     1.0  0.23644  0.84129  0.21233  1.0000
  C   C765      1.0  0.21253  0.81189  0.26659  1.0000
  H   H1315     1.0  0.02051  0.79156  0.10613  1.0000
  C   C766      1.0  0.10001  0.74070  0.28520  1.0000
  H   H1316     1.0  0.00436  0.90253  0.19642  1.0000
  H   H1317     1.0  0.00258  0.77087  0.13141  1.0000
  C   C767      1.0  0.31367  0.79450  0.29196  1.0000
  H   H1318     1.0  0.48027  0.74209  0.27145  1.0000
  C   C768      1.0  0.29389  0.75356  0.26005  1.0000
  H   H1319     1.0  0.18483  0.78216  0.24182  1.0000
  H   H1320     1.0  0.11102  0.87064  0.04929  1.0000
  C   C769      1.0  0.19191  0.80982  0.24391  1.0000
  H   H1321     1.0  0.11281  0.76497  0.15127  1.0000
  H   H1322     1.0  0.03387  0.78359  0.08501  1.0000
  N   N51       1.0  0.19917  0.84890  0.11094  1.0000
  C   C770      1.0  0.21666  0.85891  0.10788  1.0000
  C   C771      1.0  0.18197  0.86236  0.11966  1.0000
  C   C772      1.0  0.19644  0.84594  0.09128  1.0000
  C   C773      1.0  0.20323  0.82972  0.12406  1.0000
  C   C774      1.0  0.23583  0.84849  0.09746  1.0000
  C   C775      1.0  0.18253  0.86598  0.14019  1.0000
  C   C776      1.0  0.17654  0.84160  0.08954  1.0000
  C   C777      1.0  0.18611  0.81854  0.13275  1.0000
  H   H1323     1.0  0.21384  0.87381  0.09940  1.0000
  H   H1324     1.0  0.21993  0.86079  0.12198  1.0000
  H   H1325     1.0  0.16809  0.85714  0.12067  1.0000
  H   H1326     1.0  0.18030  0.87673  0.11001  1.0000
  H   H1327     1.0  0.19894  0.85901  0.08018  1.0000
  H   H1328     1.0  0.20740  0.83381  0.08616  1.0000
  H   H1329     1.0  0.21459  0.81959  0.11625  1.0000
  H   H1330     1.0  0.20999  0.83135  0.13632  1.0000
  H   H1331     1.0  0.24739  0.85742  0.09583  1.0000
  H   H1332     1.0  0.24080  0.83433  0.10611  1.0000
  H   H1333     1.0  0.23489  0.84647  0.08265  1.0000
  H   H1334     1.0  0.16858  0.87484  0.14564  1.0000
  H   H1335     1.0  0.18419  0.85228  0.15069  1.0000
  H   H1336     1.0  0.19416  0.87428  0.14025  1.0000
  H   H1337     1.0  0.16498  0.85444  0.09080  1.0000
  H   H1338     1.0  0.17227  0.82887  0.09994  1.0000
  H   H1339     1.0  0.17743  0.83810  0.07481  1.0000
  H   H1340     1.0  0.18612  0.80713  0.12414  1.0000
  H   H1341     1.0  0.17165  0.82762  0.13421  1.0000
  H   H1342     1.0  0.18777  0.81125  0.14777  1.0000
  H   H1343     1.0  0.34471  0.83651  0.30674  1.0000
  C   C778      1.0  0.16448  0.82355  0.30945  1.0000
  C   C779      1.0  0.00970  0.88813  0.20434  1.0000
  H   H1344     1.0  0.21830  0.76986  0.31269  1.0000
  H   H1345     1.0  0.47580  0.81620  0.28862  1.0000
  C   C780      1.0  0.30179  0.79480  0.24772  1.0000
  H   H1346     1.0  0.20984  0.85004  0.24736  1.0000
  C   C781      1.0  0.19926  0.84130  0.24561  1.0000
  H   H1347     1.0  0.06978  0.75953  0.21827  1.0000
  H   H1348     1.0  0.22018  0.81587  0.21718  1.0000
  H   H1349     1.0  0.11783  0.82336  0.20150  1.0000
  H   H1350     1.0  0.08936  0.76417  0.16565  1.0000
  H   H1351     1.0  0.32362  0.77197  0.25903  1.0000
  H   H1352     1.0  0.45769  0.75381  0.28288  1.0000
  H   H1353     1.0  0.17707  0.84699  0.22678  1.0000
  H   H1354     1.0  0.04907  0.75844  0.07246  1.0000
  C   C782      1.0  0.22508  0.81616  0.23102  1.0000
  C   C783      1.0  0.99667  0.87275  0.20572  1.0000
  H   H1355     1.0  0.19904  0.81273  0.27765  1.0000
  H   H1356     1.0  0.99866  0.86259  0.21944  1.0000
  C   C784      1.0  0.08217  0.76727  0.21140  1.0000
  H   H1357     1.0  0.09168  0.81849  0.15873  1.0000
  C   C785      1.0  0.18092  0.83079  0.31134  1.0000
  H   H1358     1.0  0.39396  0.74428  0.23526  1.0000
  C   C786      1.0  0.29963  0.76486  0.22432  1.0000
  H   H1359     1.0  0.11443  0.77257  0.18253  1.0000
  H   H1360     1.0  0.18715  0.84350  0.25796  1.0000
  H   H1361     1.0  0.29388  0.79963  0.23526  1.0000
  Fe  Fe113     1.0  0.15293  0.84024  0.99375  1.0000
  H   H1362     1.0  0.22815  0.81472  0.28881  1.0000
  H   H1363     1.0  0.19412  0.77330  0.30779  1.0000
  H   H1364     1.0  0.07083  0.86159  0.02602  1.0000
  H   H1365     1.0  0.08641  0.75961  0.26249  1.0000
  H   H1366     1.0  0.06460  0.79856  0.15713  1.0000
  H   H1367     1.0  0.07616  0.82637  0.17933  1.0000
  C   C787      1.0  0.02120  0.78092  0.09638  1.0000
  C   C788      1.0  0.45223  0.79038  0.29238  1.0000
  H   H1368     1.0  0.24188  0.81829  0.26505  1.0000
  C   C789      1.0  0.22709  0.82131  0.27348  1.0000
  H   H1369     1.0  0.10091  0.85612  0.03766  1.0000
  H   H1370     1.0  0.02826  0.75497  0.06332  1.0000
  C   C790      1.0  0.19650  0.78746  0.24656  1.0000
  N   N52       1.0  0.20767  0.82002  0.24660  1.0000
  N   N53       1.0  0.30873  0.75888  0.24245  1.0000
  H   H1371     1.0  0.18871  0.86714  0.22613  1.0000
  C   C791      1.0  0.09942  0.80361  0.19857  1.0000
  H   H1372     1.0  0.12246  0.88025  0.01535  1.0000
  H   H1373     1.0  0.31817  0.85211  0.28971  1.0000
  Fe  Fe114     1.0  0.15845  0.79763  0.98992  1.0000
  S   S225      1.0  0.33996  0.76205  0.29995  1.0000
  C   C792      1.0  0.07507  0.78475  0.19648  1.0000
  H   H1374     1.0  0.44691  0.80249  0.30081  1.0000
  N   N54       1.0  0.02366  0.76052  0.10756  1.0000
  H   H1375     1.0  0.07146  0.75789  0.11519  1.0000
  H   H1376     1.0  0.28432  0.75255  0.20734  1.0000
  C   C793      1.0  0.23939  0.83091  0.22568  1.0000
  H   H1377     1.0  0.00303  0.86353  0.19435  1.0000
  C   C794      1.0  0.33067  0.73974  0.12956  1.0000
  S   S226      1.0  0.46966  0.85102  0.31321  1.0000
  S   S227      1.0  0.09939  0.75908  0.29865  1.0000
  C   C795      1.0  0.29793  0.74856  0.21362  1.0000
  H   H1378     1.0  0.47738  0.74398  0.29652  1.0000
  C   C796      1.0  0.08098  0.81367  0.17161  1.0000
  H   H1379     1.0  0.04997  0.81114  0.17593  1.0000
  C   C797      1.0  0.06270  0.81153  0.16408  1.0000
  H   H1380     1.0  0.30977  0.80671  0.24781  1.0000
  C   C798      1.0  0.11367  0.81801  0.18952  1.0000
  H   H1381     1.0  0.45434  0.85013  0.27915  1.0000
  C   C799      1.0  0.00309  0.78710  0.08642  1.0000
  N   N55       1.0  0.09029  0.79630  0.18458  1.0000
  H   H1382     1.0  0.42691  0.79955  0.27813  1.0000
  N   N56       1.0  0.09559  0.88571  0.00393  1.0000
  S   S228      1.0  0.24177  0.73880  0.18108  1.0000
  C   C800      1.0  0.48214  0.80418  0.28022  1.0000
  H   H1383     1.0  0.06140  0.77221  0.09517  1.0000
  C   C801      1.0  0.47362  0.75175  0.28234  1.0000
  H   H1384     1.0  0.08799  0.81081  0.20916  1.0000
  H   H1385     1.0  0.09388  0.78476  0.14667  1.0000
  H   H1386     1.0  0.03817  0.76835  0.12815  1.0000
  H   H1387     1.0  0.31940  0.86740  0.30620  1.0000
  N   N57       1.0  0.47411  0.78582  0.28936  1.0000
  C   C802      1.0  0.31614  0.85304  0.30540  1.0000
  C   C803      1.0  0.10057  0.87128  0.03941  1.0000
  H   H1388     1.0  0.02433  0.88341  0.19620  1.0000
  C   C804      1.0  0.31850  0.77813  0.30554  1.0000
  H   H1389     1.0  0.10786  0.79139  0.20731  1.0000
  H   H1390     1.0  0.18841  0.83939  0.29893  1.0000
  H   H1391     1.0  0.12728  0.81086  0.18143  1.0000
  H   H1392     1.0  0.04220  0.74303  0.12748  1.0000
  H   H1393     1.0  0.09852  0.85417  0.00855  1.0000
  C   C805      1.0  0.02600  0.74523  0.09489  1.0000
  C   C806      1.0  0.16545  0.74094  0.25724  1.0000
  H   H1394     1.0  0.17004  0.74333  0.21614  1.0000
  H   H1395     1.0  0.00443  0.80094  0.07622  1.0000
  H   H1396     1.0  0.28486  0.77345  0.22747  1.0000
  C   C807      1.0  0.00564  0.75884  0.12274  1.0000
  C   C808      1.0  0.32547  0.74225  0.24109  1.0000
  H   H1397     1.0  0.30063  0.75023  0.27344  1.0000
  H   H1398     1.0  0.30826  0.77472  0.21345  1.0000
  C   C809      1.0  0.10303  0.90059  0.98725  1.0000
  H   H1399     1.0  0.31613  0.74791  0.13416  1.0000
  C   C810      1.0  0.34256  0.74567  0.22439  1.0000
  H   H1400     1.0  0.47773  0.80989  0.26579  1.0000
  C   C811      1.0  0.06232  0.87612  0.02233  1.0000
  H   H1401     1.0  0.13654  0.74676  0.23492  1.0000
  C   C812      1.0  0.07407  0.89184  0.00999  1.0000
  C   C813      1.0  0.44290  0.79606  0.27382  1.0000
  H   H1402     1.0  0.07142  0.90401  0.01839  1.0000
  H   H1403     1.0  0.05479  0.88083  0.03626  1.0000
  C   C814      1.0  0.06078  0.75850  0.10556  1.0000
  H   H1404     1.0  0.14958  0.74123  0.26120  1.0000
  H   H1405     1.0  0.11641  0.86350  0.99094  1.0000
  H   H1406     1.0  0.08495  0.92731  0.99673  1.0000
  H   H1407     1.0  0.33775  0.75191  0.21031  1.0000
  C   C815      1.0  0.03799  0.74905  0.07424  1.0000
  H   H1408     1.0  0.99259  0.76033  0.11584  1.0000
  H   H1409     1.0  0.33160  0.73846  0.25485  1.0000
  H   H1410     1.0  0.06575  0.74585  0.09788  1.0000
  H   H1411     1.0  0.32531  0.82284  0.31233  1.0000
  H   H1412     1.0  0.10996  0.92322  0.00086  1.0000
  H   H1413     1.0  0.19651  0.74528  0.23110  1.0000
  C   C816      1.0  0.17321  0.73813  0.27655  1.0000
  H   H1414     1.0  0.18803  0.74174  0.27426  1.0000
  H   H1415     1.0  0.11885  0.89626  0.98221  1.0000
  C   C817      1.0  0.00585  0.73963  0.13730  1.0000
  H   H1416     1.0  0.10497  0.89920  0.02449  1.0000
  C   C818      1.0  0.10061  0.86649  0.99674  1.0000
  C   C819      1.0  0.10658  0.88472  0.02023  1.0000
  H   H1417     1.0  0.37679  0.89699  0.42716  1.0000
  H   H1418     1.0  0.23138  0.76564  0.59383  1.0000
  H   H1419     1.0  0.20299  0.75933  0.63392  1.0000
  Fe  Fe115     1.0  0.47394  0.86401  0.38114  1.0000
  S   S229      1.0  0.45109  0.87810  0.40340  1.0000
  H   H1420     1.0  0.23312  0.76282  0.33980  1.0000
  Fe  Fe116     1.0  0.21429  0.81731  0.37313  1.0000
  S   S230      1.0  0.23777  0.79564  0.36002  1.0000
  S   S231      1.0  0.18409  0.81438  0.36906  1.0000
  Fe  Fe117     1.0  0.24364  0.83147  0.39284  1.0000
  S   S232      1.0  0.26877  0.81079  0.38024  1.0000
  S   S233      1.0  0.24750  0.84965  0.41467  1.0000
  Fe  Fe118     1.0  0.25526  0.81966  0.35315  1.0000
  H   H1421     1.0  0.43999  0.94160  0.40964  1.0000
  Fe  Fe119     1.0  0.24816  0.78928  0.38856  1.0000
  S   S234      1.0  0.25401  0.75925  0.40542  1.0000
  S   S235      1.0  0.23141  0.84206  0.36486  1.0000
  S   S236      1.0  0.22353  0.80927  0.40254  1.0000
  Fe  Fe120     1.0  0.33597  0.83684  0.51546  1.0000
  S   S237      1.0  0.31951  0.86509  0.50247  1.0000
  S   S238      1.0  0.31781  0.82306  0.54260  1.0000
  Fe  Fe121     1.0  0.37291  0.84356  0.48640  1.0000
  S   S239      1.0  0.35885  0.87261  0.47269  1.0000
  S   S240      1.0  0.40327  0.82958  0.47463  1.0000
  Fe  Fe122     1.0  0.34625  0.87722  0.50363  1.0000
  S   S241      1.0  0.34219  0.90391  0.51868  1.0000
  Fe  Fe123     1.0  0.33375  0.85717  0.47315  1.0000
  S   S242      1.0  0.32540  0.85568  0.44386  1.0000
  S   S243      1.0  0.36222  0.84910  0.51705  1.0000
  S   S244      1.0  0.34830  0.82800  0.48638  1.0000
  C   C820      1.0  0.43355  0.83872  0.32622  1.0000
  H   H1422     1.0  0.24438  0.78436  0.43264  1.0000
  H   H1423     1.0  0.20979  0.78709  0.44391  1.0000
  C   C821      1.0  0.14775  0.78900  0.64411  1.0000
  H   H1424     1.0  0.39150  0.82370  0.43309  1.0000
  H   H1425     1.0  0.48841  0.80314  0.31703  1.0000
  H   H1426     1.0  0.37062  0.81326  0.43302  1.0000
  N   N58       1.0  0.24285  0.79704  0.45818  1.0000
  H   H1427     1.0  0.40580  0.82883  0.33543  1.0000
  H   H1428     1.0  0.34481  0.79654  0.32299  1.0000
  S   S245      1.0  0.40673  0.93748  0.62218  1.0000
  H   H1429     1.0  0.25080  0.75051  0.61986  1.0000
  H   H1430     1.0  0.28416  0.78295  0.45933  1.0000
  C   C822      1.0  0.29303  0.76539  0.55047  1.0000
  Fe  Fe124     1.0  0.38203  0.93796  0.60628  1.0000
  S   S246      1.0  0.38616  0.91680  0.58455  1.0000
  H   H1431     1.0  0.22209  0.75875  0.38320  1.0000
  S   S247      1.0  0.36062  0.93276  0.63373  1.0000
  C   C823      1.0  0.20621  0.75988  0.38433  1.0000
  C   C824      1.0  0.31258  0.87538  0.55788  1.0000
  H   H1432     1.0  0.25152  0.80049  0.48475  1.0000
  C   C825      1.0  0.24019  0.78078  0.44866  1.0000
  H   H1433     1.0  0.20180  0.74022  0.32600  1.0000
  H   H1434     1.0  0.29710  0.88053  0.55647  1.0000
  C   C826      1.0  0.34453  0.81733  0.34242  1.0000
  C   C827      1.0  0.35433  0.90698  0.53731  1.0000
  C   C828      1.0  0.34696  0.92259  0.54763  1.0000
  C   C829      1.0  0.35632  0.92576  0.56223  1.0000
  C   C830      1.0  0.37330  0.91341  0.56664  1.0000
  C   C831      1.0  0.38053  0.89772  0.55645  1.0000
  C   C832      1.0  0.37114  0.89450  0.54194  1.0000
  H   H1435     1.0  0.33401  0.93239  0.54417  1.0000
  H   H1436     1.0  0.35061  0.93790  0.56985  1.0000
  H   H1437     1.0  0.39370  0.88812  0.55961  1.0000
  H   H1438     1.0  0.37718  0.88258  0.53404  1.0000
  C   C833      1.0  0.32559  0.80102  0.55716  1.0000
  C   C834      1.0  0.34037  0.78688  0.54998  1.0000
  C   C835      1.0  0.34445  0.76859  0.56157  1.0000
  C   C836      1.0  0.33398  0.76454  0.58041  1.0000
  C   C837      1.0  0.31997  0.77910  0.58783  1.0000
  C   C838      1.0  0.31558  0.79714  0.57616  1.0000
  H   H1439     1.0  0.34816  0.78978  0.53532  1.0000
  H   H1440     1.0  0.48166  0.90064  0.38914  1.0000
  H   H1441     1.0  0.31224  0.77641  0.60246  1.0000
  H   H1442     1.0  0.30415  0.80802  0.58180  1.0000
  C   C839      1.0  0.26935  0.85042  0.42303  1.0000
  C   C840      1.0  0.28763  0.84205  0.41424  1.0000
  C   C841      1.0  0.30455  0.84344  0.42106  1.0000
  C   C842      1.0  0.30345  0.85265  0.43714  1.0000
  C   C843      1.0  0.28514  0.86054  0.44625  1.0000
  C   C844      1.0  0.26828  0.85968  0.43904  1.0000
  H   H1443     1.0  0.28876  0.83488  0.40192  1.0000
  H   H1444     1.0  0.31861  0.83742  0.41379  1.0000
  H   H1445     1.0  0.28402  0.86801  0.45836  1.0000
  H   H1446     1.0  0.25431  0.86650  0.44579  1.0000
  S   S248      1.0  0.14416  0.75405  0.59342  1.0000
  C   C845      1.0  0.40520  0.85145  0.40387  1.0000
  H   H1447     1.0  0.48334  0.90922  0.43640  1.0000
  H   H1448     1.0  0.40806  0.84975  0.41886  1.0000
  H   H1449     1.0  0.27510  0.76337  0.36651  1.0000
  S   S249      1.0  0.33726  0.74080  0.59376  1.0000
  C   C846      1.0  0.37485  0.86986  0.41857  1.0000
  C   C847      1.0  0.43963  0.86447  0.42442  1.0000
  C   C848      1.0  0.44468  0.84429  0.42877  1.0000
  C   C849      1.0  0.43385  0.83377  0.44468  1.0000
  C   C850      1.0  0.41780  0.84333  0.45611  1.0000
  C   C851      1.0  0.41322  0.86356  0.45210  1.0000
  C   C852      1.0  0.42420  0.87409  0.43642  1.0000
  H   H1450     1.0  0.45660  0.83675  0.41966  1.0000
  H   H1451     1.0  0.43756  0.81812  0.44782  1.0000
  H   H1452     1.0  0.40118  0.87110  0.46104  1.0000
  H   H1453     1.0  0.42037  0.88971  0.43328  1.0000
  S   S250      1.0  0.37456  0.97062  0.60320  1.0000
  C   C853      1.0  0.22631  0.83071  0.46676  1.0000
  H   H1454     1.0  0.28353  0.78909  0.34366  1.0000
  H   H1455     1.0  0.29179  0.79708  0.43652  1.0000
  Fe  Fe125     1.0  0.14082  0.74309  0.62566  1.0000
  C   C854      1.0  0.16100  0.80993  0.34389  1.0000
  C   C855      1.0  0.17730  0.81740  0.34580  1.0000
  C   C856      1.0  0.41645  0.83335  0.32311  1.0000
  H   H1456     1.0  0.15169  0.78614  0.62935  1.0000
  H   H1457     1.0  0.15297  0.80216  0.35656  1.0000
  H   H1458     1.0  0.23907  0.83799  0.46077  1.0000
  H   H1459     1.0  0.43015  0.83571  0.38709  1.0000
  C   C857      1.0  0.32127  0.88549  0.60027  1.0000
  C   C858      1.0  0.26100  0.80461  0.44709  1.0000
  H   H1460     1.0  0.45131  0.92112  0.39811  1.0000
  H   H1461     1.0  0.26432  0.81618  0.45376  1.0000
  C   C859      1.0  0.37364  0.83862  0.41050  1.0000
  H   H1462     1.0  0.27868  0.77806  0.43704  1.0000
  C   C860      1.0  0.31486  0.96473  0.59382  1.0000
  H   H1463     1.0  0.22057  0.76226  0.44549  1.0000
  H   H1464     1.0  0.34500  0.83877  0.55936  1.0000
  H   H1465     1.0  0.21398  0.79215  0.49052  1.0000
  C   C861      1.0  0.27296  0.74847  0.37096  1.0000
  C   C862      1.0  0.29480  0.85077  0.35032  1.0000
  H   H1466     1.0  0.18374  0.76606  0.36659  1.0000
  H   H1467     1.0  0.37982  0.84326  0.55594  1.0000
  C   C863      1.0  0.38951  0.87829  0.63663  1.0000
  H   H1468     1.0  0.27742  0.79445  0.55219  1.0000
  C   C864      1.0  0.19990  0.76352  0.36423  1.0000
  H   H1469     1.0  0.31215  0.89450  0.58982  1.0000
  C   C865      1.0  0.24180  0.74221  0.61548  1.0000
  S   S251      1.0  0.47810  0.88266  0.35164  1.0000
  S   S252      1.0  0.32341  0.97969  0.63730  1.0000
  H   H1470     1.0  0.47177  0.94831  0.39714  1.0000
  H   H1471     1.0  0.34571  0.88183  0.57792  1.0000
  H   H1472     1.0  0.35543  0.75743  0.55578  1.0000
  H   H1473     1.0  0.30363  0.82210  0.34250  1.0000
  H   H1474     1.0  0.38978  0.87041  0.62461  1.0000
  H   H1475     1.0  0.32448  0.85115  0.37083  1.0000
  S   S253      1.0  0.47508  0.83642  0.36961  1.0000
  C   C866      1.0  0.23058  0.79346  0.62826  1.0000
  C   C867      1.0  0.27429  0.77934  0.55639  1.0000
  H   H1476     1.0  0.21336  0.84189  0.46436  1.0000
  H   H1477     1.0  0.32787  0.86614  0.33417  1.0000
  C   C868      1.0  0.23081  0.75077  0.60077  1.0000
  H   H1478     1.0  0.26904  0.77733  0.57225  1.0000
  H   H1479     1.0  0.25607  0.73643  0.32764  1.0000
  H   H1480     1.0  0.23711  0.74349  0.35902  1.0000
  H   H1481     1.0  0.21445  0.82214  0.62866  1.0000
  H   H1482     1.0  0.43603  0.83818  0.34082  1.0000
  H   H1483     1.0  0.22769  0.76795  0.49453  1.0000
  H   H1484     1.0  0.14200  0.80722  0.32460  1.0000
  H   H1485     1.0  0.31174  0.82505  0.36345  1.0000
  C   C869      1.0  0.36498  0.84262  0.63857  1.0000
  H   H1486     1.0  0.29632  0.76879  0.53436  1.0000
  H   H1487     1.0  0.21188  0.80897  0.46213  1.0000
  C   C870      1.0  0.22987  0.74797  0.34602  1.0000
  Fe  Fe126     1.0  0.35470  0.96522  0.63172  1.0000
  C   C871      1.0  0.33830  0.87203  0.59010  1.0000
  H   H1488     1.0  0.28050  0.84786  0.34871  1.0000
  H   H1489     1.0  0.36211  0.85833  0.63308  1.0000
  S   S254      1.0  0.20219  0.75168  0.57979  1.0000
  H   H1490     1.0  0.22912  0.78625  0.50819  1.0000
  H   H1491     1.0  0.34486  0.81528  0.35823  1.0000
  C   C872      1.0  0.22807  0.78363  0.49359  1.0000
  H   H1492     1.0  0.40079  0.88779  0.63140  1.0000
  H   H1493     1.0  0.35165  0.85344  0.33072  1.0000
  C   C873      1.0  0.15474  0.81278  0.32578  1.0000
  N   N59       1.0  0.48903  0.92002  0.40538  1.0000
  H   H1494     1.0  0.31931  0.82347  0.62571  1.0000
  H   H1495     1.0  0.38172  0.86403  0.35414  1.0000
  S   S255      1.0  0.28737  0.75286  0.62675  1.0000
  H   H1496     1.0  0.29722  0.74758  0.58546  1.0000
  H   H1497     1.0  0.21312  0.77247  0.46726  1.0000
  H   H1498     1.0  0.17866  0.75798  0.64565  1.0000
  C   C874      1.0  0.31404  0.85977  0.57617  1.0000
  H   H1499     1.0  0.19994  0.83347  0.33056  1.0000
  C   C875      1.0  0.29170  0.79035  0.32913  1.0000
  H   H1500     1.0  0.24018  0.83480  0.63239  1.0000
  C   C876      1.0  0.21964  0.77557  0.45181  1.0000
  C   C877      1.0  0.21829  0.74038  0.59578  1.0000
  H   H1501     1.0  0.32711  0.78631  0.64542  1.0000
  H   H1502     1.0  0.20133  0.74685  0.39384  1.0000
  C   C878      1.0  0.36972  0.84358  0.56999  1.0000
  H   H1503     1.0  0.22556  0.81970  0.44084  1.0000
  H   H1504     1.0  0.25893  0.81135  0.43200  1.0000
  Fe  Fe127     1.0  0.39728  0.96969  0.62179  1.0000
  C   C879      1.0  0.18747  0.82751  0.32931  1.0000
  C   C880      1.0  0.47136  0.93537  0.40862  1.0000
  C   C881      1.0  0.38737  0.85553  0.36727  1.0000
  H   H1505     1.0  0.20380  0.80407  0.64587  1.0000
  H   H1506     1.0  0.37428  0.85362  0.57765  1.0000
  H   H1507     1.0  0.32727  0.89576  0.60645  1.0000
  H   H1508     1.0  0.25731  0.77678  0.47971  1.0000
  H   H1509     1.0  0.34897  0.86675  0.60021  1.0000
  N   N60       1.0  0.38359  0.85624  0.40412  1.0000
  H   H1510     1.0  0.43768  0.97164  0.64416  1.0000
  H   H1511     1.0  0.24512  0.79716  0.62164  1.0000
  C   C882      1.0  0.33382  0.83725  0.59825  1.0000
  H   H1512     1.0  0.37365  0.89978  0.40253  1.0000
  C   C883      1.0  0.22615  0.81366  0.45642  1.0000
  H   H1513     1.0  0.39707  0.88928  0.40964  1.0000
  H   H1514     1.0  0.22545  0.82617  0.48267  1.0000
  H   H1515     1.0  0.16269  0.81367  0.63849  1.0000
  H   H1516     1.0  0.40860  0.82657  0.38739  1.0000
  N   N61       1.0  0.32982  0.83483  0.33645  1.0000
  H   H1517     1.0  0.32345  0.73715  0.55987  1.0000
  H   H1518     1.0  0.30213  0.86455  0.58767  1.0000
  H   H1519     1.0  0.40341  0.85437  0.36375  1.0000
  H   H1520     1.0  0.29256  0.85437  0.36517  1.0000
  H   H1521     1.0  0.30344  0.84237  0.61377  1.0000
  H   H1522     1.0  0.31097  0.76314  0.33465  1.0000
  N   N62       1.0  0.20830  0.74811  0.35171  1.0000
  S   S256      1.0  0.27018  0.82660  0.32253  1.0000
  N   N63       1.0  0.33346  0.85521  0.58291  1.0000
  H   H1523     1.0  0.37854  0.86335  0.43318  1.0000
  H   H1524     1.0  0.41251  0.86372  0.39546  1.0000
  H   H1525     1.0  0.47160  0.76636  0.31697  1.0000
  H   H1526     1.0  0.34950  0.86313  0.55412  1.0000
  C   C884      1.0  0.34876  0.85031  0.56585  1.0000
  H   H1527     1.0  0.38488  0.88033  0.38020  1.0000
  H   H1528     1.0  0.35868  0.87235  0.42052  1.0000
  C   C885      1.0  0.27979  0.78953  0.44510  1.0000
  H   H1529     1.0  0.47477  0.89613  0.42196  1.0000
  H   H1530     1.0  0.25008  0.76714  0.45312  1.0000
  H   H1531     1.0  0.37560  0.88823  0.63943  1.0000
  C   C886      1.0  0.19840  0.75269  0.33411  1.0000
  C   C887      1.0  0.34135  0.79764  0.33868  1.0000
  C   C888      1.0  0.45166  0.92871  0.41016  1.0000
  H   H1532     1.0  0.36747  0.83516  0.44249  1.0000
  C   C889      1.0  0.48490  0.92670  0.36892  1.0000
  H   H1533     1.0  0.23212  0.77893  0.63748  1.0000
  H   H1534     1.0  0.42024  0.82128  0.40853  1.0000
  H   H1535     1.0  0.35948  0.81941  0.33493  1.0000
  C   C890      1.0  0.41617  0.83267  0.39627  1.0000
  C   C891      1.0  0.21796  0.80913  0.63968  1.0000
  H   H1536     1.0  0.30484  0.76994  0.55577  1.0000
  H   H1537     1.0  0.21430  0.85535  0.64855  1.0000
  H   H1538     1.0  0.36301  0.87039  0.38514  1.0000
  H   H1539     1.0  0.34803  0.83328  0.60340  1.0000
  H   H1540     1.0  0.28745  0.73977  0.34369  1.0000
  C   C892      1.0  0.37903  0.86645  0.38452  1.0000
  H   H1541     1.0  0.44790  0.91911  0.42418  1.0000
  H   H1542     1.0  0.39359  0.83106  0.64572  1.0000
  H   H1543     1.0  0.31965  0.86920  0.54458  1.0000
  H   H1544     1.0  0.37837  0.82812  0.40028  1.0000
  H   H1545     1.0  0.35771  0.84292  0.41053  1.0000
  H   H1546     1.0  0.33219  0.82457  0.59199  1.0000
  C   C893      1.0  0.24574  0.78976  0.47891  1.0000
  Fe  Fe128     1.0  0.48096  0.85468  0.34013  1.0000
  H   H1547     1.0  0.37167  0.82857  0.57817  1.0000
  H   H1548     1.0  0.31920  0.88811  0.55828  1.0000
  H   H1549     1.0  0.32161  0.84779  0.62587  1.0000
  H   H1550     1.0  0.31195  0.87765  0.61230  1.0000
  H   H1551     1.0  0.35150  0.78580  0.34586  1.0000
  C   C894      1.0  0.37616  0.82720  0.43090  1.0000
  H   H1552     1.0  0.47092  0.94108  0.42222  1.0000
  C   C895      1.0  0.31850  0.83820  0.61677  1.0000
  C   C896      1.0  0.31016  0.83222  0.34835  1.0000
  C   C897      1.0  0.38115  0.89005  0.41393  1.0000
  H   H1553     1.0  0.20399  0.77774  0.35678  1.0000
  H   H1554     1.0  0.31020  0.84644  0.57294  1.0000
  H   H1555     1.0  0.38314  0.84101  0.36951  1.0000
  H   H1556     1.0  0.19945  0.77250  0.39176  1.0000
  C   C898      1.0  0.26330  0.74247  0.38962  1.0000
  H   H1557     1.0  0.32640  0.75233  0.52591  1.0000
  H   H1558     1.0  0.37136  0.83540  0.62574  1.0000
  H   H1559     1.0  0.22326  0.79225  0.61625  1.0000
  H   H1560     1.0  0.29763  0.86374  0.33954  1.0000
  H   H1561     1.0  0.26276  0.77855  0.54834  1.0000
  H   H1562     1.0  0.48164  0.78491  0.33688  1.0000
  H   H1563     1.0  0.33639  0.97646  0.55189  1.0000
  H   H1564     1.0  0.46312  0.80076  0.32515  1.0000
  C   C899      1.0  0.24368  0.82440  0.64558  1.0000
  C   C900      1.0  0.30715  0.77571  0.32400  1.0000
  H   H1565     1.0  0.25612  0.81379  0.63983  1.0000
  C   C901      1.0  0.27925  0.73665  0.54769  1.0000
  H   H1566     1.0  0.32646  0.79469  0.34474  1.0000
  Fe  Fe129     1.0  0.17507  0.73891  0.59277  1.0000
  H   H1567     1.0  0.19455  0.84483  0.64420  1.0000
  H   H1568     1.0  0.35105  0.83715  0.64456  1.0000
  H   H1569     1.0  0.35017  0.84224  0.36597  1.0000
  C   C902      1.0  0.28750  0.80711  0.31569  1.0000
  C   C903      1.0  0.33694  0.85242  0.33953  1.0000
  H   H1570     1.0  0.23466  0.73689  0.31806  1.0000
  H   H1571     1.0  0.18234  0.75487  0.33855  1.0000
  C   C904      1.0  0.48701  0.90360  0.42235  1.0000
  C   C905      1.0  0.33819  0.85317  0.36075  1.0000
  H   H1572     1.0  0.19859  0.78433  0.32645  1.0000
  H   H1573     1.0  0.34130  0.86766  0.36154  1.0000
  H   H1574     1.0  0.34382  0.98232  0.57732  1.0000
  H   H1575     1.0  0.48578  0.94201  0.36884  1.0000
  C   C906      1.0  0.32254  0.98402  0.54735  1.0000
  H   H1576     1.0  0.31237  0.97346  0.54966  1.0000
  H   H1577     1.0  0.25100  0.75199  0.56126  1.0000
  N   N64       1.0  0.29291  0.74394  0.55730  1.0000
  H   H1578     1.0  0.47017  0.92549  0.36685  1.0000
  C   C907      1.0  0.19300  0.75995  0.64795  1.0000
  H   H1579     1.0  0.30464  0.95556  0.60338  1.0000
  H   H1580     1.0  0.32765  0.96254  0.60118  1.0000
  C   C908      1.0  0.20283  0.77110  0.31959  1.0000
  C   C909      1.0  0.25794  0.73746  0.55800  1.0000
  C   C910      1.0  0.32215  0.73767  0.52989  1.0000
  C   C911      1.0  0.28813  0.74019  0.57915  1.0000
  H   H1581     1.0  0.31915  0.95909  0.57997  1.0000
  H   H1582     1.0  0.27298  0.74654  0.58443  1.0000
  C   C912      1.0  0.47811  0.79268  0.32257  1.0000
  H   H1583     1.0  0.27898  0.74469  0.53265  1.0000
  Fe  Fe130     1.0  0.31770  0.73629  0.62289  1.0000
  H   H1584     1.0  0.31225  0.73607  0.52032  1.0000
  H   H1585     1.0  0.38713  0.85111  0.69392  1.0000
  H   H1586     1.0  0.15204  0.75496  0.70870  1.0000
  N   N65       1.0  0.31399  0.73775  0.72490  1.0000
  S   S257      1.0  0.15781  0.87024  0.97727  1.0000
  H   H1587     1.0  0.28508  0.75957  0.75686  1.0000
  Fe  Fe131     1.0  0.15454  0.85090  0.74130  1.0000
  S   S258      1.0  0.17907  0.83018  0.75290  1.0000
  S   S259      1.0  0.13747  0.87322  0.76014  1.0000
  Fe  Fe132     1.0  0.16007  0.83122  0.70465  1.0000
  S   S260      1.0  0.18504  0.80966  0.71415  1.0000
  S   S261      1.0  0.15654  0.82880  0.67414  1.0000
  Fe  Fe133     1.0  0.16697  0.80737  0.74352  1.0000
  S   S262      1.0  0.16426  0.77726  0.75900  1.0000
  Fe  Fe134     1.0  0.19455  0.83461  0.72222  1.0000
  S   S263      1.0  0.22541  0.83912  0.71250  1.0000
  S   S264      1.0  0.14097  0.82747  0.73400  1.0000
  S   S265      1.0  0.17094  0.85684  0.71076  1.0000
  Fe  Fe135     1.0  0.34687  0.80767  0.72591  1.0000
  S   S266      1.0  0.36412  0.82161  0.74083  1.0000
  S   S267      1.0  0.35773  0.79838  0.69675  1.0000
  Fe  Fe136     1.0  0.31180  0.80937  0.75805  1.0000
  S   S268      1.0  0.32567  0.82406  0.77545  1.0000
  S   S269      1.0  0.28306  0.79923  0.77006  1.0000
  Fe  Fe137     1.0  0.33616  0.84220  0.74707  1.0000
  S   S270      1.0  0.32959  0.87488  0.73957  1.0000
  Fe  Fe138     1.0  0.35210  0.80210  0.76783  1.0000
  S   S271      1.0  0.36712  0.78485  0.79241  1.0000
  S   S272      1.0  0.31985  0.82947  0.73042  1.0000
  S   S273      1.0  0.33743  0.78652  0.75209  1.0000
  C   C913      1.0  0.30618  0.79237  0.67074  1.0000
  Fe  Fe139     1.0  0.13612  0.93710  0.87492  1.0000
  S   S274      1.0  0.16704  0.93779  0.85999  1.0000
  S   S275      1.0  0.12577  0.91357  0.89973  1.0000
  H   H1588     1.0  0.19691  0.78835  0.89860  1.0000
  Fe  Fe140     1.0  0.15500  0.93965  0.83239  1.0000
  S   S276      1.0  0.17172  0.92017  0.81023  1.0000
  H   H1589     1.0  0.19148  0.81005  0.88205  1.0000
  S   S277      1.0  0.12443  0.93798  0.84740  1.0000
  C   C914      1.0  0.34719  0.88542  0.72171  1.0000
  C   C915      1.0  0.36685  0.87751  0.72069  1.0000
  C   C916      1.0  0.38079  0.88618  0.70660  1.0000
  C   C917      1.0  0.37513  0.90239  0.69301  1.0000
  C   C918      1.0  0.35543  0.91031  0.69394  1.0000
  C   C919      1.0  0.34151  0.90197  0.70845  1.0000
  H   H1590     1.0  0.37138  0.86495  0.73103  1.0000
  C   C920      1.0  0.34079  0.79223  0.66759  1.0000
  H   H1591     1.0  0.32632  0.90820  0.70923  1.0000
  C   C921      1.0  0.14735  0.88600  0.77406  1.0000
  C   C922      1.0  0.16726  0.88319  0.77462  1.0000
  C   C923      1.0  0.17441  0.89362  0.78588  1.0000
  C   C924      1.0  0.16180  0.90688  0.79684  1.0000
  C   C925      1.0  0.14187  0.90941  0.79654  1.0000
  C   C926      1.0  0.13474  0.89911  0.78516  1.0000
  H   H1592     1.0  0.17715  0.87315  0.76623  1.0000
  H   H1593     1.0  0.18982  0.89150  0.78605  1.0000
  H   H1594     1.0  0.13197  0.91956  0.80481  1.0000
  H   H1595     1.0  0.11933  0.90143  0.78486  1.0000
  C   C927      1.0  0.24102  0.82529  0.72796  1.0000
  C   C928      1.0  0.26098  0.82375  0.72155  1.0000
  C   C929      1.0  0.27383  0.81465  0.73428  1.0000
  C   C930      1.0  0.26689  0.80747  0.75353  1.0000
  C   C931      1.0  0.24692  0.80802  0.75974  1.0000
  C   C932      1.0  0.23396  0.81686  0.74688  1.0000
  H   H1596     1.0  0.26653  0.82989  0.70682  1.0000
  H   H1597     1.0  0.28912  0.81345  0.72923  1.0000
  H   H1598     1.0  0.24144  0.80223  0.77461  1.0000
  H   H1599     1.0  0.21859  0.81778  0.75188  1.0000
  C   C933      1.0  0.13551  0.90153  0.92085  1.0000
  C   C934      1.0  0.12795  0.88512  0.93176  1.0000
  C   C935      1.0  0.13512  0.87502  0.94864  1.0000
  C   C936      1.0  0.14954  0.88156  0.95518  1.0000
  C   C937      1.0  0.15707  0.89799  0.94435  1.0000
  C   C938      1.0  0.15028  0.90781  0.92713  1.0000
  H   H1600     1.0  0.11652  0.88016  0.92702  1.0000
  H   H1601     1.0  0.12934  0.86230  0.95666  1.0000
  H   H1602     1.0  0.16822  0.90321  0.94929  1.0000
  H   H1603     1.0  0.15622  0.92041  0.91892  1.0000
  C   C939      1.0  0.23311  0.79561  0.66833  1.0000
  C   C940      1.0  0.17651  0.75158  0.78943  1.0000
  N   N66       1.0  0.38022  0.85127  0.66553  1.0000
  C   C941      1.0  0.36451  0.76016  0.79931  1.0000
  H   H1604     1.0  0.18024  0.75011  0.90791  1.0000
  H   H1605     1.0  0.41930  0.83801  0.67699  1.0000
  H   H1606     1.0  0.30621  0.75547  0.76759  1.0000
  H   H1607     1.0  0.36760  0.75924  0.82895  1.0000
  H   H1608     1.0  0.36206  0.75589  0.77089  1.0000
  H   H1609     1.0  0.27319  0.75238  0.85333  1.0000
  C   C942      1.0  0.20006  0.75652  0.80753  1.0000
  C   C943      1.0  0.20353  0.77324  0.79419  1.0000
  C   C944      1.0  0.19310  0.77936  0.77870  1.0000
  C   C945      1.0  0.17922  0.76878  0.77664  1.0000
  S   S278      1.0  0.12731  0.75800  0.65187  1.0000
  H   H1610     1.0  0.28681  0.75932  0.69951  1.0000
  H   H1611     1.0  0.21388  0.78169  0.79611  1.0000
  H   H1612     1.0  0.19568  0.79232  0.76852  1.0000
  H   H1613     1.0  0.31488  0.78588  0.79348  1.0000
  N   N67       1.0  0.18719  0.74011  0.68259  1.0000
  S   S279      1.0  0.32548  0.74311  0.64951  1.0000
  H   H1614     1.0  0.32813  0.75703  0.84436  1.0000
  C   C946      1.0  0.16416  0.76925  0.94983  1.0000
  C   C947      1.0  0.17677  0.76336  0.93343  1.0000
  H   H1615     1.0  0.18344  0.83822  0.80580  1.0000
  C   C948      1.0  0.16622  0.75861  0.70964  1.0000
  H   H1616     1.0  0.17173  0.76967  0.67962  1.0000
  H   H1617     1.0  0.14137  0.82022  0.90177  1.0000
  C   C949      1.0  0.30339  0.79688  0.68938  1.0000
  C   C950      1.0  0.31936  0.79831  0.69738  1.0000
  C   C951      1.0  0.33800  0.79628  0.68648  1.0000
  H   H1618     1.0  0.27717  0.76457  0.72378  1.0000
  C   C952      1.0  0.23866  0.79725  0.68772  1.0000
  H   H1619     1.0  0.31739  0.80015  0.71227  1.0000
  H   H1620     1.0  0.35526  0.79033  0.65919  1.0000
  H   H1621     1.0  0.12068  0.86434  0.80560  1.0000
  H   H1622     1.0  0.34933  0.75392  0.71191  1.0000
  C   C953      1.0  0.13078  0.78160  0.67689  1.0000
  C   C954      1.0  0.14885  0.80864  0.66842  1.0000
  C   C955      1.0  0.13736  0.79694  0.68224  1.0000
  H   H1623     1.0  0.30884  0.77676  0.84733  1.0000
  H   H1624     1.0  0.24468  0.78255  0.69472  1.0000
  C   C956      1.0  0.31067  0.78239  0.80945  1.0000
  H   H1625     1.0  0.13310  0.80002  0.69691  1.0000
  H   H1626     1.0  0.27809  0.77623  0.84361  1.0000
  H   H1627     1.0  0.21495  0.82993  0.67966  1.0000
  C   C957      1.0  0.36088  0.86355  0.67132  1.0000
  C   C958      1.0  0.36501  0.75115  0.81862  1.0000
  H   H1628     1.0  0.27345  0.75282  0.81351  1.0000
  N   N68       1.0  0.25753  0.87575  0.75326  1.0000
  C   C959      1.0  0.26732  0.87028  0.77099  1.0000
  C   C960      1.0  0.25315  0.89762  0.74908  1.0000
  C   C961      1.0  0.27196  0.86843  0.73664  1.0000
  C   C962      1.0  0.23954  0.86636  0.75728  1.0000
  C   C963      1.0  0.27417  0.84840  0.77725  1.0000
  C   C964      1.0  0.24015  0.90746  0.76570  1.0000
  C   C965      1.0  0.26584  0.87346  0.71649  1.0000
  C   C966      1.0  0.22320  0.87598  0.74536  1.0000
  H   H1629     1.0  0.28024  0.87766  0.76882  1.0000
  H   H1630     1.0  0.25741  0.87516  0.78391  1.0000
  H   H1631     1.0  0.24604  0.90293  0.73613  1.0000
  H   H1632     1.0  0.26692  0.90379  0.74538  1.0000
  H   H1633     1.0  0.28598  0.87380  0.73523  1.0000
  H   H1634     1.0  0.27550  0.85235  0.73938  1.0000
  H   H1635     1.0  0.24349  0.85090  0.75525  1.0000
  H   H1636     1.0  0.23261  0.86612  0.77278  1.0000
  H   H1637     1.0  0.26234  0.83975  0.77938  1.0000
  H   H1638     1.0  0.28662  0.84262  0.76679  1.0000
  H   H1639     1.0  0.27941  0.84611  0.79133  1.0000
  H   H1640     1.0  0.24853  0.90783  0.77716  1.0000
  H   H1641     1.0  0.23466  0.92279  0.75992  1.0000
  H   H1642     1.0  0.22735  0.90034  0.77235  1.0000
  H   H1643     1.0  0.26244  0.88929  0.71148  1.0000
  H   H1644     1.0  0.25365  0.86611  0.71598  1.0000
  H   H1645     1.0  0.27819  0.86777  0.70578  1.0000
  H   H1646     1.0  0.21561  0.86450  0.74328  1.0000
  H   H1647     1.0  0.22797  0.88381  0.73074  1.0000
  H   H1648     1.0  0.21186  0.88572  0.75362  1.0000
  H   H1649     1.0  0.12155  0.77290  0.68758  1.0000
  S   S280      1.0  0.14986  0.97245  0.82728  1.0000
  H   H1650     1.0  0.32178  0.78688  0.81581  1.0000
  H   H1651     1.0  0.25007  0.80624  0.68591  1.0000
  S   S281      1.0  0.39302  0.91142  0.67445  1.0000
  C   C967      1.0  0.32461  0.74376  0.70470  1.0000
  S   S282      1.0  0.17352  0.78009  0.96569  1.0000
  H   H1652     1.0  0.22591  0.80260  0.69807  1.0000
  C   C968      1.0  0.13594  0.77753  0.65783  1.0000
  H   H1653     1.0  0.29623  0.79106  0.81355  1.0000
  H   H1654     1.0  0.19817  0.81898  0.67266  1.0000
  H   H1655     1.0  0.26620  0.77816  0.81572  1.0000
  H   H1656     1.0  0.39742  0.87332  0.66496  1.0000
  C   C969      1.0  0.32489  0.79000  0.65981  1.0000
  C   C970      1.0  0.17042  0.75416  0.92061  1.0000
  N   N69       1.0  0.22667  0.81427  0.65533  1.0000
  H   H1657     1.0  0.37763  0.83043  0.69232  1.0000
  H   H1658     1.0  0.26593  0.82761  0.66165  1.0000
  H   H1659     1.0  0.12391  0.75354  0.94345  1.0000
  N   N70       1.0  0.30163  0.75353  0.83565  1.0000
  C   C971      1.0  0.31209  0.76065  0.84871  1.0000
  H   H1660     1.0  0.15995  0.74366  0.67219  1.0000
  H   H1661     1.0  0.16592  0.74324  0.78778  1.0000
  C   C972      1.0  0.28018  0.76130  0.84011  1.0000
  C   C973      1.0  0.30740  0.75279  0.87059  1.0000
  C   C974      1.0  0.25186  0.83568  0.65777  1.0000
  C   C975      1.0  0.31238  0.75346  0.73679  1.0000
  H   H1662     1.0  0.32579  0.75309  0.81201  1.0000
  H   H1663     1.0  0.32691  0.75537  0.73871  1.0000
  C   C976      1.0  0.31052  0.76040  0.81500  1.0000
  C   C977      1.0  0.38736  0.84074  0.68403  1.0000
  H   H1664     1.0  0.40968  0.81818  0.67151  1.0000
  H   H1665     1.0  0.21147  0.97905  0.84523  1.0000
  C   C978      1.0  0.40792  0.82864  0.68163  1.0000
  H   H1666     1.0  0.37403  0.82337  0.66329  1.0000
  H   H1667     1.0  0.16296  0.77342  0.71354  1.0000
  Fe  Fe141     1.0  0.29465  0.75802  0.65411  1.0000
  S   S283      1.0  0.21110  0.74995  0.82823  1.0000
  H   H1668     1.0  0.09353  0.87388  0.96696  1.0000
  H   H1669     1.0  0.34834  0.84842  0.69957  1.0000
  H   H1670     1.0  0.21453  0.74817  0.66634  1.0000
  C   C979      1.0  0.17995  0.75915  0.68998  1.0000
  H   H1671     1.0  0.36280  0.87493  0.67908  1.0000
  H   H1672     1.0  0.34371  0.83955  0.67902  1.0000
  S   S284      1.0  0.28652  0.78759  0.66223  1.0000
  H   H1673     1.0  0.28904  0.79811  0.69804  1.0000
  C   C980      1.0  0.39469  0.86429  0.65497  1.0000
  H   H1674     1.0  0.15023  0.80985  0.78396  1.0000
  N   N71       1.0  0.13834  0.82392  0.80919  1.0000
  C   C981      1.0  0.14546  0.80590  0.79990  1.0000
  H   H1675     1.0  0.09883  0.86057  0.79976  1.0000
  C   C982      1.0  0.15401  0.80458  0.64935  1.0000
  C   C983      1.0  0.13390  0.81786  0.83094  1.0000
  C   C984      1.0  0.13085  0.79175  0.80272  1.0000
  C   C985      1.0  0.17417  0.82686  0.80787  1.0000
  C   C986      1.0  0.13441  0.83300  0.84368  1.0000
  H   H1676     1.0  0.22145  0.78643  0.67216  1.0000
  H   H1677     1.0  0.15845  0.79710  0.80566  1.0000
  H   H1678     1.0  0.10876  0.82530  0.80475  1.0000
  H   H1679     1.0  0.11940  0.81316  0.83522  1.0000
  H   H1680     1.0  0.14458  0.80492  0.83561  1.0000
  H   H1681     1.0  0.12389  0.78826  0.81805  1.0000
  H   H1682     1.0  0.11966  0.79736  0.79327  1.0000
  H   H1683     1.0  0.13865  0.77782  0.79822  1.0000
  C   C987      1.0  0.15144  0.75020  0.92427  1.0000
  H   H1684     1.0  0.18158  0.81654  0.79785  1.0000
  H   H1685     1.0  0.15578  0.84163  0.78710  1.0000
  H   H1686     1.0  0.15004  0.85013  0.80919  1.0000
  H   H1687     1.0  0.12350  0.83086  0.85710  1.0000
  H   H1688     1.0  0.13096  0.84835  0.83697  1.0000
  H   H1689     1.0  0.14862  0.83043  0.84870  1.0000
  H   H1690     1.0  0.12533  0.81948  0.92393  1.0000
  H   H1691     1.0  0.14556  0.80012  0.92119  1.0000
  C   C988      1.0  0.12037  0.83445  0.80113  1.0000
  H   H1692     1.0  0.31327  0.76136  0.87887  1.0000
  N   N72       1.0  0.17168  0.83195  0.91412  1.0000
  C   C989      1.0  0.17935  0.84495  0.92418  1.0000
  C   C990      1.0  0.16935  0.84288  0.89407  1.0000
  C   C991      1.0  0.18658  0.81374  0.91278  1.0000
  C   C992      1.0  0.15275  0.82719  0.92619  1.0000
  C   C993      1.0  0.18414  0.83609  0.94461  1.0000
  C   C994      1.0  0.15465  0.86194  0.89320  1.0000
  C   C995      1.0  0.18646  0.80210  0.89667  1.0000
  C   C996      1.0  0.14092  0.81604  0.91758  1.0000
  H   H1693     1.0  0.19276  0.84985  0.91519  1.0000
  H   H1694     1.0  0.16880  0.85842  0.92605  1.0000
  H   H1695     1.0  0.16487  0.83396  0.88517  1.0000
  H   H1696     1.0  0.18361  0.84650  0.88592  1.0000
  H   H1697     1.0  0.20158  0.81720  0.91026  1.0000
  H   H1698     1.0  0.18525  0.80350  0.92679  1.0000
  H   H1699     1.0  0.15531  0.81802  0.94031  1.0000
  H   H1700     1.0  0.14304  0.84039  0.93064  1.0000
  H   H1701     1.0  0.19046  0.84670  0.94999  1.0000
  H   H1702     1.0  0.17088  0.83340  0.95519  1.0000
  H   H1703     1.0  0.19493  0.82257  0.94473  1.0000
  H   H1704     1.0  0.15291  0.86763  0.87785  1.0000
  H   H1705     1.0  0.14006  0.85983  0.90137  1.0000
  H   H1706     1.0  0.15985  0.87346  0.89829  1.0000
  H   H1707     1.0  0.17216  0.79806  0.89713  1.0000
  C   C997      1.0  0.14496  0.76592  0.95320  1.0000
  Fe  Fe142     1.0  0.11994  0.97063  0.84460  1.0000
  Fe  Fe143     1.0  0.15923  0.97064  0.85597  1.0000
  C   C998      1.0  0.20105  0.74406  0.66375  1.0000
  C   C999      1.0  0.15397  0.83651  0.80303  1.0000
  S   S285      1.0  0.12899  0.96968  0.87319  1.0000
  H   H1708     1.0  0.24599  0.78690  0.66062  1.0000
  C   C1000     1.0  0.21068  0.82684  0.66668  1.0000
  H   H1709     1.0  0.09592  0.90152  0.97448  1.0000
  H   H1710     1.0  0.24228  0.83900  0.67127  1.0000
  C   C1001     1.0  0.26803  0.76308  0.82386  1.0000
  H   H1711     1.0  0.30341  0.75639  0.80426  1.0000
  H   H1712     1.0  0.19164  0.76587  0.93066  1.0000
  H   H1713     1.0  0.33096  0.86236  0.68542  1.0000
  C   C1002     1.0  0.34640  0.74431  0.70271  1.0000
  H   H1714     1.0  0.26668  0.74899  0.71361  1.0000
  H   H1715     1.0  0.17268  0.74895  0.72171  1.0000
  C   C1003     1.0  0.34521  0.85259  0.68453  1.0000
  H   H1716     1.0  0.13505  0.77035  0.96576  1.0000
  H   H1717     1.0  0.41042  0.82000  0.69596  1.0000
  C   C1004     1.0  0.13869  0.75637  0.94052  1.0000
  C   C1005     1.0  0.36159  0.74943  0.78596  1.0000
  H   H1718     1.0  0.30639  0.76776  0.72887  1.0000
  H   H1719     1.0  0.39601  0.88010  0.70604  1.0000
  C   C1006     1.0  0.28068  0.75316  0.71447  1.0000
  H   H1720     1.0  0.19241  0.76596  0.69113  1.0000
  H   H1721     1.0  0.31808  0.75845  0.69833  1.0000
  H   H1722     1.0  0.17346  0.81921  0.82305  1.0000
  H   H1723     1.0  0.10382  0.85121  0.82366  1.0000
  H   H1724     1.0  0.35096  0.92282  0.68351  1.0000
  C   C1007     1.0  0.29960  0.75037  0.75703  1.0000
  C   C1008     1.0  0.18694  0.74544  0.80481  1.0000
  H   H1725     1.0  0.29158  0.75384  0.87599  1.0000
  H   H1726     1.0  0.12365  0.83759  0.78494  1.0000
  H   H1727     1.0  0.35191  0.75036  0.68744  1.0000
  C   C1009     1.0  0.20273  0.84658  0.65530  1.0000
  C   C1010     1.0  0.11067  0.85369  0.80818  1.0000
  C   C1011     1.0  0.37895  0.83639  0.65357  1.0000
  H   H1728     1.0  0.23025  0.73843  0.93429  1.0000
  H   H1729     1.0  0.25310  0.76048  0.83065  1.0000
  H   H1730     1.0  0.46152  0.98027  0.66090  1.0000
  H   H1731     1.0  0.35440  0.87179  0.65867  1.0000
  H   H1732     1.0  0.19189  0.77464  0.65143  1.0000
  H   H1733     1.0  0.19219  0.85500  0.66556  1.0000
  S   S286      1.0  0.37658  0.96619  0.65005  1.0000
  H   H1734     1.0  0.10441  0.93116  0.97712  1.0000
  H   H1735     1.0  0.09351  0.84919  0.97800  1.0000
  Fe  Fe144     1.0  0.38450  0.93417  0.64936  1.0000
  H   H1736     1.0  0.40899  0.85560  0.65017  1.0000
  H   H1737     1.0  0.25462  0.84993  0.64910  1.0000
  H   H1738     1.0  0.31464  0.73754  0.87398  1.0000
  S   S287      1.0  0.14322  0.73752  0.90906  1.0000
  C   C1012     1.0  0.08953  0.86436  0.98091  1.0000
  S   S288      1.0  0.71439  0.19915  0.14220  1.0000
  H   H1739     1.0  0.75952  0.17730  0.22672  1.0000
  H   H1740     1.0  0.80594  0.03610  0.21142  1.0000
  C   C1013     1.0  0.80273  0.04297  0.00070  1.0000
  S   S289      1.0  0.64025  0.10822  0.26890  1.0000
  Fe  Fe145     1.0  0.69214  0.11226  0.24024  1.0000
  S   S290      1.0  0.67713  0.08744  0.23986  1.0000
  S   S291      1.0  0.72217  0.11452  0.22361  1.0000
  Fe  Fe146     1.0  0.65102  0.11065  0.23673  1.0000
  S   S292      1.0  0.62955  0.11217  0.21706  1.0000
  Fe  Fe147     1.0  0.66793  0.08733  0.27198  1.0000
  H   H1741     1.0  0.77324  0.23188  0.03976  1.0000
  S   S293      1.0  0.66686  0.13539  0.23450  1.0000
  H   H1742     1.0  0.63598  0.22484  0.23355  1.0000
  Fe  Fe148     1.0  0.84107  0.06843  0.26517  1.0000
  S   S294      1.0  0.82647  0.09218  0.24479  1.0000
  S   S295      1.0  0.84853  0.03748  0.25823  1.0000
  Fe  Fe149     1.0  0.84626  0.09785  0.29077  1.0000
  S   S296      1.0  0.83277  0.12318  0.27114  1.0000
  H   H1743     1.0  0.73611  0.22610  0.19249  1.0000
  Fe  Fe150     1.0  0.81080  0.10446  0.27140  1.0000
  S   S297      1.0  0.77945  0.11732  0.27951  1.0000
  Fe  Fe151     1.0  0.84998  0.10813  0.24681  1.0000
  S   S298      1.0  0.86613  0.12274  0.21931  1.0000
  S   S299      1.0  0.82340  0.07942  0.29205  1.0000
  S   S300      1.0  0.86554  0.08404  0.26616  1.0000
  Fe  Fe152     1.0  0.84212  0.12498  0.02222  1.0000
  S   S301      1.0  0.86411  0.09757  0.02266  1.0000
  S   S302      1.0  0.83111  0.14013  0.04896  1.0000
  S   S303      1.0  0.64679  0.15740  0.28146  1.0000
  C   C1014     1.0  0.72092  0.03642  0.31316  1.0000
  Fe  Fe153     1.0  0.84101  0.08303  0.01725  1.0000
  S   S304      1.0  0.83028  0.05559  0.03514  1.0000
  S   S305      1.0  0.84863  0.08940  0.98454  1.0000
  S   S306      1.0  0.81866  0.10991  0.01811  1.0000
  C   C1015     1.0  0.74022  0.04196  0.30120  1.0000
  Fe  Fe154     1.0  0.81808  0.20718  0.15440  1.0000
  S   S307      1.0  0.84913  0.21107  0.14369  1.0000
  S   S308      1.0  0.80565  0.18725  0.18014  1.0000
  C   C1016     1.0  0.68191  0.18889  0.27718  1.0000
  Fe  Fe155     1.0  0.84113  0.21452  0.11387  1.0000
  S   S309      1.0  0.85924  0.20100  0.08814  1.0000
  H   H1744     1.0  0.60862  0.17192  0.19876  1.0000
  S   S310      1.0  0.81106  0.20814  0.12499  1.0000
  H   H1745     1.0  0.86412  0.22188  0.26980  1.0000
  H   H1746     1.0  0.81961  0.21440  0.20094  1.0000
  H   H1747     1.0  0.81617  0.05053  0.23613  1.0000
  S   S311      1.0  0.62930  0.17319  0.13917  1.0000
  C   C1017     1.0  0.76670  0.19952  0.09197  1.0000
  H   H1748     1.0  0.63248  0.06614  0.29233  1.0000
  C   C1018     1.0  0.60980  0.18746  0.19376  1.0000
  H   H1749     1.0  0.71795  0.07907  0.25269  1.0000
  S   S312      1.0  0.67203  0.20228  0.11295  1.0000
  H   H1750     1.0  0.63458  0.01490  0.26937  1.0000
  H   H1751     1.0  0.73713  0.03709  0.26656  1.0000
  C   C1019     1.0  0.83976  0.15675  0.05952  1.0000
  C   C1020     1.0  0.82943  0.16178  0.07730  1.0000
  C   C1021     1.0  0.83538  0.17503  0.08631  1.0000
  C   C1022     1.0  0.85164  0.18371  0.07751  1.0000
  C   C1023     1.0  0.86205  0.17864  0.05975  1.0000
  C   C1024     1.0  0.85618  0.16521  0.05080  1.0000
  H   H1752     1.0  0.81668  0.15539  0.08419  1.0000
  H   H1753     1.0  0.82744  0.17844  0.10011  1.0000
  H   H1754     1.0  0.87472  0.18518  0.05285  1.0000
  H   H1755     1.0  0.86430  0.16151  0.03712  1.0000
  H   H1756     1.0  0.78607  0.14883  0.18836  1.0000
  H   H1757     1.0  0.86341  0.00305  0.24109  1.0000
  N   N73       1.0  0.62997  0.20519  0.07201  1.0000
  H   H1758     1.0  0.74067  0.09506  0.30112  1.0000
  H   H1759     1.0  0.79750  0.19887  0.08867  1.0000
  C   C1025     1.0  0.84921  0.13960  0.20745  1.0000
  C   C1026     1.0  0.85497  0.15005  0.18907  1.0000
  C   C1027     1.0  0.84152  0.16447  0.18023  1.0000
  C   C1028     1.0  0.82240  0.16838  0.18986  1.0000
  C   C1029     1.0  0.81659  0.15758  0.20798  1.0000
  C   C1030     1.0  0.82997  0.14320  0.21676  1.0000
  H   H1760     1.0  0.86985  0.14719  0.18181  1.0000
  H   H1761     1.0  0.84596  0.17257  0.16608  1.0000
  H   H1762     1.0  0.80181  0.16057  0.21544  1.0000
  H   H1763     1.0  0.82540  0.13518  0.23090  1.0000
  H   H1764     1.0  0.73596  0.18977  0.23633  1.0000
  C   C1031     1.0  0.63054  0.12895  0.19525  1.0000
  C   C1032     1.0  0.61558  0.13147  0.18445  1.0000
  C   C1033     1.0  0.61555  0.14486  0.16718  1.0000
  C   C1034     1.0  0.63040  0.15601  0.16058  1.0000
  C   C1035     1.0  0.64558  0.15338  0.17120  1.0000
  C   C1036     1.0  0.64567  0.13983  0.18852  1.0000
  H   H1765     1.0  0.60393  0.12303  0.18949  1.0000
  H   H1766     1.0  0.60385  0.14670  0.15901  1.0000
  H   H1767     1.0  0.65744  0.16147  0.16590  1.0000
  H   H1768     1.0  0.65757  0.13759  0.19643  1.0000
  H   H1769     1.0  0.88429  0.01838  0.18859  1.0000
  C   C1037     1.0  0.73827  0.11576  0.23877  1.0000
  C   C1038     1.0  0.75812  0.10909  0.23370  1.0000
  C   C1039     1.0  0.77106  0.10993  0.24590  1.0000
  C   C1040     1.0  0.76410  0.11749  0.26312  1.0000
  C   C1041     1.0  0.74437  0.12491  0.26773  1.0000
  C   C1042     1.0  0.73150  0.12414  0.25553  1.0000
  H   H1770     1.0  0.76346  0.10301  0.22049  1.0000
  H   H1771     1.0  0.78629  0.10442  0.24212  1.0000
  C   C1043     1.0  0.72751  0.06513  0.25059  1.0000
  H   H1772     1.0  0.71640  0.13034  0.25894  1.0000
  C   C1044     1.0  0.85623  0.01483  0.08598  1.0000
  C   C1045     1.0  0.86754  0.02705  0.07232  1.0000
  C   C1046     1.0  0.85986  0.03955  0.05671  1.0000
  C   C1047     1.0  0.84075  0.03986  0.05441  1.0000
  C   C1048     1.0  0.82950  0.02742  0.06787  1.0000
  C   C1049     1.0  0.83711  0.01509  0.08367  1.0000
  H   H1773     1.0  0.88240  0.02683  0.07384  1.0000
  H   H1774     1.0  0.86881  0.04880  0.04635  1.0000
  H   H1775     1.0  0.81473  0.02743  0.06621  1.0000
  H   H1776     1.0  0.82825  0.00573  0.09398  1.0000
  C   C1050     1.0  0.82920  0.01163  0.21168  1.0000
  C   C1051     1.0  0.84551  0.00252  0.22007  1.0000
  C   C1052     1.0  0.85096  0.01045  0.23450  1.0000
  C   C1053     1.0  0.84055  0.02788  0.24037  1.0000
  C   C1054     1.0  0.82439  0.03717  0.23178  1.0000
  C   C1055     1.0  0.81863  0.02895  0.21773  1.0000
  H   H1777     1.0  0.76905  0.09571  0.99027  1.0000
  N   N74       1.0  0.83773  0.08403  0.09278  1.0000
  C   C1056     1.0  0.83778  0.06265  0.10006  1.0000
  C   C1057     1.0  0.85177  0.08638  0.07394  1.0000
  C   C1058     1.0  0.81787  0.09428  0.08907  1.0000
  C   C1059     1.0  0.84356  0.09274  0.10796  1.0000
  C   C1060     1.0  0.82261  0.05731  0.11809  1.0000
  C   C1061     1.0  0.87342  0.07905  0.07527  1.0000
  C   C1062     1.0  0.80863  0.08573  0.07548  1.0000
  C   C1063     1.0  0.84632  0.11421  0.10215  1.0000
  H   H1778     1.0  0.83564  0.05532  0.08849  1.0000
  H   H1779     1.0  0.85213  0.05534  0.10387  1.0000
  H   H1780     1.0  0.85036  0.10183  0.06672  1.0000
  H   H1781     1.0  0.84829  0.07846  0.06342  1.0000
  H   H1782     1.0  0.80748  0.09500  0.10291  1.0000
  H   H1783     1.0  0.81835  0.10968  0.08221  1.0000
  H   H1784     1.0  0.83243  0.09207  0.12136  1.0000
  H   H1785     1.0  0.85722  0.08419  0.11251  1.0000
  H   H1786     1.0  0.82510  0.06222  0.13108  1.0000
  H   H1787     1.0  0.80752  0.06286  0.11557  1.0000
  H   H1788     1.0  0.82403  0.04121  0.12153  1.0000
  H   H1789     1.0  0.88206  0.08130  0.06044  1.0000
  H   H1790     1.0  0.87902  0.08718  0.08412  1.0000
  H   H1791     1.0  0.87632  0.06328  0.08083  1.0000
  H   H1792     1.0  0.81717  0.08676  0.06061  1.0000
  H   H1793     1.0  0.79405  0.09437  0.07411  1.0000
  H   H1794     1.0  0.80653  0.07049  0.08106  1.0000
  H   H1795     1.0  0.85788  0.11660  0.08940  1.0000
  H   H1796     1.0  0.85064  0.11897  0.11438  1.0000
  H   H1797     1.0  0.83268  0.12379  0.09911  1.0000
  H   H1798     1.0  0.85043  0.20425  0.18655  1.0000
  H   H1799     1.0  0.83782  0.18003  0.24711  1.0000
  S   S313      1.0  0.86673  0.99998  0.10570  1.0000
  H   H1800     1.0  0.70998  0.07471  0.29370  1.0000
  Fe  Fe156     1.0  0.65808  0.13137  0.26675  1.0000
  C   C1064     1.0  0.79295  0.18725  0.05002  1.0000
  H   H1801     1.0  0.81946  0.22117  0.08209  1.0000
  H   H1802     1.0  0.86566  0.02204  0.17446  1.0000
  H   H1803     1.0  0.81865  0.19439  0.22105  1.0000
  H   H1804     1.0  0.64093  0.15896  0.09960  1.0000
  H   H1805     1.0  0.84079  0.09920  0.20163  1.0000
  S   S314      1.0  0.63046  0.22830  0.12962  1.0000
  H   H1806     1.0  0.85331  0.06600  0.21875  1.0000
  H   H1807     1.0  0.79202  0.17698  0.06391  1.0000
  H   H1808     1.0  0.85399  0.22749  0.18845  1.0000
  H   H1809     1.0  0.76079  0.21555  0.05744  1.0000
  H   H1810     1.0  0.60823  0.21411  0.20395  1.0000
  H   H1811     1.0  0.77447  0.22133  0.14239  1.0000
  C   C1065     1.0  0.64229  0.19498  0.21258  1.0000
  H   H1812     1.0  0.82030  0.15683  0.29725  1.0000
  H   H1813     1.0  0.80826  0.07660  0.00310  1.0000
  H   H1814     1.0  0.64399  0.22501  0.30923  1.0000
  H   H1815     1.0  0.80214  0.02922  0.99582  1.0000
  Fe  Fe157     1.0  0.87048  0.10604  0.98992  1.0000
  H   H1816     1.0  0.72311  0.21989  0.28935  1.0000
  H   H1817     1.0  0.60726  0.14767  0.24714  1.0000
  C   C1066     1.0  0.76986  0.22698  0.05574  1.0000
  H   H1818     1.0  0.77342  0.04434  0.01846  1.0000
  H   H1819     1.0  0.66759  0.20275  0.22055  1.0000
  C   C1067     1.0  0.71728  0.20842  0.30064  1.0000
  H   H1820     1.0  0.77856  0.04792  0.29400  1.0000
  C   C1068     1.0  0.86541  0.15818  0.31317  1.0000
  H   H1821     1.0  0.78303  0.22052  0.09491  1.0000
  H   H1822     1.0  0.71312  0.02981  0.30480  1.0000
  H   H1823     1.0  0.61360  0.23236  0.22382  1.0000
  C   C1069     1.0  0.65097  0.15053  0.30549  1.0000
  H   H1824     1.0  0.80565  0.21800  0.22400  1.0000
  C   C1070     1.0  0.65644  0.00409  0.28869  1.0000
  H   H1825     1.0  0.66924  0.17728  0.22054  1.0000
  H   H1826     1.0  0.76597  0.18882  0.08294  1.0000
  H   H1827     1.0  0.82552  0.22816  0.31450  1.0000
  H   H1828     1.0  0.77014  0.07925  0.01291  1.0000
  H   H1829     1.0  0.64588  0.21116  0.29063  1.0000
  C   C1071     1.0  0.85328  0.17551  0.24110  1.0000
  N   N75       1.0  0.79895  0.06017  0.98499  1.0000
  C   C1072     1.0  0.80117  0.20523  0.05156  1.0000
  S   S315      1.0  0.67372  0.06064  0.29462  1.0000
  H   H1830     1.0  0.62957  0.22800  0.08811  1.0000
  C   C1073     1.0  0.74808  0.21165  0.14162  1.0000
  H   H1831     1.0  0.89348  0.08164  0.18453  1.0000
  C   C1074     1.0  0.60849  0.21525  0.04485  1.0000
  C   C1075     1.0  0.60778  0.19867  0.21070  1.0000
  C   C1076     1.0  0.72570  0.23395  0.12308  1.0000
  H   H1832     1.0  0.92169  0.06034  0.17958  1.0000
  H   H1833     1.0  0.74830  0.04516  0.31166  1.0000
  H   H1834     1.0  0.88627  0.20440  0.21905  1.0000
  H   H1835     1.0  0.74995  0.20854  0.20810  1.0000
  H   H1836     1.0  0.62814  0.18823  0.05052  1.0000
  H   H1837     1.0  0.63875  0.16416  0.07447  1.0000
  H   H1838     1.0  0.88046  0.21137  0.16630  1.0000
  H   H1839     1.0  0.87699  0.03681  0.22168  1.0000
  H   H1840     1.0  0.60918  0.20972  0.03115  1.0000
  Fe  Fe158     1.0  0.68407  0.21021  0.13648  1.0000
  N   N76       1.0  0.73897  0.17523  0.19777  1.0000
  C   C1077     1.0  0.72903  0.16465  0.18717  1.0000
  C   C1078     1.0  0.76046  0.17109  0.19024  1.0000
  C   C1079     1.0  0.73112  0.19671  0.19348  1.0000
  C   C1080     1.0  0.73436  0.16782  0.21913  1.0000
  C   C1081     1.0  0.70661  0.16803  0.19155  1.0000
  C   C1082     1.0  0.74447  0.21112  0.19420  1.0000
  H   H1841     1.0  0.73333  0.16864  0.17115  1.0000
  H   H1842     1.0  0.73349  0.14866  0.19056  1.0000
  H   H1843     1.0  0.76346  0.17545  0.17422  1.0000
  H   H1844     1.0  0.72710  0.20073  0.17874  1.0000
  H   H1845     1.0  0.71734  0.20046  0.20354  1.0000
  H   H1846     1.0  0.71854  0.17115  0.22439  1.0000
  H   H1847     1.0  0.73735  0.15179  0.22212  1.0000
  H   H1848     1.0  0.70121  0.16089  0.18160  1.0000
  H   H1849     1.0  0.70120  0.16115  0.20651  1.0000
  H   H1850     1.0  0.70012  0.18360  0.18899  1.0000
  H   H1851     1.0  0.76452  0.13956  0.18897  1.0000
  H   H1852     1.0  0.59277  0.21881  0.05064  1.0000
  N   N77       1.0  0.62269  0.19161  0.22397  1.0000
  C   C1083     1.0  0.77050  0.14985  0.19503  1.0000
  H   H1853     1.0  0.87017  0.23182  0.28844  1.0000
  S   S316      1.0  0.85003  0.13477  0.98982  1.0000
  H   H1854     1.0  0.67168  0.00646  0.28720  1.0000
  C   C1084     1.0  0.74426  0.17570  0.23266  1.0000
  C   C1085     1.0  0.62375  0.17022  0.23164  1.0000
  C   C1086     1.0  0.76115  0.22478  0.13656  1.0000
  H   H1855     1.0  0.76862  0.17980  0.19591  1.0000
  H   H1856     1.0  0.77005  0.14513  0.21087  1.0000
  H   H1857     1.0  0.64724  0.21865  0.03128  1.0000
  H   H1858     1.0  0.66799  0.22378  0.03849  1.0000
  H   H1859     1.0  0.64676  0.18582  0.20096  1.0000
  C   C1087     1.0  0.79825  0.07887  0.99239  1.0000
  N   N78       1.0  0.78832  0.21921  0.06398  1.0000
  H   H1860     1.0  0.60111  0.21516  0.10664  1.0000
  H   H1861     1.0  0.81767  0.04148  0.00404  1.0000
  H   H1862     1.0  0.71675  0.09250  0.31425  1.0000
  H   H1863     1.0  0.83534  0.23171  0.21927  1.0000
  C   C1088     1.0  0.78875  0.04308  0.02017  1.0000
  H   H1864     1.0  0.87091  0.16891  0.30147  1.0000
  H   H1865     1.0  0.86876  0.20859  0.23933  1.0000
  H   H1866     1.0  0.89824  0.03338  0.20470  1.0000
  H   H1867     1.0  0.73900  0.13112  0.28087  1.0000
  H   H1868     1.0  0.74511  0.16500  0.24622  1.0000
  H   H1869     1.0  0.83731  0.08011  0.19051  1.0000
  H   H1870     1.0  0.90657  0.06522  0.21268  1.0000
  H   H1871     1.0  0.67991  0.22395  0.25936  1.0000
  H   H1872     1.0  0.61703  0.18677  0.09751  1.0000
  H   H1873     1.0  0.85641  0.09455  0.17966  1.0000
  H   H1874     1.0  0.59784  0.19380  0.18536  1.0000
  H   H1875     1.0  0.63828  0.19456  0.10035  1.0000
  H   H1876     1.0  0.86456  0.13827  0.29404  1.0000
  H   H1877     1.0  0.61365  0.23110  0.24913  1.0000
  C   C1089     1.0  0.72907  0.05139  0.27008  1.0000
  C   C1090     1.0  0.84859  0.08742  0.19343  1.0000
  H   H1878     1.0  0.88313  0.07470  0.16673  1.0000
  H   H1879     1.0  0.64168  0.21013  0.20454  1.0000
  H   H1880     1.0  0.71871  0.19014  0.28013  1.0000
  H   H1881     1.0  0.75689  0.21088  0.18198  1.0000
  H   H1882     1.0  0.64761  0.01380  0.29873  1.0000
  H   H1883     1.0  0.91459  0.06189  0.15685  1.0000
  C   C1091     1.0  0.89030  0.06878  0.17968  1.0000
  H   H1884     1.0  0.87008  0.08256  0.21163  1.0000
  H   H1885     1.0  0.85771  0.05665  0.17600  1.0000
  C   C1092     1.0  0.61863  0.19900  0.05915  1.0000
  H   H1886     1.0  0.59279  0.19855  0.21896  1.0000
  C   C1093     1.0  0.62029  0.22392  0.23633  1.0000
  C   C1094     1.0  0.62072  0.04461  0.31517  1.0000
  H   H1887     1.0  0.70892  0.17145  0.26441  1.0000
  H   H1888     1.0  0.88612  0.03376  0.16467  1.0000
  C   C1095     1.0  0.87144  0.21247  0.22327  1.0000
  C   C1096     1.0  0.86247  0.07326  0.20585  1.0000
  C   C1097     1.0  0.91031  0.05703  0.17267  1.0000
  H   H1889     1.0  0.70532  0.21715  0.25789  1.0000
  H   H1890     1.0  0.65537  0.02651  0.26318  1.0000
  S   S317      1.0  0.68502  0.11052  0.27244  1.0000
  N   N79       1.0  0.87683  0.05833  0.19565  1.0000
  C   C1098     1.0  0.86527  0.04714  0.18750  1.0000
  H   H1891     1.0  0.64410  0.17965  0.31181  1.0000
  H   H1892     1.0  0.85364  0.04184  0.19903  1.0000
  H   H1893     1.0  0.90768  0.04345  0.23037  1.0000
  H   H1894     1.0  0.91094  0.04117  0.17471  1.0000
  C   C1099     1.0  0.77328  0.06274  0.28670  1.0000
  C   C1100     1.0  0.88732  0.04489  0.21082  1.0000
  C   C1101     1.0  0.89779  0.05472  0.22224  1.0000
  C   C1102     1.0  0.87639  0.02942  0.17839  1.0000
  H   H1895     1.0  0.60689  0.19132  0.06825  1.0000
  Fe  Fe159     1.0  0.82786  0.11758  0.98588  1.0000
  H   H1896     1.0  0.65481  0.23411  0.28522  1.0000
  H   H1897     1.0  0.88646  0.19171  0.18507  1.0000
  H   H1898     1.0  0.88724  0.06214  0.23325  1.0000
  C   C1103     1.0  0.65032  0.20729  0.06174  1.0000
  C   C1104     1.0  0.83668  0.21569  0.22323  1.0000
  H   H1899     1.0  0.85554  0.15944  0.24237  1.0000
  H   H1900     1.0  0.59843  0.17049  0.25522  1.0000
  H   H1901     1.0  0.79245  0.02913  0.02988  1.0000
  H   H1902     1.0  0.65732  0.11989  0.30435  1.0000
  H   H1903     1.0  0.70784  0.21491  0.31284  1.0000
  H   H1904     1.0  0.81509  0.19938  0.05700  1.0000
  Fe  Fe160     1.0  0.64599  0.19764  0.13581  1.0000
  H   H1905     1.0  0.85158  0.21653  0.29410  1.0000
  H   H1906     1.0  0.65815  0.19351  0.05690  1.0000
  Fe  Fe161     1.0  0.65775  0.23354  0.10874  1.0000
  H   H1907     1.0  0.65466  0.18812  0.24022  1.0000
  H   H1908     1.0  0.68782  0.17016  0.25541  1.0000
  C   C1105     1.0  0.69177  0.22110  0.26817  1.0000
  C   C1106     1.0  0.85841  0.18428  0.21948  1.0000
  C   C1107     1.0  0.78470  0.20974  0.08505  1.0000
  H   H1909     1.0  0.62424  0.19520  0.25333  1.0000
  C   C1108     1.0  0.72555  0.07643  0.29012  1.0000
  H   H1910     1.0  0.76766  0.06094  0.98917  1.0000
  H   H1911     1.0  0.65889  0.21047  0.07192  1.0000
  C   C1109     1.0  0.65922  0.19051  0.22430  1.0000
  S   S318      1.0  0.82113  0.00192  0.19398  1.0000
  C   C1110     1.0  0.67337  0.21018  0.30126  1.0000
  H   H1912     1.0  0.65753  0.00268  0.25764  1.0000
  H   H1913     1.0  0.77885  0.19087  0.04479  1.0000
  H   H1914     1.0  0.76795  0.07255  0.29752  1.0000
  C   C1111     1.0  0.70746  0.19540  0.29197  1.0000
  N   N80       1.0  0.68875  0.20445  0.28458  1.0000
  H   H1915     1.0  0.70516  0.18237  0.30322  1.0000
  H   H1916     1.0  0.76722  0.19155  0.10697  1.0000
  H   H1917     1.0  0.75687  0.07661  0.26417  1.0000
  H   H1918     1.0  0.75185  0.19786  0.15052  1.0000
  H   H1919     1.0  0.83450  0.21291  0.23938  1.0000
  H   H1920     1.0  0.67277  0.23171  0.17168  1.0000
  C   C1112     1.0  0.60446  0.16362  0.24215  1.0000
  H   H1921     1.0  0.80526  0.21288  0.03647  1.0000
  H   H1922     1.0  0.63397  0.16553  0.24223  1.0000
  H   H1923     1.0  0.79663  0.13552  0.30300  1.0000
  C   C1113     1.0  0.61684  0.20264  0.24085  1.0000
  H   H1924     1.0  0.75301  0.21011  0.09275  1.0000
  H   H1925     1.0  0.65918  0.17000  0.08278  1.0000
  H   H1926     1.0  0.80327  0.17923  0.03927  1.0000
  H   H1927     1.0  0.76522  0.05144  0.26447  1.0000
  C   C1114     1.0  0.85789  0.22806  0.28326  1.0000
  C   C1115     1.0  0.73028  0.21619  0.13510  1.0000
  C   C1116     1.0  0.65058  0.01215  0.26855  1.0000
  H   H1928     1.0  0.86282  0.17877  0.25016  1.0000
  C   C1117     1.0  0.64334  0.16966  0.08606  1.0000
  H   H1929     1.0  0.79054  0.05463  0.02778  1.0000
  H   H1930     1.0  0.74184  0.06789  0.24216  1.0000
  S   S319      1.0  0.65937  0.20254  0.15979  1.0000
  C   C1118     1.0  0.63162  0.18965  0.08969  1.0000
  H   H1931     1.0  0.89000  0.21615  0.18576  1.0000
  H   H1932     1.0  0.71398  0.04903  0.27643  1.0000
  C   C1119     1.0  0.63549  0.05483  0.30442  1.0000
  H   H1933     1.0  0.62986  0.16142  0.21988  1.0000
  C   C1120     1.0  0.85934  0.21179  0.19291  1.0000
  C   C1121     1.0  0.88036  0.20735  0.18219  1.0000
  N   N81       1.0  0.85647  0.20610  0.21473  1.0000
  H   H1934     1.0  0.69854  0.19162  0.24736  1.0000
  H   H1935     1.0  0.87347  0.17730  0.21438  1.0000
  C   C1122     1.0  0.87217  0.23451  0.21909  1.0000
  C   C1123     1.0  0.62030  0.22384  0.07926  1.0000
  H   H1936     1.0  0.66777  0.19439  0.27211  1.0000
  H   H1937     1.0  0.60113  0.20295  0.24685  1.0000
  H   H1938     1.0  0.59353  0.16631  0.23242  1.0000
  H   H1939     1.0  0.78037  0.10101  0.00824  1.0000
  H   H1940     1.0  0.84916  0.17893  0.21156  1.0000
  N   N82       1.0  0.73835  0.05827  0.28427  1.0000
  C   C1124     1.0  0.77821  0.08896  0.00149  1.0000
  H   H1941     1.0  0.59029  0.21737  0.08519  1.0000
  C   C1125     1.0  0.65234  0.22279  0.04338  1.0000
  C   C1126     1.0  0.75818  0.06242  0.27401  1.0000
  H   H1942     1.0  0.72994  0.19937  0.30673  1.0000
  H   H1943     1.0  0.62348  0.18884  0.18345  1.0000
  C   C1127     1.0  0.81936  0.21009  0.21681  1.0000
  H   H1944     1.0  0.83014  0.22429  0.05662  1.0000
  H   H1945     1.0  0.67941  0.17645  0.28907  1.0000
  H   H1946     1.0  0.72583  0.08847  0.27759  1.0000
  C   C1128     1.0  0.69536  0.18029  0.26010  1.0000
  H   H1947     1.0  0.72073  0.05833  0.24144  1.0000
  H   H1948     1.0  0.85371  0.98914  0.21573  1.0000
  C   C1129     1.0  0.81929  0.23094  0.06795  1.0000
  H   H1949     1.0  0.60634  0.04819  0.31133  1.0000
  C   C1130     1.0  0.65727  0.13104  0.31265  1.0000
  C   C1131     1.0  0.81055  0.15587  0.31155  1.0000
  H   H1950     1.0  0.61483  0.22873  0.04073  1.0000
  Fe  Fe162     1.0  0.64605  0.23357  0.15202  1.0000
  H   H1951     1.0  0.78615  0.06813  0.27716  1.0000
  C   C1132     1.0  0.60004  0.22345  0.09185  1.0000
  H   H1952     1.0  0.67807  0.21961  0.30935  1.0000
  C   C1133     1.0  0.65424  0.04989  0.30895  1.0000
  C   C1134     1.0  0.86186  0.14077  0.30890  1.0000
  C   C1135     1.0  0.65354  0.22066  0.29592  1.0000
  C   C1136     1.0  0.73035  0.08463  0.30678  1.0000
  H   H1953     1.0  0.76755  0.15385  0.30333  1.0000
  H   H1954     1.0  0.67069  0.19720  0.31238  1.0000
  H   H1955     1.0  0.74909  0.02864  0.29607  1.0000
  H   H1956     1.0  0.62379  0.99160  0.30717  1.0000
  H   H1957     1.0  0.69893  0.23040  0.18979  1.0000
  H   H1958     1.0  0.79882  0.16859  0.31055  1.0000
  C   C1137     1.0  0.79752  0.13158  0.35199  1.0000
  S   S320      1.0  0.60629  0.01574  0.34247  1.0000
  C   C1138     1.0  0.52213  0.05024  0.56457  1.0000
  Fe  Fe163     1.0  0.65064  0.05326  0.50111  1.0000
  S   S321      1.0  0.61964  0.06769  0.50562  1.0000
  S   S322      1.0  0.66129  0.02989  0.48153  1.0000
  Fe  Fe164     1.0  0.66227  0.07818  0.52766  1.0000
  S   S323      1.0  0.63158  0.09417  0.53338  1.0000
  S   S324      1.0  0.68718  0.08923  0.53643  1.0000
  Fe  Fe165     1.0  0.62244  0.06488  0.53698  1.0000
  S   S325      1.0  0.60189  0.04991  0.56160  1.0000
  Fe  Fe166     1.0  0.63178  0.09538  0.50149  1.0000
  S   S326      1.0  0.62006  0.12047  0.47984  1.0000
  S   S327      1.0  0.65322  0.04868  0.53291  1.0000
  S   S328      1.0  0.66273  0.08116  0.49532  1.0000
  Fe  Fe167     1.0  0.86322  0.21099  0.40123  1.0000
  H   H1959     1.0  0.56809  0.99434  0.53850  1.0000
  S   S329      1.0  0.87741  0.20783  0.42782  1.0000
  Fe  Fe168     1.0  0.85864  0.19974  0.36257  1.0000
  H   H1960     1.0  0.67103  0.99961  0.45808  1.0000
  S   S330      1.0  0.86887  0.18305  0.33696  1.0000
  H   H1961     1.0  0.79171  0.08235  0.33743  1.0000
  H   H1962     1.0  0.80094  0.09282  0.35375  1.0000
  Fe  Fe169     1.0  0.82357  0.21643  0.38926  1.0000
  H   H1963     1.0  0.76917  0.11176  0.34644  1.0000
  S   S331      1.0  0.87795  0.21782  0.37035  1.0000
  S   S332      1.0  0.84637  0.19015  0.39402  1.0000
  Fe  Fe170     1.0  0.68124  0.16132  0.36921  1.0000
  S   S333      1.0  0.65826  0.18228  0.38400  1.0000
  S   S334      1.0  0.67477  0.13421  0.36218  1.0000
  C   C1139     1.0  0.80228  0.22268  0.56677  1.0000
  H   H1964     1.0  0.81950  0.15664  0.32232  1.0000
  Fe  Fe171     1.0  0.68097  0.18278  0.40157  1.0000
  S   S335      1.0  0.67388  0.18152  0.43406  1.0000
  S   S336      1.0  0.70322  0.16013  0.38812  1.0000
  C   C1140     1.0  0.58029  0.03483  0.52585  1.0000
  C   C1141     1.0  0.88839  0.14998  0.38077  1.0000
  Fe  Fe172     1.0  0.74203  0.10366  0.62068  1.0000
  S   S337      1.0  0.73070  0.13553  0.61884  1.0000
  S   S338      1.0  0.72571  0.08247  0.61234  1.0000
  Fe  Fe173     1.0  0.76203  0.13920  0.61125  1.0000
  S   S339      1.0  0.77187  0.16150  0.58632  1.0000
  S   S340      1.0  0.77339  0.10754  0.61114  1.0000
  C   C1142     1.0  0.51861  0.00657  0.61989  1.0000
  S   S341      1.0  0.83492  0.22522  0.35769  1.0000
  C   C1143     1.0  0.91317  0.16878  0.36139  1.0000
  S   S342      1.0  0.51826  0.08805  0.60088  1.0000
  N   N83       1.0  0.50283  0.02794  0.59136  1.0000
  C   C1144     1.0  0.76584  0.20858  0.61235  1.0000
  C   C1145     1.0  0.77018  0.18937  0.60870  1.0000
  C   C1146     1.0  0.76563  0.18499  0.59196  1.0000
  C   C1147     1.0  0.75646  0.19968  0.57912  1.0000
  C   C1148     1.0  0.75153  0.21864  0.58311  1.0000
  C   C1149     1.0  0.76055  0.04686  0.63423  1.0000
  H   H1965     1.0  0.77748  0.17805  0.61852  1.0000
  H   H1966     1.0  0.75294  0.19630  0.56619  1.0000
  H   H1967     1.0  0.93988  0.11478  0.37400  1.0000
  H   H1968     1.0  0.59256  0.05496  0.36914  1.0000
  H   H1969     1.0  0.70503  0.17781  0.63556  1.0000
  H   H1970     1.0  0.76969  0.21210  0.62504  1.0000
  H   H1971     1.0  0.84156  0.22815  0.56469  1.0000
  C   C1150     1.0  0.90316  0.16978  0.39603  1.0000
  C   C1151     1.0  0.77056  0.14820  0.33438  1.0000
  C   C1152     1.0  0.61792  0.02321  0.45436  1.0000
  C   C1153     1.0  0.77876  0.20816  0.38798  1.0000
  C   C1154     1.0  0.75964  0.20533  0.39563  1.0000
  C   C1155     1.0  0.74861  0.19906  0.38452  1.0000
  C   C1156     1.0  0.75662  0.19587  0.36563  1.0000
  S   S343      1.0  0.63802  0.98747  0.38127  1.0000
  C   C1157     1.0  0.78681  0.20478  0.36913  1.0000
  S   S344      1.0  0.61130  0.99702  0.43358  1.0000
  H   H1972     1.0  0.73395  0.19667  0.39060  1.0000
  H   H1973     1.0  0.80157  0.20678  0.36320  1.0000
  C   C1158     1.0  0.57903  0.06134  0.57250  1.0000
  C   C1159     1.0  0.57009  0.05219  0.59043  1.0000
  C   C1160     1.0  0.55176  0.06048  0.59947  1.0000
  C   C1161     1.0  0.54193  0.07784  0.59048  1.0000
  C   C1162     1.0  0.55072  0.08683  0.57236  1.0000
  C   C1163     1.0  0.56927  0.07873  0.56347  1.0000
  H   H1974     1.0  0.57754  0.03876  0.59752  1.0000
  H   H1975     1.0  0.54529  0.05340  0.61337  1.0000
  H   H1976     1.0  0.54322  0.10022  0.56523  1.0000
  H   H1977     1.0  0.57594  0.08588  0.54961  1.0000
  C   C1164     1.0  0.69648  0.08781  0.55834  1.0000
  C   C1165     1.0  0.70862  0.10102  0.55900  1.0000
  C   C1166     1.0  0.71723  0.09995  0.57552  1.0000
  C   C1167     1.0  0.71419  0.08532  0.59155  1.0000
  C   C1168     1.0  0.70198  0.07213  0.59095  1.0000
  C   C1169     1.0  0.69301  0.07348  0.57459  1.0000
  H   H1978     1.0  0.71151  0.11214  0.54656  1.0000
  H   H1979     1.0  0.72658  0.11019  0.57563  1.0000
  H   H1980     1.0  0.69956  0.06065  0.60314  1.0000
  H   H1981     1.0  0.68386  0.06310  0.57432  1.0000
  C   C1170     1.0  0.63578  0.13676  0.46726  1.0000
  C   C1171     1.0  0.64176  0.14918  0.47704  1.0000
  C   C1172     1.0  0.65300  0.16323  0.46665  1.0000
  C   C1173     1.0  0.65859  0.16475  0.44647  1.0000
  C   C1174     1.0  0.65253  0.15241  0.43665  1.0000
  C   C1175     1.0  0.64099  0.13859  0.44702  1.0000
  H   H1982     1.0  0.63733  0.14821  0.49259  1.0000
  H   H1983     1.0  0.65746  0.17286  0.47432  1.0000
  H   H1984     1.0  0.65685  0.15335  0.42112  1.0000
  H   H1985     1.0  0.63613  0.12924  0.43934  1.0000
  Fe  Fe174     1.0  0.77513  0.10692  0.64264  1.0000
  C   C1176     1.0  0.85248  0.12978  0.34319  1.0000
  C   C1177     1.0  0.85533  0.14750  0.34740  1.0000
  C   C1178     1.0  0.86224  0.16166  0.33242  1.0000
  H   H1986     1.0  0.79543  0.22168  0.58234  1.0000
  H   H1987     1.0  0.60299  0.02974  0.45357  1.0000
  H   H1988     1.0  0.72410  0.02532  0.32595  1.0000
  H   H1989     1.0  0.85273  0.14992  0.36228  1.0000
  H   H1990     1.0  0.64652  0.01340  0.34699  1.0000
  C   C1179     1.0  0.66405  0.14030  0.34127  1.0000
  C   C1180     1.0  0.65647  0.15964  0.33475  1.0000
  H   H1991     1.0  0.77423  0.16276  0.33370  1.0000
  H   H1992     1.0  0.88960  0.12775  0.40723  1.0000
  H   H1993     1.0  0.92172  0.13575  0.40182  1.0000
  H   H1994     1.0  0.58691  0.05537  0.39513  1.0000
  H   H1995     1.0  0.65601  0.17071  0.34333  1.0000
  H   H1996     1.0  0.74410  0.22987  0.57328  1.0000
  H   H1997     1.0  0.56793  0.04447  0.51974  1.0000
  C   C1181     1.0  0.64775  0.02216  0.46670  1.0000
  C   C1182     1.0  0.65623  0.00638  0.45695  1.0000
  H   H1998     1.0  0.64753  0.08702  0.36378  1.0000
  H   H1999     1.0  0.59487  0.02768  0.49801  1.0000
  C   C1183     1.0  0.62860  0.03076  0.46502  1.0000
  C   C1184     1.0  0.78215  0.11358  0.33497  1.0000
  H   H2000     1.0  0.80564  0.14788  0.37119  1.0000
  C   C1185     1.0  0.62463  0.02944  0.33045  1.0000
  N   N84       1.0  0.60556  0.00421  0.51948  1.0000
  H   H2001     1.0  0.74644  0.16226  0.31951  1.0000
  H   H2002     1.0  0.63872  0.08946  0.34157  1.0000
  H   H2003     1.0  0.87228  0.14962  0.41059  1.0000
  C   C1186     1.0  0.62624  0.00713  0.44501  1.0000
  H   H2004     1.0  0.81116  0.09572  0.32831  1.0000
  H   H2005     1.0  0.80733  0.07231  0.60913  1.0000
  H   H2006     1.0  0.66795  0.22365  0.41791  1.0000
  H   H2007     1.0  0.64694  0.99091  0.51528  1.0000
  H   H2008     1.0  0.80084  0.16264  0.34887  1.0000
  S   S345      1.0  0.85254  0.10342  0.31940  1.0000
  H   H2009     1.0  0.79047  0.12190  0.36455  1.0000
  H   H2010     1.0  0.90179  0.18170  0.35866  1.0000
  H   H2011     1.0  0.82732  0.19994  0.57327  1.0000
  H   H2012     1.0  0.59058  0.04440  0.52644  1.0000
  C   C1187     1.0  0.52121  0.01756  0.59884  1.0000
  H   H2013     1.0  0.60341  0.21185  0.44300  1.0000
  Fe  Fe175     1.0  0.50526  0.07756  0.63219  1.0000
  H   H2014     1.0  0.65190  0.01002  0.52514  1.0000
  C   C1188     1.0  0.71716  0.18619  0.63000  1.0000
  H   H2015     1.0  0.64830  0.98809  0.32667  1.0000
  S   S346      1.0  0.69265  0.20810  0.38152  1.0000
  C   C1189     1.0  0.77567  0.19887  0.35788  1.0000
  Fe  Fe176     1.0  0.67198  0.20547  0.36262  1.0000
  H   H2016     1.0  0.90500  0.15216  0.34177  1.0000
  H   H2017     1.0  0.53670  0.04445  0.56851  1.0000
  H   H2018     1.0  0.66946  0.11093  0.33566  1.0000
  C   C1190     1.0  0.79617  0.15057  0.35997  1.0000
  C   C1191     1.0  0.65797  0.03521  0.32465  1.0000
  C   C1192     1.0  0.61338  0.99055  0.50483  1.0000
  S   S347      1.0  0.51678  0.04830  0.64744  1.0000
  C   C1193     1.0  0.91967  0.18065  0.39678  1.0000
  C   C1194     1.0  0.64070  0.00093  0.52585  1.0000
  H   H2019     1.0  0.72287  0.18354  0.61489  1.0000
  H   H2020     1.0  0.68291  0.08512  0.62711  1.0000
  C   C1195     1.0  0.61798  0.22909  0.39492  1.0000
  Fe  Fe177     1.0  0.71273  0.18527  0.36633  1.0000
  H   H2021     1.0  0.88985  0.14033  0.36997  1.0000
  H   H2022     1.0  0.76262  0.04864  0.61812  1.0000
  S   S348      1.0  0.69280  0.18430  0.34609  1.0000
  H   H2023     1.0  0.58671  0.03398  0.38577  1.0000
  C   C1196     1.0  0.58947  0.01961  0.51254  1.0000
  H   H2024     1.0  0.83112  0.23008  0.53566  1.0000
  H   H2025     1.0  0.62192  0.04307  0.47216  1.0000
  H   H2026     1.0  0.72908  0.18027  0.63836  1.0000
  H   H2027     1.0  0.79004  0.02369  0.61753  1.0000
  C   C1197     1.0  0.75644  0.22317  0.59953  1.0000
  H   H2028     1.0  0.91616  0.18715  0.41029  1.0000
  H   H2029     1.0  0.84787  0.11864  0.35495  1.0000
  H   H2030     1.0  0.80652  0.19123  0.57017  1.0000
  C   C1198     1.0  0.67751  0.13243  0.64497  1.0000
  H   H2031     1.0  0.73193  0.22559  0.64461  1.0000
  C   C1199     1.0  0.64559  0.99893  0.44613  1.0000
  H   H2032     1.0  0.69767  0.21188  0.62156  1.0000
  C   C1200     1.0  0.87907  0.13932  0.40037  1.0000
  Fe  Fe178     1.0  0.61285  0.99021  0.36606  1.0000
  H   H2033     1.0  0.52940  0.00678  0.58951  1.0000
  C   C1201     1.0  0.74499  0.03364  0.64195  1.0000
  C   C1202     1.0  0.66840  0.09136  0.63440  1.0000
  H   H2034     1.0  0.73507  0.14695  0.43325  1.0000
  H   H2035     1.0  0.86723  0.13242  0.39796  1.0000
  C   C1203     1.0  0.88428  0.22887  0.43282  1.0000
  H   H2036     1.0  0.89006  0.18094  0.39417  1.0000
  H   H2037     1.0  0.67243  0.03141  0.32827  1.0000
  H   H2038     1.0  0.53314  0.00090  0.62405  1.0000
  H   H2039     1.0  0.92092  0.19295  0.38457  1.0000
  C   C1204     1.0  0.91738  0.15861  0.34347  1.0000
  H   H2040     1.0  0.62008  0.18961  0.44386  1.0000
  C   C1205     1.0  0.50858  0.03483  0.56991  1.0000
  H   H2041     1.0  0.89971  0.16144  0.41089  1.0000
  C   C1206     1.0  0.62183  0.01433  0.52098  1.0000
  C   C1207     1.0  0.79752  0.09529  0.33886  1.0000
  H   H2042     1.0  0.49714  0.99948  0.58998  1.0000
  H   H2043     1.0  0.60429  0.22308  0.40056  1.0000
  C   C1208     1.0  0.69213  0.23511  0.64564  1.0000
  N   N85       1.0  0.62877  0.05409  0.38297  1.0000
  C   C1209     1.0  0.61587  0.03894  0.38545  1.0000
  C   C1210     1.0  0.64937  0.04347  0.38230  1.0000
  C   C1211     1.0  0.62653  0.06756  0.36398  1.0000
  C   C1212     1.0  0.62221  0.06495  0.39991  1.0000
  C   C1213     1.0  0.59435  0.04662  0.38373  1.0000
  C   C1214     1.0  0.65377  0.02945  0.40094  1.0000
  C   C1215     1.0  0.64333  0.07877  0.35410  1.0000
  C   C1216     1.0  0.63467  0.07975  0.40171  1.0000
  H   H2044     1.0  0.62146  0.02914  0.37449  1.0000
  H   H2045     1.0  0.61577  0.02947  0.39988  1.0000
  H   H2046     1.0  0.66005  0.05355  0.37906  1.0000
  H   H2047     1.0  0.65333  0.03496  0.37012  1.0000
  H   H2048     1.0  0.62466  0.05935  0.35286  1.0000
  H   H2049     1.0  0.61309  0.07853  0.36577  1.0000
  H   H2050     1.0  0.60739  0.07338  0.39937  1.0000
  H   H2051     1.0  0.62031  0.05485  0.41401  1.0000
  H   H2052     1.0  0.93762  0.14505  0.38103  1.0000
  H   H2053     1.0  0.82023  0.02398  0.63272  1.0000
  H   H2054     1.0  0.81604  0.00069  0.63052  1.0000
  H   H2055     1.0  0.64584  0.01697  0.40399  1.0000
  H   H2056     1.0  0.66946  0.02325  0.39898  1.0000
  H   H2057     1.0  0.65068  0.03689  0.41377  1.0000
  H   H2058     1.0  0.65623  0.06890  0.34803  1.0000
  H   H2059     1.0  0.67231  0.11529  0.61005  1.0000
  H   H2060     1.0  0.51118  0.99388  0.62152  1.0000
  H   H2061     1.0  0.63000  0.09425  0.39333  1.0000
  H   H2062     1.0  0.65042  0.07526  0.39735  1.0000
  H   H2063     1.0  0.63293  0.08121  0.41724  1.0000
  N   N86       1.0  0.78843  0.13285  0.33421  1.0000
  H   H2064     1.0  0.75403  0.06158  0.63762  1.0000
  C   C1217     1.0  0.80285  0.13648  0.31581  1.0000
  H   H2065     1.0  0.51069  0.01617  0.63032  1.0000
  H   H2066     1.0  0.64842  0.11827  0.62494  1.0000
  H   H2067     1.0  0.72179  0.21560  0.62020  1.0000
  H   H2068     1.0  0.63863  0.99267  0.54081  1.0000
  C   C1218     1.0  0.81005  0.01341  0.63801  1.0000
  C   C1219     1.0  0.92437  0.12131  0.37758  1.0000
  C   C1220     1.0  0.92321  0.14020  0.38576  1.0000
  C   C1221     1.0  0.63180  0.21327  0.42374  1.0000
  C   C1222     1.0  0.85569  0.12628  0.32393  1.0000
  H   H2069     1.0  0.93079  0.14766  0.34347  1.0000
  H   H2070     1.0  0.80482  0.05287  0.64186  1.0000
  H   H2071     1.0  0.92666  0.17454  0.36111  1.0000
  H   H2072     1.0  0.79034  0.22349  0.55855  1.0000
  H   H2073     1.0  0.62579  0.02419  0.50718  1.0000
  C   C1223     1.0  0.61460  0.20277  0.43394  1.0000
  H   H2074     1.0  0.57447  0.02825  0.54077  1.0000
  H   H2075     1.0  0.87743  0.16258  0.37605  1.0000
  C   C1224     1.0  0.81544  0.20297  0.56459  1.0000
  H   H2076     1.0  0.80965  0.04742  0.60710  1.0000
  H   H2077     1.0  0.87612  0.22163  0.46385  1.0000
  H   H2078     1.0  0.71117  0.04898  0.31880  1.0000
  H   H2079     1.0  0.81308  0.12482  0.34944  1.0000
  H   H2080     1.0  0.91813  0.12305  0.36423  1.0000
  H   H2081     1.0  0.51586  0.02231  0.56245  1.0000
  H   H2082     1.0  0.78726  0.06386  0.60384  1.0000
  H   H2083     1.0  0.76039  0.14553  0.34835  1.0000
  N   N87       1.0  0.70617  0.12262  0.47289  1.0000
  C   C1225     1.0  0.69813  0.13988  0.48319  1.0000
  C   C1226     1.0  0.72412  0.12732  0.45884  1.0000
  C   C1227     1.0  0.71120  0.10516  0.48800  1.0000
  C   C1228     1.0  0.69067  0.11962  0.46264  1.0000
  C   C1229     1.0  0.68262  0.13655  0.50157  1.0000
  C   C1230     1.0  0.72093  0.14505  0.44270  1.0000
  C   C1231     1.0  0.72649  0.08823  0.48123  1.0000
  C   C1232     1.0  0.69584  0.10349  0.45003  1.0000
  H   H2084     1.0  0.70997  0.14513  0.48782  1.0000
  H   H2085     1.0  0.69149  0.15238  0.47326  1.0000
  H   H2086     1.0  0.73152  0.11499  0.45132  1.0000
  H   H2087     1.0  0.73505  0.12993  0.46686  1.0000
  H   H2088     1.0  0.71701  0.10945  0.49970  1.0000
  H   H2089     1.0  0.69792  0.09900  0.49537  1.0000
  H   H2090     1.0  0.67756  0.11629  0.47319  1.0000
  H   H2091     1.0  0.68508  0.13321  0.45347  1.0000
  H   H2092     1.0  0.68936  0.12832  0.51414  1.0000
  H   H2093     1.0  0.67528  0.15081  0.50559  1.0000
  H   H2094     1.0  0.67123  0.12890  0.49957  1.0000
  H   H2095     1.0  0.82146  0.20180  0.54921  1.0000
  H   H2096     1.0  0.71532  0.15876  0.44858  1.0000
  N   N88       1.0  0.90718  0.15671  0.38082  1.0000
  H   H2097     1.0  0.74120  0.09231  0.47726  1.0000
  H   H2098     1.0  0.72302  0.08271  0.46911  1.0000
  H   H2099     1.0  0.72709  0.07594  0.49355  1.0000
  H   H2100     1.0  0.69328  0.08926  0.45890  1.0000
  H   H2101     1.0  0.71079  0.10224  0.44187  1.0000
  H   H2102     1.0  0.68642  0.10711  0.43868  1.0000
  S   S349      1.0  0.76595  0.13896  0.64169  1.0000
  H   H2103     1.0  0.63970  0.21425  0.43533  1.0000
  H   H2104     1.0  0.69941  0.06257  0.64635  1.0000
  H   H2105     1.0  0.65420  0.10119  0.60909  1.0000
  H   H2106     1.0  0.92000  0.16964  0.33026  1.0000
  H   H2107     1.0  0.91767  0.11030  0.38886  1.0000
  C   C1233     1.0  0.59916  0.99318  0.53934  1.0000
  H   H2108     1.0  0.78114  0.15536  0.36719  1.0000
  H   H2109     1.0  0.53123  0.02794  0.59830  1.0000
  H   H2110     1.0  0.62794  0.21799  0.38699  1.0000
  H   H2111     1.0  0.61730  0.02376  0.53236  1.0000
  H   H2112     1.0  0.71113  0.14303  0.43321  1.0000
  H   H2113     1.0  0.78184  0.19651  0.34324  1.0000
  S   S350      1.0  0.74325  0.18768  0.35162  1.0000
  C   C1234     1.0  0.66387  0.12592  0.33052  1.0000
  H   H2114     1.0  0.65264  0.23453  0.38924  1.0000
  C   C1235     1.0  0.88226  0.23196  0.45211  1.0000
  S   S351      1.0  0.79227  0.21596  0.40220  1.0000
  C   C1236     1.0  0.71015  0.20815  0.62964  1.0000
  C   C1237     1.0  0.66049  0.10767  0.61892  1.0000
  H   H2115     1.0  0.93383  0.17092  0.39709  1.0000
  H   H2116     1.0  0.51572  0.06335  0.57128  1.0000
  C   C1238     1.0  0.64325  0.02502  0.33534  1.0000
  H   H2117     1.0  0.75246  0.13699  0.31853  1.0000
  H   H2118     1.0  0.57727  0.01313  0.51038  1.0000
  S   S352      1.0  0.65399  0.23089  0.34661  1.0000
  H   H2119     1.0  0.64212  0.20324  0.41491  1.0000
  H   H2120     1.0  0.75339  0.20791  0.41021  1.0000
  H   H2121     1.0  0.65995  0.07926  0.63673  1.0000
  H   H2122     1.0  0.49589  0.04100  0.56261  1.0000
  N   N89       1.0  0.77969  0.03996  0.64137  1.0000
  H   H2123     1.0  0.50568  0.05186  0.60476  1.0000
  H   H2124     1.0  0.52440  0.05507  0.54861  1.0000
  H   H2125     1.0  0.78073  0.00976  0.63957  1.0000
  H   H2126     1.0  0.67827  0.23401  0.64122  1.0000
  C   C1239     1.0  0.79931  0.05982  0.61233  1.0000
  H   H2127     1.0  0.67017  0.13626  0.63214  1.0000
  H   H2128     1.0  0.60800  0.19754  0.42351  1.0000
  H   H2129     1.0  0.73173  0.04046  0.63561  1.0000
  H   H2130     1.0  0.73603  0.07347  0.31828  1.0000
  N   N90       1.0  0.62682  0.23267  0.41124  1.0000
  C   C1240     1.0  0.49415  0.04433  0.60263  1.0000
  H   H2131     1.0  0.82477  0.22994  0.58659  1.0000
  H   H2132     1.0  0.69011  0.14026  0.64164  1.0000
  H   H2133     1.0  0.59461  0.99968  0.48241  1.0000
  C   C1241     1.0  0.75882  0.15017  0.31786  1.0000
  C   C1242     1.0  0.64969  0.16470  0.31696  1.0000
  C   C1243     1.0  0.79195  0.05579  0.63441  1.0000
  H   H2134     1.0  0.69712  0.10661  0.63825  1.0000
  H   H2135     1.0  0.68027  0.99828  0.31650  1.0000
  H   H2136     1.0  0.59639  0.00283  0.55051  1.0000
  C   C1244     1.0  0.78939  0.02163  0.63354  1.0000
  H   H2137     1.0  0.77765  0.11287  0.32109  1.0000
  H   H2138     1.0  0.78363  0.06978  0.63830  1.0000
  H   H2139     1.0  0.74959  0.01921  0.63737  1.0000
  H   H2140     1.0  0.62514  0.99622  0.49361  1.0000
  H   H2141     1.0  0.81583  0.12506  0.31579  1.0000
  C   C1245     1.0  0.59908  0.98660  0.49290  1.0000
  H   H2142     1.0  0.65222  0.98651  0.43913  1.0000
  Fe  Fe179     1.0  0.85548  0.12354  0.77965  1.0000
  S   S353      1.0  0.85739  0.09274  0.77603  1.0000
  S   S354      1.0  0.84601  0.13179  0.80928  1.0000
  Fe  Fe180     1.0  0.87500  0.13472  0.73843  1.0000
  S   S355      1.0  0.87978  0.10448  0.73157  1.0000
  S   S356      1.0  0.88230  0.16141  0.71810  1.0000
  Fe  Fe181     1.0  0.84864  0.10484  0.74660  1.0000
  S   S357      1.0  0.82153  0.09908  0.73736  1.0000
  Fe  Fe182     1.0  0.88819  0.09535  0.76167  1.0000
  S   S358      1.0  0.91269  0.07493  0.77512  1.0000
  S   S359      1.0  0.84386  0.13556  0.75206  1.0000
  S   S360      1.0  0.88619  0.12561  0.76645  1.0000
  C   C1246     1.0  0.80708  0.11276  0.93630  1.0000
  C   C1247     1.0  0.60690  0.06533  0.82365  1.0000
  H   H2143     1.0  0.86599  0.12228  0.68326  1.0000
  C   C1248     1.0  0.65085  0.10595  0.66365  1.0000
  H   H2144     1.0  0.86693  0.17898  0.81685  1.0000
  S   S361      1.0  0.94844  0.12332  0.89110  1.0000
  C   C1249     1.0  0.53823  0.00615  0.68792  1.0000
  Fe  Fe183     1.0  0.71294  0.15932  0.87734  1.0000
  S   S362      1.0  0.71821  0.12660  0.88267  1.0000
  S   S363      1.0  0.69038  0.17786  0.89545  1.0000
  Fe  Fe184     1.0  0.74590  0.16253  0.84407  1.0000
  S   S364      1.0  0.75391  0.13030  0.84682  1.0000
  S   S365      1.0  0.76269  0.18127  0.82010  1.0000
  Fe  Fe185     1.0  0.72180  0.13013  0.84988  1.0000
  S   S366      1.0  0.71323  0.11378  0.82896  1.0000
  Fe  Fe186     1.0  0.74976  0.13007  0.87909  1.0000
  S   S367      1.0  0.77409  0.11263  0.89538  1.0000
  S   S368      1.0  0.71432  0.16259  0.84522  1.0000
  S   S369      1.0  0.74389  0.16250  0.87581  1.0000
  H   H2145     1.0  0.91567  0.16629  0.76846  1.0000
  H   H2146     1.0  0.72732  0.14790  0.77250  1.0000
  C   C1250     1.0  0.76658  0.10006  0.80432  1.0000
  C   C1251     1.0  0.67931  0.18241  0.75415  1.0000
  C   C1252     1.0  0.76659  0.19244  0.92626  1.0000
  C   C1253     1.0  0.79569  0.11255  0.80683  1.0000
  Fe  Fe187     1.0  0.62584  0.10645  0.77847  1.0000
  S   S370      1.0  0.64542  0.11921  0.75284  1.0000
  S   S371      1.0  0.63062  0.10984  0.80838  1.0000
  Fe  Fe188     1.0  0.59948  0.09742  0.75205  1.0000
  S   S372      1.0  0.61757  0.11019  0.72469  1.0000
  S   S373      1.0  0.57035  0.08794  0.75291  1.0000
  Fe  Fe189     1.0  0.64266  0.09440  0.73926  1.0000
  S   S374      1.0  0.67030  0.08035  0.72311  1.0000
  Fe  Fe190     1.0  0.61855  0.13379  0.74108  1.0000
  S   S375      1.0  0.61758  0.16535  0.72848  1.0000
  S   S376      1.0  0.62487  0.07990  0.76588  1.0000
  S   S377      1.0  0.59855  0.12247  0.76745  1.0000
  Fe  Fe191     1.0  0.51532  0.06348  0.67280  1.0000
  S   S378      1.0  0.90257  0.09971  0.97652  1.0000
  S   S379      1.0  0.54290  0.05610  0.68654  1.0000
  H   H2147     1.0  0.77977  0.06727  0.78480  1.0000
  H   H2148     1.0  0.53827  0.00658  0.73880  1.0000
  H   H2149     1.0  0.82622  0.18664  0.70005  1.0000
  C   C1254     1.0  0.56294  0.08092  0.73316  1.0000
  C   C1255     1.0  0.54300  0.08214  0.73295  1.0000
  C   C1256     1.0  0.53657  0.07557  0.71821  1.0000
  C   C1257     1.0  0.55005  0.06718  0.70379  1.0000
  C   C1258     1.0  0.56998  0.06590  0.70406  1.0000
  C   C1259     1.0  0.57640  0.07298  0.71845  1.0000
  H   H2150     1.0  0.53246  0.08816  0.74428  1.0000
  H   H2151     1.0  0.52122  0.07649  0.71836  1.0000
  H   H2152     1.0  0.58054  0.05929  0.69310  1.0000
  H   H2153     1.0  0.59176  0.07177  0.71847  1.0000
  C   C1260     1.0  0.61228  0.17966  0.74691  1.0000
  C   C1261     1.0  0.61193  0.19976  0.74222  1.0000
  H   H2154     1.0  0.96626  0.16013  0.88732  1.0000
  C   C1262     1.0  0.56240  0.07201  0.83480  1.0000
  C   C1263     1.0  0.60457  0.18238  0.78114  1.0000
  C   C1264     1.0  0.60891  0.17102  0.76641  1.0000
  H   H2155     1.0  0.61473  0.20653  0.72717  1.0000
  H   H2156     1.0  0.68703  0.12070  0.75633  1.0000
  H   H2157     1.0  0.60187  0.17556  0.79618  1.0000
  H   H2158     1.0  0.60994  0.15556  0.77027  1.0000
  C   C1265     1.0  0.70236  0.12873  0.68819  1.0000
  C   C1266     1.0  0.71261  0.11011  0.69319  1.0000
  C   C1267     1.0  0.70278  0.09524  0.70404  1.0000
  C   C1268     1.0  0.68276  0.09913  0.71039  1.0000
  C   C1269     1.0  0.67267  0.11799  0.70614  1.0000
  C   C1270     1.0  0.68247  0.13281  0.69510  1.0000
  H   H2159     1.0  0.72814  0.10721  0.68884  1.0000
  H   H2160     1.0  0.71068  0.08076  0.70760  1.0000
  H   H2161     1.0  0.65717  0.12111  0.71080  1.0000
  H   H2162     1.0  0.67447  0.14720  0.69132  1.0000
  C   C1271     1.0  0.65368  0.11190  0.81331  1.0000
  C   C1272     1.0  0.65462  0.12011  0.82948  1.0000
  C   C1273     1.0  0.67267  0.12126  0.83422  1.0000
  C   C1274     1.0  0.69003  0.11388  0.82304  1.0000
  C   C1275     1.0  0.68907  0.10574  0.80685  1.0000
  C   C1276     1.0  0.67106  0.10490  0.80190  1.0000
  H   H2163     1.0  0.64129  0.12539  0.83851  1.0000
  H   H2164     1.0  0.67320  0.12720  0.84691  1.0000
  H   H2165     1.0  0.70236  0.09980  0.79818  1.0000
  H   H2166     1.0  0.67063  0.09834  0.78956  1.0000
  C   C1277     1.0  0.78196  0.11795  0.91574  1.0000
  C   C1278     1.0  0.77024  0.13053  0.92775  1.0000
  C   C1279     1.0  0.77689  0.13420  0.94387  1.0000
  C   C1280     1.0  0.79532  0.12538  0.94829  1.0000
  H   H2167     1.0  0.75594  0.13728  0.92472  1.0000
  H   H2168     1.0  0.76760  0.14390  0.95306  1.0000
  H   H2169     1.0  0.88535  0.11199  0.82709  1.0000
  H   H2170     1.0  0.66948  0.16323  0.85554  1.0000
  C   C1281     1.0  0.70168  0.20053  0.91648  1.0000
  C   C1282     1.0  0.70109  0.19722  0.89793  1.0000
  H   H2171     1.0  0.67820  0.19589  0.69322  1.0000
  H   H2172     1.0  0.67121  0.19471  0.85960  1.0000
  S   S380      1.0  0.80273  0.13074  0.96888  1.0000
  H   H2173     1.0  0.69499  0.19156  0.92914  1.0000
  H   H2174     1.0  0.67651  0.08165  0.68127  1.0000
  C   C1283     1.0  0.62421  0.19136  0.85612  1.0000
  C   C1284     1.0  0.93525  0.11512  0.91425  1.0000
  C   C1285     1.0  0.91644  0.12500  0.91993  1.0000
  C   C1286     1.0  0.90592  0.12000  0.93867  1.0000
  C   C1287     1.0  0.91427  0.10527  0.95209  1.0000
  C   C1288     1.0  0.93307  0.09536  0.94638  1.0000
  C   C1289     1.0  0.94344  0.10010  0.92751  1.0000
  H   H2175     1.0  0.91000  0.13671  0.90983  1.0000
  H   H2176     1.0  0.89155  0.12784  0.94290  1.0000
  H   H2177     1.0  0.93966  0.08397  0.95667  1.0000
  H   H2178     1.0  0.95787  0.09235  0.92338  1.0000
  C   C1290     1.0  0.81682  0.09838  0.71392  1.0000
  C   C1291     1.0  0.79746  0.10245  0.71067  1.0000
  C   C1292     1.0  0.79291  0.10148  0.69252  1.0000
  C   C1293     1.0  0.80764  0.09576  0.67758  1.0000
  C   C1294     1.0  0.79501  0.17265  0.88009  1.0000
  C   C1295     1.0  0.83159  0.09321  0.69880  1.0000
  H   H2179     1.0  0.78589  0.10634  0.72227  1.0000
  H   H2180     1.0  0.61940  0.07073  0.82675  1.0000
  H   H2181     1.0  0.81417  0.08875  0.78187  1.0000
  H   H2182     1.0  0.84651  0.08973  0.70114  1.0000
  C   C1296     1.0  0.82386  0.14740  0.81222  1.0000
  C   C1297     1.0  0.81708  0.15998  0.79640  1.0000
  C   C1298     1.0  0.79855  0.17126  0.79898  1.0000
  C   C1299     1.0  0.78670  0.16943  0.81722  1.0000
  C   C1300     1.0  0.79369  0.15719  0.83306  1.0000
  C   C1301     1.0  0.81242  0.14648  0.83064  1.0000
  H   H2183     1.0  0.82607  0.16093  0.78221  1.0000
  H   H2184     1.0  0.79310  0.18073  0.78671  1.0000
  H   H2185     1.0  0.78452  0.15561  0.84712  1.0000
  H   H2186     1.0  0.81765  0.13670  0.84287  1.0000
  C   C1302     1.0  0.92947  0.08515  0.78389  1.0000
  C   C1303     1.0  0.93398  0.07811  0.80264  1.0000
  C   C1304     1.0  0.94851  0.08497  0.80915  1.0000
  C   C1305     1.0  0.95911  0.09845  0.79669  1.0000
  C   C1306     1.0  0.95452  0.10548  0.77802  1.0000
  C   C1307     1.0  0.93965  0.09911  0.77176  1.0000
  H   H2187     1.0  0.92622  0.06728  0.81212  1.0000
  H   H2188     1.0  0.95164  0.07961  0.82367  1.0000
  S   S381      1.0  0.74498  0.09970  0.65229  1.0000
  H   H2189     1.0  0.93653  0.10449  0.75722  1.0000
  C   C1308     1.0  0.87848  0.18030  0.73164  1.0000
  C   C1309     1.0  0.88277  0.19859  0.72259  1.0000
  H   H2190     1.0  0.78662  0.17146  0.70611  1.0000
  H   H2191     1.0  0.82041  0.19905  0.86608  1.0000
  C   C1310     1.0  0.87004  0.19163  0.76271  1.0000
  C   C1311     1.0  0.87154  0.17706  0.75162  1.0000
  H   H2192     1.0  0.88783  0.20129  0.70709  1.0000
  Fe  Fe192     1.0  0.97672  0.10916  0.87432  1.0000
  H   H2193     1.0  0.86500  0.18889  0.77818  1.0000
  H   H2194     1.0  0.86740  0.16332  0.75865  1.0000
  H   H2195     1.0  0.80994  0.00813  0.65374  1.0000
  H   H2196     1.0  0.76733  0.21643  0.88773  1.0000
  H   H2197     1.0  0.83459  0.20443  0.81979  1.0000
  C   C1312     1.0  0.76650  0.23458  0.80666  1.0000
  C   C1313     1.0  0.65263  0.16313  0.78855  1.0000
  H   H2198     1.0  0.63837  0.15816  0.79375  1.0000
  H   H2199     1.0  0.66104  0.15758  0.80054  1.0000
  H   H2200     1.0  0.64979  0.17922  0.78583  1.0000
  C   C1314     1.0  0.73536  0.19891  0.66427  1.0000
  H   H2201     1.0  0.51447  0.03211  0.70860  1.0000
  C   C1315     1.0  0.76519  0.05225  0.67388  1.0000
  H   H2202     1.0  0.65092  0.23171  0.93511  1.0000
  C   C1316     1.0  0.59228  0.08286  0.81606  1.0000
  H   H2203     1.0  0.54558  0.21800  0.83677  1.0000
  C   C1317     1.0  0.66292  0.19170  0.74239  1.0000
  C   C1318     1.0  0.54379  0.23402  0.83500  1.0000
  H   H2204     1.0  0.93615  0.12101  0.83283  1.0000
  C   C1319     1.0  0.82698  0.09169  0.68083  1.0000
  H   H2205     1.0  0.60055  0.05673  0.83732  1.0000
  H   H2206     1.0  0.78670  0.09316  0.83432  1.0000
  H   H2207     1.0  0.87013  0.15336  0.82307  1.0000
  H   H2208     1.0  0.63773  0.08064  0.68010  1.0000
  C   C1320     1.0  0.81254  0.20958  0.87567  1.0000
  H   H2209     1.0  0.62094  0.10220  0.67507  1.0000
  H   H2210     1.0  0.80053  0.12099  0.76820  1.0000
  H   H2211     1.0  0.72771  0.18654  0.67090  1.0000
  H   H2212     1.0  0.93830  0.13611  0.84935  1.0000
  C   C1321     1.0  0.71965  0.22336  0.88376  1.0000
  H   H2213     1.0  0.80432  0.06163  0.77331  1.0000
  H   H2214     1.0  0.67693  0.18980  0.76702  1.0000
  C   C1322     1.0  0.66244  0.15449  0.77015  1.0000
  C   C1323     1.0  0.71006  0.20864  0.88155  1.0000
  H   H2215     1.0  0.75016  0.05654  0.67079  1.0000
  C   C1324     1.0  0.69211  0.20221  0.66316  1.0000
  C   C1325     1.0  0.77120  0.20520  0.86103  1.0000
  H   H2216     1.0  0.94354  0.13260  0.95021  1.0000
  Fe  Fe193     1.0  0.73582  0.13195  0.64949  1.0000
  H   H2217     1.0  0.56572  0.08020  0.84523  1.0000
  C   C1326     1.0  0.81476  0.17210  0.67357  1.0000
  H   H2218     1.0  0.57334  0.12097  0.81146  1.0000
  H   H2219     1.0  0.79414  0.21173  0.90286  1.0000
  H   H2220     1.0  0.61473  0.21272  0.83165  1.0000
  H   H2221     1.0  0.76993  0.22196  0.81799  1.0000
  C   C1327     1.0  0.67300  0.18439  0.82121  1.0000
  C   C1328     1.0  0.50730  0.21652  0.85235  1.0000
  H   H2222     1.0  0.79115  0.03207  0.66833  1.0000
  N   N91       1.0  0.70453  0.21532  0.64892  1.0000
  H   H2223     1.0  0.78936  0.16931  0.91949  1.0000
  H   H2224     1.0  0.88813  0.12955  0.84038  1.0000
  H   H2225     1.0  0.61300  0.05586  0.81251  1.0000
  H   H2226     1.0  0.76985  0.02255  0.66893  1.0000
  H   H2227     1.0  0.69298  0.18667  0.74517  1.0000
  H   H2228     1.0  0.76404  0.04725  0.68979  1.0000
  H   H2229     1.0  0.74088  0.11253  0.79050  1.0000
  C   C1329     1.0  0.76967  0.20188  0.88332  1.0000
  C   C1330     1.0  0.61452  0.21168  0.84743  1.0000
  C   C1331     1.0  0.77658  0.07456  0.95962  1.0000
  C   C1332     1.0  0.80036  0.10898  0.92024  1.0000
  H   H2230     1.0  0.77795  0.10451  0.69032  1.0000
  C   C1333     1.0  0.54255  0.99230  0.67288  1.0000
  S   S382      1.0  0.81252  0.22377  0.67259  1.0000
  H   H2231     1.0  0.65170  0.15782  0.76005  1.0000
  H   H2232     1.0  0.59081  0.09365  0.82586  1.0000
  H   H2233     1.0  0.64855  0.19146  0.75176  1.0000
  C   C1334     1.0  0.98903  0.02517  0.80690  1.0000
  H   H2234     1.0  0.82364  0.21652  0.87949  1.0000
  H   H2235     1.0  0.66433  0.13851  0.77469  1.0000
  H   H2236     1.0  0.80957  0.09918  0.91109  1.0000
  H   H2237     1.0  0.78226  0.08808  0.95907  1.0000
  H   H2238     1.0  0.76793  0.08634  0.81497  1.0000
  H   H2239     1.0  0.96263  0.11586  0.76822  1.0000
  N   N92       1.0  0.78617  0.18848  0.89206  1.0000
  H   H2240     1.0  0.74066  0.03195  0.65793  1.0000
  H   H2241     1.0  0.78368  0.16426  0.87909  1.0000
  N   N93       1.0  0.68150  0.16069  0.76012  1.0000
  C   C1335     1.0  0.81430  0.15080  0.70574  1.0000
  C   C1336     1.0  0.79952  0.08558  0.78925  1.0000
  C   C1337     1.0  0.89587  0.16510  0.80620  1.0000
  H   H2242     1.0  0.80748  0.20655  0.80194  1.0000
  H   H2243     1.0  0.63218  0.16110  0.88579  1.0000
  H   H2244     1.0  0.67591  0.15244  0.73420  1.0000
  H   H2245     1.0  0.80222  0.17520  0.72184  1.0000
  H   H2246     1.0  0.63632  0.22037  0.87774  1.0000
  H   H2247     1.0  0.82136  0.10598  0.93936  1.0000
  H   H2248     1.0  0.82304  0.14338  0.71717  1.0000
  H   H2249     1.0  0.53512  0.06223  0.84886  1.0000
  H   H2250     1.0  0.75936  0.21692  0.85663  1.0000
  H   H2251     1.0  0.66353  0.18459  0.72973  1.0000
  C   C1338     1.0  0.64619  0.20621  0.87930  1.0000
  C   C1339     1.0  0.75160  0.09892  0.79166  1.0000
  H   H2252     1.0  0.78004  0.11312  0.76432  1.0000
  C   C1340     1.0  0.63459  0.09341  0.66879  1.0000
  C   C1341     1.0  0.68817  0.15121  0.74219  1.0000
  H   H2253     1.0  0.66410  0.20723  0.73682  1.0000
  H   H2254     1.0  0.78652  0.12617  0.81089  1.0000
  H   H2255     1.0  0.75769  0.09548  0.77702  1.0000
  C   C1342     1.0  0.79955  0.09951  0.82618  1.0000
  H   H2256     1.0  0.75957  0.11166  0.81308  1.0000
  C   C1343     1.0  0.78558  0.11854  0.77533  1.0000
  H   H2257     1.0  0.74293  0.08740  0.79923  1.0000
  C   C1344     1.0  0.71197  0.21460  0.91869  1.0000
  C   C1345     1.0  0.79255  0.07384  0.77676  1.0000
  C   C1346     1.0  0.80979  0.21987  0.80649  1.0000
  C   C1347     1.0  0.60458  0.20235  0.77648  1.0000
  H   H2258     1.0  0.90730  0.14893  0.84169  1.0000
  C   C1348     1.0  0.50410  0.00326  0.69653  1.0000
  N   N94       1.0  0.78638  0.10405  0.79382  1.0000
  H   H2259     1.0  0.80067  0.17865  0.86488  1.0000
  H   H2260     1.0  0.69905  0.15878  0.73149  1.0000
  H   H2261     1.0  0.80987  0.11674  0.79904  1.0000
  H   H2262     1.0  0.81229  0.08792  0.82391  1.0000
  H   H2263     1.0  0.80326  0.10842  0.83566  1.0000
  H   H2264     1.0  0.95893  0.02369  0.80614  1.0000
  H   H2265     1.0  0.94192  0.14024  0.79601  1.0000
  C   C1349     1.0  0.69691  0.12944  0.74576  1.0000
  C   C1350     1.0  0.60847  0.21106  0.75703  1.0000
  H   H2266     1.0  0.69089  0.16185  0.78690  1.0000
  H   H2267     1.0  0.98812  0.01262  0.81878  1.0000
  H   H2268     1.0  0.69953  0.12371  0.73191  1.0000
  H   H2269     1.0  0.68274  0.19024  0.82810  1.0000
  H   H2270     1.0  0.83371  0.13435  0.67555  1.0000
  H   H2271     1.0  0.78092  0.04489  0.97418  1.0000
  H   H2272     1.0  0.95045  0.14032  0.82486  1.0000
  H   H2273     1.0  0.80184  0.07520  0.80274  1.0000
  H   H2274     1.0  0.97851  0.14611  0.95711  1.0000
  H   H2275     1.0  0.77068  0.14677  0.76328  1.0000
  C   C1351     1.0  0.69590  0.15457  0.77393  1.0000
  H   H2276     1.0  0.78948  0.08236  0.76264  1.0000
  H   H2277     1.0  0.67465  0.22111  0.68374  1.0000
  H   H2278     1.0  0.77627  0.20064  0.93063  1.0000
  H   H2279     1.0  0.71114  0.12703  0.75064  1.0000
  H   H2280     1.0  0.75928  0.13786  0.78729  1.0000
  H   H2281     1.0  0.69693  0.13888  0.78021  1.0000
  H   H2282     1.0  0.92213  0.16551  0.82808  1.0000
  C   C1352     1.0  0.87743  0.16606  0.82170  1.0000
  H   H2283     1.0  0.88014  0.16782  0.83597  1.0000
  H   H2284     1.0  0.67885  0.20166  0.65735  1.0000
  H   H2285     1.0  0.81480  0.07163  0.95700  1.0000
  C   C1353     1.0  0.83687  0.17417  0.69516  1.0000
  H   H2286     1.0  0.78505  0.20953  0.85319  1.0000
  H   H2287     1.0  0.67704  0.16837  0.82276  1.0000
  H   H2288     1.0  0.80834  0.13908  0.70179  1.0000
  H   H2289     1.0  0.50168  0.01697  0.68607  1.0000
  H   H2290     1.0  0.78158  0.14743  0.78350  1.0000
  C   C1354     1.0  0.68483  0.11045  0.64995  1.0000
  H   H2291     1.0  0.71787  0.17361  0.76905  1.0000
  H   H2292     1.0  0.72064  0.15967  0.74991  1.0000
  H   H2293     1.0  0.89083  0.16392  0.79273  1.0000
  H   H2294     1.0  0.90072  0.17952  0.80348  1.0000
  C   C1355     1.0  0.77348  0.13869  0.77771  1.0000
  C   C1356     1.0  0.72103  0.22595  0.90237  1.0000
  H   H2295     1.0  0.49362  0.21418  0.82782  1.0000
  C   C1357     1.0  0.71652  0.15934  0.76576  1.0000
  H   H2296     1.0  0.83848  0.08711  0.66945  1.0000
  H   H2297     1.0  0.69150  0.10882  0.66315  1.0000
  C   C1358     1.0  0.89622  0.11967  0.83033  1.0000
  N   N95       1.0  0.91247  0.14899  0.81042  1.0000
  H   H2298     1.0  0.89800  0.13029  0.79968  1.0000
  C   C1359     1.0  0.56190  0.09705  0.80447  1.0000
  C   C1360     1.0  0.91888  0.15065  0.82890  1.0000
  H   H2299     1.0  0.93945  0.15301  0.76312  1.0000
  C   C1361     1.0  0.90704  0.12942  0.81091  1.0000
  H   H2300     1.0  0.90636  0.10815  0.83789  1.0000
  H   H2301     1.0  0.93466  0.16576  0.79425  1.0000
  C   C1362     1.0  0.92934  0.15207  0.79413  1.0000
  C   C1363     1.0  0.92551  0.15286  0.77339  1.0000
  H   H2302     1.0  0.95027  0.17176  0.92396  1.0000
  H   H2303     1.0  0.92029  0.11886  0.80704  1.0000
  C   C1364     1.0  0.93695  0.13608  0.83409  1.0000
  H   H2304     1.0  0.92616  0.15359  0.94505  1.0000
  H   H2305     1.0  0.74739  0.19432  0.65273  1.0000
  H   H2306     1.0  0.91975  0.13992  0.77206  1.0000
  S   S383      1.0  0.87385  0.22749  0.76799  1.0000
  C   C1365     1.0  0.87504  0.20968  0.75378  1.0000
  S   S384      1.0  0.50520  0.09309  0.65691  1.0000
  C   C1366     1.0  0.81191  0.15772  0.88739  1.0000
  H   H2307     1.0  0.86567  0.14211  0.69515  1.0000
  H   H2308     1.0  0.66779  0.13808  0.65756  1.0000
  H   H2309     1.0  0.53330  0.08779  0.84424  1.0000
  N   N96       1.0  0.97621  0.15023  0.92658  1.0000
  H   H2310     1.0  0.84092  0.21386  0.79474  1.0000
  H   H2311     1.0  0.65282  0.10981  0.67749  1.0000
  H   H2312     1.0  0.76919  0.19201  0.85608  1.0000
  C   C1367     1.0  0.79718  0.16420  0.71583  1.0000
  S   S385      1.0  0.60087  0.21601  0.79517  1.0000
  C   C1368     1.0  0.85628  0.13311  0.69159  1.0000
  C   C1369     1.0  0.53550  0.01923  0.72728  1.0000
  H   H2313     1.0  0.97006  0.03888  0.84837  1.0000
  H   H2314     1.0  0.65339  0.14324  0.88336  1.0000
  C   C1370     1.0  0.82040  0.04058  0.95907  1.0000
  H   H2315     1.0  0.61790  0.18054  0.85095  1.0000
  H   H2316     1.0  0.77262  0.06511  0.67051  1.0000
  S   S386      1.0  0.67849  0.23159  0.81608  1.0000
  N   N97       1.0  0.64607  0.18744  0.85134  1.0000
  H   H2317     1.0  0.74187  0.20188  0.67610  1.0000
  H   H2318     1.0  0.63858  0.19517  0.88937  1.0000
  H   H2319     1.0  0.97164  0.17069  0.94664  1.0000
  H   H2320     1.0  0.54842  0.06932  0.79068  1.0000
  C   C1371     1.0  0.98171  0.15565  0.88901  1.0000
  C   C1372     1.0  0.83136  0.21713  0.80839  1.0000
  H   H2321     1.0  0.55398  0.11236  0.82985  1.0000
  C   C1373     1.0  0.57617  0.06301  0.80218  1.0000
  H   H2322     1.0  0.61894  0.18956  0.87196  1.0000
  C   C1374     1.0  0.65141  0.19058  0.82944  1.0000
  H   H2323     1.0  0.81730  0.14736  0.87695  1.0000
  H   H2324     1.0  0.51997  0.20922  0.82318  1.0000
  H   H2325     1.0  0.70977  0.20595  0.86719  1.0000
  C   C1375     1.0  0.80108  0.19982  0.89448  1.0000
  H   H2326     1.0  0.54723  0.09545  0.80278  1.0000
  H   H2327     1.0  0.80140  0.21952  0.82144  1.0000
  C   C1376     1.0  0.65562  0.20078  0.85915  1.0000
  H   H2328     1.0  0.53367  0.07459  0.82489  1.0000
  H   H2329     1.0  0.50637  0.01556  0.72939  1.0000
  H   H2330     1.0  0.84937  0.15149  0.66508  1.0000
  H   H2331     1.0  0.56796  0.05646  0.83982  1.0000
  H   H2332     1.0  0.80727  0.14881  0.90155  1.0000
  N   N98       1.0  0.57267  0.07866  0.81459  1.0000
  H   H2333     1.0  0.56302  0.04675  0.78709  1.0000
  H   H2334     1.0  0.56939  0.10065  0.78928  1.0000
  H   H2335     1.0  0.54889  0.12689  0.80728  1.0000
  H   H2336     1.0  0.55008  0.04907  0.81082  1.0000
  H   H2337     1.0  0.82967  0.05953  0.97422  1.0000
  H   H2338     1.0  0.80528  0.18489  0.67911  1.0000
  H   H2339     1.0  0.64278  0.18278  0.82300  1.0000
  H   H2340     1.0  0.55628  0.99482  0.66290  1.0000
  H   H2341     1.0  0.52023  0.20860  0.85879  1.0000
  H   H2342     1.0  0.98447  0.06060  0.82481  1.0000
  S   S387      1.0  0.71385  0.14635  0.67175  1.0000
  H   H2343     1.0  0.58537  0.06746  0.78799  1.0000
  H   H2344     1.0  0.79347  0.17105  0.65592  1.0000
  H   H2345     1.0  0.59948  0.08964  0.80169  1.0000
  C   C1377     1.0  0.53996  0.07449  0.83787  1.0000
  H   H2346     1.0  0.84357  0.16681  0.70809  1.0000
  H   H2347     1.0  0.82091  0.21006  0.77083  1.0000
  H   H2348     1.0  0.81176  0.19038  0.90318  1.0000
  H   H2349     1.0  0.58439  0.04934  0.80909  1.0000
  C   C1378     1.0  0.55813  0.05699  0.79769  1.0000
  C   C1379     1.0  0.55947  0.11520  0.81405  1.0000
  H   H2350     1.0  0.65555  0.16570  0.88911  1.0000
  H   H2351     1.0  0.98141  0.17676  0.90704  1.0000
  H   H2352     1.0  0.72666  0.23207  0.87112  1.0000
  H   H2353     1.0  0.96701  0.04464  0.79111  1.0000
  C   C1380     1.0  0.68549  0.20761  0.68368  1.0000
  H   H2354     1.0  0.70906  0.07783  0.65842  1.0000
  H   H2355     1.0  0.64772  0.20619  0.82318  1.0000
  C   C1381     1.0  0.96796  0.03500  0.80529  1.0000
  H   H2356     1.0  0.84935  0.12484  0.70516  1.0000
  H   H2357     1.0  0.78924  0.15522  0.72826  1.0000
  H   H2358     1.0  0.65777  0.20860  0.88654  1.0000
  H   H2359     1.0  0.60864  0.22651  0.75337  1.0000
  C   C1382     1.0  0.88087  0.21332  0.73364  1.0000
  H   H2360     1.0  0.94975  0.14985  0.91594  1.0000
  H   H2361     1.0  0.82435  0.16458  0.88816  1.0000
  N   N99       1.0  0.82682  0.16055  0.68840  1.0000
  C   C1383     1.0  0.95451  0.15568  0.92725  1.0000
  H   H2362     1.0  0.70163  0.05574  0.67136  1.0000
  C   C1384     1.0  0.84127  0.14511  0.67917  1.0000
  H   H2363     1.0  0.54901  0.02146  0.71695  1.0000
  H   H2364     1.0  0.76767  0.16919  0.91063  1.0000
  H   H2365     1.0  0.94403  0.15474  0.95892  1.0000
  H   H2366     1.0  0.59901  0.21425  0.85427  1.0000
  H   H2367     1.0  0.64804  0.15684  0.85090  1.0000
  H   H2368     1.0  0.67568  0.19031  0.80546  1.0000
  C   C1385     1.0  0.98135  0.12848  0.92803  1.0000
  C   C1386     1.0  0.65334  0.16641  0.85865  1.0000
  C   C1387     1.0  0.77781  0.17878  0.91195  1.0000
  C   C1388     1.0  0.69804  0.06835  0.66000  1.0000
  C   C1389     1.0  0.51871  0.01762  0.71732  1.0000
  C   C1390     1.0  0.85273  0.18322  0.67999  1.0000
  H   H2369     1.0  0.53125  0.03225  0.73456  1.0000
  C   C1391     1.0  0.78068  0.05948  0.97772  1.0000
  H   H2370     1.0  0.75566  0.19635  0.88895  1.0000
  H   H2371     1.0  0.78306  0.06866  0.94603  1.0000
  H   H2372     1.0  0.65554  0.21490  0.84915  1.0000
  H   H2373     1.0  0.84707  0.19168  0.66693  1.0000
  S   S388      1.0  0.65179  0.22871  0.77472  1.0000
  H   H2374     1.0  0.76067  0.07897  0.96005  1.0000
  C   C1392     1.0  0.64802  0.15911  0.88051  1.0000
  H   H2375     1.0  0.83518  0.22989  0.81262  1.0000
  H   H2376     1.0  0.78448  0.22220  0.78285  1.0000
  H   H2377     1.0  0.49888  0.22414  0.89353  1.0000
  H   H2378     1.0  0.75320  0.23261  0.80183  1.0000
  H   H2379     1.0  0.80302  0.22135  0.86773  1.0000
  H   H2380     1.0  0.75444  0.20263  0.92049  1.0000
  H   H2381     1.0  0.80806  0.03900  0.95252  1.0000
  C   C1393     1.0  0.98124  0.15686  0.94362  1.0000
  H   H2382     1.0  0.71833  0.22708  0.66769  1.0000
  H   H2383     1.0  0.71316  0.21648  0.93309  1.0000
  S   S389      1.0  0.97853  0.10670  0.80325  1.0000
  H   H2384     1.0  0.55213  0.00633  0.69250  1.0000
  H   H2385     1.0  0.70278  0.23465  0.84233  1.0000
  H   H2386     1.0  0.62146  0.22345  0.84978  1.0000
  H   H2387     1.0  0.79085  0.15489  0.67843  1.0000
  H   H2388     1.0  0.81031  0.14906  0.65879  1.0000
  C   C1394     1.0  0.78305  0.23571  0.78906  1.0000
  H   H2389     1.0  0.83292  0.04194  0.94705  1.0000
  H   H2390     1.0  0.53450  0.02107  0.67987  1.0000
  C   C1395     1.0  0.82014  0.22475  0.76204  1.0000
  H   H2391     1.0  0.82417  0.17832  0.66033  1.0000
  H   H2392     1.0  0.88432  0.22730  0.72655  1.0000
  C   C1396     1.0  0.67718  0.07861  0.66641  1.0000
  S   S390      1.0  0.97763  0.08357  0.85982  1.0000
  H   H2393     1.0  0.86535  0.17222  0.67563  1.0000
  H   H2394     1.0  0.96137  0.04333  0.81720  1.0000
  H   H2395     1.0  0.76014  0.18351  0.93972  1.0000
  H   H2396     1.0  0.66766  0.06752  0.66810  1.0000
  C   C1397     1.0  0.94166  0.14864  0.94658  1.0000
  Fe  Fe194     1.0  0.98877  0.10246  0.83242  1.0000
  C   C1398     1.0  0.98583  0.16077  0.90769  1.0000
  H   H2397     1.0  0.85831  0.19347  0.68659  1.0000
  C   C1399     1.0  0.77688  0.03565  0.66324  1.0000
  C   C1400     1.0  0.80172  0.16086  0.66651  1.0000
  H   H2398     1.0  0.83199  0.22523  0.70436  1.0000
  H   H2399     1.0  0.98627  0.14000  0.88825  1.0000
  N   N100      1.0  0.52231  0.00198  0.70488  1.0000
  H   H2400     1.0  0.97435  0.12116  0.94221  1.0000
  S   S391      1.0  0.80242  0.09211  0.65527  1.0000
  H   H2401     1.0  0.83463  0.22494  0.75272  1.0000
  H   H2402     1.0  0.82470  0.02720  0.96924  1.0000
  C   C1401     1.0  0.81621  0.05886  0.96879  1.0000
  H   H2403     1.0  0.69785  0.20893  0.69038  1.0000
  C   C1402     1.0  0.98611  0.03472  0.84601  1.0000
  H   H2404     1.0  0.97517  0.12304  0.91737  1.0000
  C   C1403     1.0  0.72224  0.21757  0.65635  1.0000
  S   S392      1.0  0.98664  0.12863  0.84643  1.0000
  H   H2405     1.0  0.80899  0.22670  0.75262  1.0000
  H   H2406     1.0  0.63163  0.08879  0.65583  1.0000
  H   H2407     1.0  0.69946  0.18695  0.66521  1.0000
  N   N101      1.0  0.67010  0.09693  0.65326  1.0000
  H   H2408     1.0  0.50643  0.19196  0.83880  1.0000
  C   C1404     1.0  0.50681  0.20776  0.83434  1.0000
  H   H2409     1.0  0.64483  0.11986  0.65524  1.0000
  H   H2410     1.0  0.53101  0.99537  0.66375  1.0000
  H   H2411     1.0  0.49463  0.21252  0.86336  1.0000
  H   H2412     1.0  0.55677  0.98599  0.71847  1.0000
  H   H2413     1.0  0.98840  0.06368  0.79191  1.0000
  H   H2414     1.0  0.50551  0.99142  0.68794  1.0000
  H   H2415     1.0  0.80392  0.09012  0.98059  1.0000
  Fe  Fe195     1.0  0.80263  0.24012  0.12519  1.0000
  Fe  Fe196     1.0  0.66621  0.44271  0.13854  1.0000
  S   S393      1.0  0.68508  0.44617  0.10928  1.0000
  S   S394      1.0  0.68107  0.42268  0.16215  1.0000
  Fe  Fe197     1.0  0.65807  0.44673  0.09690  1.0000
  S   S395      1.0  0.65896  0.42416  0.07735  1.0000
  S   S396      1.0  0.63976  0.44158  0.12650  1.0000
  Fe  Fe198     1.0  0.68172  0.32059  0.22324  1.0000
  S   S397      1.0  0.70425  0.30281  0.20420  1.0000
  S   S398      1.0  0.65886  0.34202  0.20876  1.0000
  Fe  Fe199     1.0  0.69784  0.30058  0.25996  1.0000
  S   S399      1.0  0.72196  0.28195  0.24358  1.0000
  C   C1405     1.0  0.86031  0.27028  0.29964  1.0000
  Fe  Fe200     1.0  0.72481  0.30862  0.22148  1.0000
  S   S400      1.0  0.75481  0.31255  0.20651  1.0000
  Fe  Fe201     1.0  0.69926  0.27779  0.22806  1.0000
  S   S401      1.0  0.70053  0.24781  0.22200  1.0000
  S   S402      1.0  0.70282  0.32815  0.23913  1.0000
  S   S403      1.0  0.67458  0.29469  0.24580  1.0000
  Fe  Fe202     1.0  0.84841  0.35426  0.26209  1.0000
  S   S404      1.0  0.81724  0.36537  0.27323  1.0000
  S   S405      1.0  0.87367  0.36789  0.26609  1.0000
  Fe  Fe203     1.0  0.83836  0.32047  0.24557  1.0000
  S   S406      1.0  0.80687  0.32968  0.25609  1.0000
  S   S407      1.0  0.84317  0.29086  0.23548  1.0000
  Fe  Fe204     1.0  0.81194  0.36013  0.24482  1.0000
  S   S408      1.0  0.78837  0.37855  0.22941  1.0000
  Fe  Fe205     1.0  0.81495  0.33394  0.28330  1.0000
  H   H2416     1.0  0.71498  0.46421  0.12587  1.0000
  S   S409      1.0  0.84326  0.35110  0.23239  1.0000
  S   S410      1.0  0.84646  0.32272  0.27404  1.0000
  N   N102      1.0  0.74324  0.33400  0.28459  1.0000
  C   C1406     1.0  0.84260  0.24614  0.27861  1.0000
  H   H2417     1.0  0.57326  0.48075  0.06054  1.0000
  Fe  Fe206     1.0  0.61696  0.37364  0.00489  1.0000
  S   S411      1.0  0.63417  0.34509  0.01586  1.0000
  S   S412      1.0  0.61881  0.40297  0.01291  1.0000
  Fe  Fe207     1.0  0.60680  0.33290  0.01872  1.0000
  S   S413      1.0  0.59508  0.31298  0.04536  1.0000
  S   S414      1.0  0.58890  0.36180  0.00979  1.0000
  C   C1407     1.0  0.81745  0.24181  0.30731  1.0000
  H   H2418     1.0  0.82525  0.25567  0.19050  1.0000
  C   C1408     1.0  0.72564  0.34089  0.27476  1.0000
  H   H2419     1.0  0.72101  0.42233  0.15987  1.0000
  C   C1409     1.0  0.54397  0.30956  0.01033  1.0000
  S   S415      1.0  0.69913  0.29536  0.29200  1.0000
  H   H2420     1.0  0.55110  0.46027  0.12111  1.0000
  H   H2421     1.0  0.89786  0.47204  0.25560  1.0000
  H   H2422     1.0  0.68107  0.25213  0.26868  1.0000
  C   C1410     1.0  0.53466  0.34443  0.04747  1.0000
  H   H2423     1.0  0.87012  0.45108  0.30073  1.0000
  H   H2424     1.0  0.80948  0.23706  0.29760  1.0000
  H   H2425     1.0  0.66320  0.38651  0.01030  1.0000
  H   H2426     1.0  0.59591  0.44204  0.06872  1.0000
  H   H2427     1.0  0.73705  0.47262  0.14148  1.0000
  H   H2428     1.0  0.79390  0.26645  0.28369  1.0000
  C   C1411     1.0  0.75755  0.30982  0.26039  1.0000
  C   C1412     1.0  0.56605  0.30238  0.00899  1.0000
  C   C1413     1.0  0.61358  0.29569  0.05480  1.0000
  C   C1414     1.0  0.60991  0.28514  0.07361  1.0000
  C   C1415     1.0  0.62467  0.27131  0.08120  1.0000
  C   C1416     1.0  0.64300  0.26774  0.06980  1.0000
  C   C1417     1.0  0.64657  0.27820  0.05098  1.0000
  C   C1418     1.0  0.63196  0.29222  0.04354  1.0000
  H   H2429     1.0  0.59572  0.28786  0.08239  1.0000
  H   H2430     1.0  0.69245  0.24080  0.28920  1.0000
  H   H2431     1.0  0.66071  0.27547  0.04210  1.0000
  H   H2432     1.0  0.63489  0.30022  0.02899  1.0000
  S   S416      1.0  0.77520  0.25661  0.11497  1.0000
  C   C1419     1.0  0.84053  0.45407  0.29621  1.0000
  C   C1420     1.0  0.51472  0.33111  0.02172  1.0000
  H   H2433     1.0  0.74565  0.31524  0.25179  1.0000
  C   C1421     1.0  0.68685  0.27692  0.30651  1.0000
  H   H2434     1.0  0.81353  0.28261  0.30100  1.0000
  C   C1422     1.0  0.84673  0.27338  0.17580  1.0000
  C   C1423     1.0  0.85716  0.28754  0.17776  1.0000
  C   C1424     1.0  0.85499  0.29420  0.19559  1.0000
  C   C1425     1.0  0.84248  0.28662  0.21183  1.0000
  C   C1426     1.0  0.83162  0.27283  0.20975  1.0000
  C   C1427     1.0  0.83356  0.26639  0.19181  1.0000
  H   H2435     1.0  0.68768  0.41964  0.99893  1.0000
  H   H2436     1.0  0.74056  0.30357  0.28821  1.0000
  H   H2437     1.0  0.82193  0.26685  0.22221  1.0000
  C   C1428     1.0  0.73882  0.33392  0.30622  1.0000
  C   C1429     1.0  0.68124  0.24777  0.21033  1.0000
  C   C1430     1.0  0.66280  0.25808  0.21606  1.0000
  C   C1431     1.0  0.64769  0.25851  0.20591  1.0000
  H   H2438     1.0  0.62183  0.26338  0.09577  1.0000
  H   H2439     1.0  0.60132  0.41720  0.09403  1.0000
  C   C1432     1.0  0.80538  0.27502  0.27607  1.0000
  H   H2440     1.0  0.66019  0.26574  0.22825  1.0000
  H   H2441     1.0  0.63342  0.26651  0.21028  1.0000
  C   C1433     1.0  0.53539  0.36588  0.00175  1.0000
  C   C1434     1.0  0.88758  0.47323  0.26934  1.0000
  C   C1435     1.0  0.77881  0.36199  0.22034  1.0000
  C   C1436     1.0  0.75873  0.36364  0.22123  1.0000
  C   C1437     1.0  0.75109  0.34858  0.21679  1.0000
  C   C1438     1.0  0.76360  0.33211  0.21123  1.0000
  C   C1439     1.0  0.78364  0.33088  0.20967  1.0000
  C   C1440     1.0  0.79122  0.34578  0.21420  1.0000
  H   H2442     1.0  0.74910  0.37613  0.22609  1.0000
  H   H2443     1.0  0.73559  0.34966  0.21777  1.0000
  H   H2444     1.0  0.79331  0.31802  0.20575  1.0000
  H   H2445     1.0  0.80674  0.34446  0.21346  1.0000
  C   C1441     1.0  0.64580  0.41868  0.06075  1.0000
  C   C1442     1.0  0.63561  0.43309  0.04840  1.0000
  C   C1443     1.0  0.62698  0.42798  0.03427  1.0000
  C   C1444     1.0  0.62832  0.40842  0.03228  1.0000
  C   C1445     1.0  0.63808  0.39400  0.04495  1.0000
  C   C1446     1.0  0.64691  0.39913  0.05890  1.0000
  H   H2446     1.0  0.63512  0.44820  0.04912  1.0000
  H   H2447     1.0  0.61965  0.43929  0.02445  1.0000
  H   H2448     1.0  0.63926  0.37890  0.04370  1.0000
  H   H2449     1.0  0.65486  0.38784  0.06822  1.0000
  C   C1447     1.0  0.67475  0.40006  0.17429  1.0000
  C   C1448     1.0  0.68792  0.38721  0.18500  1.0000
  C   C1449     1.0  0.68329  0.36932  0.19542  1.0000
  C   C1450     1.0  0.66523  0.36430  0.19557  1.0000
  C   C1451     1.0  0.65204  0.37715  0.18486  1.0000
  C   C1452     1.0  0.65685  0.39489  0.17408  1.0000
  H   H2450     1.0  0.70178  0.39111  0.18527  1.0000
  H   H2451     1.0  0.69358  0.35954  0.20354  1.0000
  H   H2452     1.0  0.63804  0.37338  0.18493  1.0000
  H   H2453     1.0  0.64656  0.40474  0.16599  1.0000
  H   H2454     1.0  0.55882  0.34296  0.99653  1.0000
  C   C1453     1.0  0.66825  0.27530  0.30408  1.0000
  C   C1454     1.0  0.86540  0.39313  0.29406  1.0000
  C   C1455     1.0  0.87921  0.38272  0.28112  1.0000
  C   C1456     1.0  0.89877  0.38437  0.27934  1.0000
  C   C1457     1.0  0.90463  0.39607  0.29003  1.0000
  H   H2455     1.0  0.57014  0.28953  0.00149  1.0000
  H   H2456     1.0  0.62013  0.42672  0.10112  1.0000
  H   H2457     1.0  0.90958  0.37649  0.26948  1.0000
  H   H2458     1.0  0.60454  0.41320  0.11877  1.0000
  H   H2459     1.0  0.70575  0.36799  0.26908  1.0000
  N   N103      1.0  0.67094  0.30519  0.15347  1.0000
  C   C1458     1.0  0.69269  0.29910  0.15065  1.0000
  C   C1459     1.0  0.66660  0.32603  0.14369  1.0000
  C   C1460     1.0  0.66144  0.29279  0.14453  1.0000
  C   C1461     1.0  0.66314  0.30290  0.17490  1.0000
  C   C1462     1.0  0.70019  0.27757  0.15802  1.0000
  C   C1463     1.0  0.66999  0.34146  0.15454  1.0000
  C   C1464     1.0  0.66899  0.29206  0.12279  1.0000
  C   C1465     1.0  0.64096  0.30875  0.18056  1.0000
  H   H2460     1.0  0.69924  0.30227  0.13505  1.0000
  H   H2461     1.0  0.69939  0.30774  0.15815  1.0000
  H   H2462     1.0  0.65135  0.32991  0.14097  1.0000
  H   H2463     1.0  0.67560  0.32834  0.12901  1.0000
  H   H2464     1.0  0.66262  0.27764  0.15257  1.0000
  H   H2465     1.0  0.64551  0.29802  0.14590  1.0000
  H   H2466     1.0  0.66645  0.28752  0.18178  1.0000
  H   H2467     1.0  0.67059  0.31062  0.18265  1.0000
  H   H2468     1.0  0.69456  0.26740  0.15143  1.0000
  H   H2469     1.0  0.71626  0.27477  0.15396  1.0000
  H   H2470     1.0  0.69700  0.27403  0.17407  1.0000
  H   H2471     1.0  0.66872  0.35588  0.14503  1.0000
  H   H2472     1.0  0.65870  0.34284  0.16756  1.0000
  H   H2473     1.0  0.68454  0.33835  0.15885  1.0000
  H   H2474     1.0  0.68420  0.28446  0.12026  1.0000
  H   H2475     1.0  0.66772  0.30669  0.11379  1.0000
  H   H2476     1.0  0.65998  0.28379  0.11747  1.0000
  H   H2477     1.0  0.63341  0.29624  0.18157  1.0000
  H   H2478     1.0  0.63466  0.32100  0.17032  1.0000
  H   H2479     1.0  0.63773  0.31379  0.19484  1.0000
  H   H2480     1.0  0.57640  0.43736  0.11562  1.0000
  C   C1466     1.0  0.89111  0.40677  0.30265  1.0000
  C   C1467     1.0  0.50401  0.33063  0.00503  1.0000
  H   H2481     1.0  0.74938  0.37103  0.29173  1.0000
  H   H2482     1.0  0.52038  0.36873  0.00958  1.0000
  H   H2483     1.0  0.69747  0.33746  0.99375  1.0000
  H   H2484     1.0  0.54721  0.46293  0.09627  1.0000
  H   H2485     1.0  0.74074  0.44376  0.19166  1.0000
  H   H2486     1.0  0.53498  0.37458  0.98701  1.0000
  C   C1468     1.0  0.75891  0.34611  0.27572  1.0000
  H   H2487     1.0  0.87323  0.26516  0.30693  1.0000
  H   H2488     1.0  0.70889  0.47300  0.16630  1.0000
  S   S417      1.0  0.63290  0.25024  0.17634  1.0000
  H   H2489     1.0  0.73021  0.34500  0.25881  1.0000
  Fe  Fe208     1.0  0.63393  0.47422  0.12388  1.0000
  H   H2490     1.0  0.51066  0.31931  0.03383  1.0000
  H   H2491     1.0  0.73584  0.26040  0.10775  1.0000
  H   H2492     1.0  0.77067  0.31609  0.25298  1.0000
  H   H2493     1.0  0.88840  0.43597  0.27347  1.0000
  C   C1469     1.0  0.67403  0.41363  0.00437  1.0000
  H   H2494     1.0  0.75154  0.39920  0.16058  1.0000
  C   C1470     1.0  0.82070  0.27484  0.28870  1.0000
  C   C1471     1.0  0.88493  0.44255  0.24365  1.0000
  H   H2495     1.0  0.74293  0.37536  0.26746  1.0000
  C   C1472     1.0  0.74397  0.45194  0.17669  1.0000
  H   H2496     1.0  0.67044  0.41470  0.02007  1.0000
  H   H2497     1.0  0.59474  0.44797  0.12129  1.0000
  H   H2498     1.0  0.54048  0.30941  0.99580  1.0000
  H   H2499     1.0  0.66729  0.36177  0.98939  1.0000
  C   C1473     1.0  0.65123  0.24903  0.18982  1.0000
  H   H2500     1.0  0.83261  0.24173  0.27071  1.0000
  C   C1474     1.0  0.68459  0.23792  0.19460  1.0000
  N   N104      1.0  0.73147  0.44789  0.16364  1.0000
  H   H2501     1.0  0.86558  0.26981  0.28404  1.0000
  H   H2502     1.0  0.71615  0.36697  0.29000  1.0000
  H   H2503     1.0  0.50805  0.31658  0.99957  1.0000
  C   C1475     1.0  0.73868  0.45656  0.14302  1.0000
  H   H2504     1.0  0.76717  0.37458  0.27065  1.0000
  H   H2505     1.0  0.89630  0.46519  0.28071  1.0000
  N   N105      1.0  0.86999  0.46390  0.27045  1.0000
  H   H2506     1.0  0.75955  0.44665  0.17156  1.0000
  H   H2507     1.0  0.73006  0.41962  0.18157  1.0000
  H   H2508     1.0  0.75255  0.47440  0.18836  1.0000
  H   H2509     1.0  0.85760  0.47911  0.22666  1.0000
  H   H2510     1.0  0.86196  0.24212  0.23021  1.0000
  H   H2511     1.0  0.83106  0.28428  0.27978  1.0000
  H   H2512     1.0  0.85023  0.39200  0.29562  1.0000
  H   H2513     1.0  0.83562  0.45230  0.31218  1.0000
  H   H2514     1.0  0.85005  0.25689  0.26760  1.0000
  Fe  Fe209     1.0  0.67619  0.47831  0.10923  1.0000
  H   H2515     1.0  0.75480  0.41871  0.14090  1.0000
  H   H2516     1.0  0.70150  0.45363  0.15940  1.0000
  C   C1476     1.0  0.74264  0.47344  0.17847  1.0000
  H   H2517     1.0  0.72357  0.43859  0.13038  1.0000
  H   H2518     1.0  0.68568  0.45820  0.19213  1.0000
  C   C1477     1.0  0.86034  0.46126  0.29153  1.0000
  C   C1478     1.0  0.79883  0.23611  0.06239  1.0000
  H   H2519     1.0  0.86374  0.30451  0.19700  1.0000
  H   H2520     1.0  0.80028  0.24446  0.04734  1.0000
  H   H2521     1.0  0.68840  0.38472  0.01061  1.0000
  C   C1479     1.0  0.69296  0.24080  0.27365  1.0000
  C   C1480     1.0  0.72808  0.45303  0.12740  1.0000
  C   C1481     1.0  0.68190  0.36590  0.98351  1.0000
  H   H2522     1.0  0.71093  0.35655  0.99222  1.0000
  H   H2523     1.0  0.71020  0.32427  0.31125  1.0000
  C   C1482     1.0  0.75214  0.41501  0.15696  1.0000
  H   H2524     1.0  0.87941  0.48264  0.23335  1.0000
  H   H2525     1.0  0.75459  0.45206  0.13873  1.0000
  H   H2526     1.0  0.55788  0.46330  0.06136  1.0000
  C   C1483     1.0  0.73912  0.24695  0.11750  1.0000
  H   H2527     1.0  0.57263  0.44005  0.08259  1.0000
  H   H2528     1.0  0.53200  0.35948  0.03975  1.0000
  H   H2529     1.0  0.71734  0.32877  0.27650  1.0000
  H   H2530     1.0  0.79811  0.29020  0.27231  1.0000
  H   H2531     1.0  0.61915  0.45423  0.08193  1.0000
  H   H2532     1.0  0.87332  0.44690  0.23463  1.0000
  H   H2533     1.0  0.64509  0.23750  0.04595  1.0000
  C   C1484     1.0  0.75706  0.24212  0.12394  1.0000
  H   H2534     1.0  0.69064  0.35266  0.01181  1.0000
  H   H2535     1.0  0.50644  0.34270  0.99280  1.0000
  C   C1485     1.0  0.73269  0.42618  0.16594  1.0000
  C   C1486     1.0  0.87134  0.40523  0.30476  1.0000
  H   H2536     1.0  0.77202  0.34039  0.28264  1.0000
  C   C1487     1.0  0.54274  0.34442  0.99973  1.0000
  N   N106      1.0  0.53651  0.32920  0.01653  1.0000
  H   H2537     1.0  0.54533  0.37151  0.00866  1.0000
  C   C1488     1.0  0.71075  0.35805  0.28188  1.0000
  S   S418      1.0  0.65864  0.47485  0.13908  1.0000
  H   H2538     1.0  0.54627  0.31536  0.04368  1.0000
  H   H2539     1.0  0.57710  0.47945  0.11188  1.0000
  H   H2540     1.0  0.56050  0.33262  0.02944  1.0000
  C   C1489     1.0  0.66970  0.23876  0.18423  1.0000
  H   H2541     1.0  0.89706  0.45075  0.23761  1.0000
  H   H2542     1.0  0.85470  0.28562  0.30137  1.0000
  Fe  Fe210     1.0  0.83729  0.24296  0.14306  1.0000
  N   N107      1.0  0.79067  0.30305  0.15146  1.0000
  C   C1490     1.0  0.80995  0.31014  0.14795  1.0000
  C   C1491     1.0  0.79061  0.29328  0.13451  1.0000
  C   C1492     1.0  0.78983  0.28829  0.16984  1.0000
  C   C1493     1.0  0.77467  0.32025  0.15346  1.0000
  C   C1494     1.0  0.81425  0.31910  0.16438  1.0000
  C   C1495     1.0  0.79173  0.30645  0.11450  1.0000
  C   C1496     1.0  0.77250  0.27711  0.17529  1.0000
  C   C1497     1.0  0.75399  0.31780  0.15164  1.0000
  H   H2543     1.0  0.82220  0.29814  0.14497  1.0000
  H   H2544     1.0  0.81123  0.32152  0.13483  1.0000
  H   H2545     1.0  0.77765  0.28636  0.13634  1.0000
  H   H2546     1.0  0.80298  0.28102  0.13344  1.0000
  H   H2547     1.0  0.80324  0.27721  0.16905  1.0000
  H   H2548     1.0  0.78947  0.29521  0.18261  1.0000
  H   H2549     1.0  0.77351  0.32500  0.16767  1.0000
  H   H2550     1.0  0.77840  0.33306  0.14254  1.0000
  H   H2551     1.0  0.80303  0.33157  0.16811  1.0000
  H   H2552     1.0  0.81615  0.30818  0.17756  1.0000
  H   H2553     1.0  0.82826  0.32465  0.15947  1.0000
  H   H2554     1.0  0.80632  0.31062  0.10930  1.0000
  H   H2555     1.0  0.78928  0.29820  0.10372  1.0000
  H   H2556     1.0  0.78043  0.31958  0.11448  1.0000
  H   H2557     1.0  0.77168  0.26845  0.16426  1.0000
  H   H2558     1.0  0.75854  0.28675  0.17873  1.0000
  H   H2559     1.0  0.77430  0.26661  0.18883  1.0000
  H   H2560     1.0  0.74382  0.32045  0.16524  1.0000
  H   H2561     1.0  0.75250  0.30348  0.14896  1.0000
  H   H2562     1.0  0.74863  0.32887  0.13974  1.0000
  S   S419      1.0  0.85124  0.26461  0.15329  1.0000
  H   H2563     1.0  0.53673  0.29807  0.02049  1.0000
  H   H2564     1.0  0.70005  0.43473  0.19298  1.0000
  H   H2565     1.0  0.50809  0.34472  0.02742  1.0000
  C   C1498     1.0  0.67662  0.39212  0.00229  1.0000
  H   H2566     1.0  0.86503  0.43498  0.26909  1.0000
  H   H2567     1.0  0.76135  0.29395  0.26027  1.0000
  H   H2568     1.0  0.76457  0.41741  0.16288  1.0000
  C   C1499     1.0  0.84465  0.25743  0.30892  1.0000
  H   H2569     1.0  0.52079  0.34013  0.05572  1.0000
  C   C1500     1.0  0.55217  0.46973  0.10670  1.0000
  H   H2570     1.0  0.61106  0.47132  0.09806  1.0000
  H   H2571     1.0  0.73800  0.45364  0.11322  1.0000
  H   H2572     1.0  0.76424  0.30764  0.28909  1.0000
  H   H2573     1.0  0.66180  0.42268  0.99767  1.0000
  N   N108      1.0  0.58806  0.45869  0.09223  1.0000
  C   C1501     1.0  0.70089  0.45046  0.19002  1.0000
  H   H2574     1.0  0.81216  0.26994  0.26215  1.0000
  C   C1502     1.0  0.60496  0.42407  0.10523  1.0000
  H   H2575     1.0  0.76354  0.34537  0.26004  1.0000
  H   H2576     1.0  0.54390  0.34439  0.05835  1.0000
  C   C1503     1.0  0.87680  0.44388  0.26513  1.0000
  C   C1504     1.0  0.75389  0.36795  0.27671  1.0000
  C   C1505     1.0  0.71058  0.45691  0.16898  1.0000
  H   H2577     1.0  0.86736  0.29311  0.16552  1.0000
  C   C1506     1.0  0.54529  0.32976  0.03402  1.0000
  H   H2578     1.0  0.85749  0.47506  0.29734  1.0000
  C   C1507     1.0  0.75141  0.31333  0.28163  1.0000
  H   H2579     1.0  0.84119  0.43976  0.29203  1.0000
  H   H2580     1.0  0.71221  0.23739  0.11752  1.0000
  C   C1508     1.0  0.57280  0.47473  0.09956  1.0000
  C   C1509     1.0  0.59039  0.44257  0.10935  1.0000
  H   H2581     1.0  0.66141  0.28520  0.29288  1.0000
  H   H2582     1.0  0.86886  0.24168  0.20461  1.0000
  H   H2583     1.0  0.91988  0.39707  0.28819  1.0000
  N   N109      1.0  0.83134  0.25509  0.29586  1.0000
  H   H2584     1.0  0.89085  0.42708  0.24250  1.0000
  H   H2585     1.0  0.82917  0.46483  0.28962  1.0000
  S   S420      1.0  0.83226  0.24701  0.11204  1.0000
  H   H2586     1.0  0.58075  0.46226  0.04586  1.0000
  C   C1510     1.0  0.60717  0.46605  0.08585  1.0000
  H   H2587     1.0  0.70673  0.24574  0.26592  1.0000
  S   S421      1.0  0.66156  0.24966  0.07805  1.0000
  H   H2588     1.0  0.57474  0.31344  0.00065  1.0000
  C   C1511     1.0  0.57313  0.46531  0.06042  1.0000
  C   C1512     1.0  0.58278  0.45063  0.07626  1.0000
  H   H2589     1.0  0.70823  0.45411  0.20083  1.0000
  C   C1513     1.0  0.85549  0.47595  0.25829  1.0000
  H   H2590     1.0  0.84455  0.46710  0.25726  1.0000
  H   H2591     1.0  0.69752  0.35278  0.29072  1.0000
  H   H2592     1.0  0.57027  0.29769  0.02359  1.0000
  S   S422      1.0  0.61342  0.32458  0.98900  1.0000
  H   H2593     1.0  0.82421  0.24441  0.06931  1.0000
  S   S423      1.0  0.67191  0.24176  0.13066  1.0000
  S   S424      1.0  0.65097  0.47953  0.09368  1.0000
  H   H2594     1.0  0.86071  0.41328  0.31458  1.0000
  H   H2595     1.0  0.53897  0.34219  0.98602  1.0000
  S   S425      1.0  0.79666  0.32208  0.31098  1.0000
  C   C1514     1.0  0.69617  0.35267  0.99610  1.0000
  Fe  Fe211     1.0  0.63933  0.33945  0.98506  1.0000
  H   H2596     1.0  0.60738  0.47741  0.05472  1.0000
  H   H2597     1.0  0.76221  0.25803  0.05789  1.0000
  C   C1515     1.0  0.60853  0.48242  0.06816  1.0000
  H   H2598     1.0  0.73385  0.34867  0.30985  1.0000
  H   H2599     1.0  0.74749  0.48237  0.16439  1.0000
  S   S426      1.0  0.90035  0.42227  0.31422  1.0000
  H   H2600     1.0  0.79045  0.24656  0.07200  1.0000
  H   H2601     1.0  0.88713  0.23687  0.21909  1.0000
  H   H2602     1.0  0.74183  0.24572  0.06137  1.0000
  C   C1516     1.0  0.75679  0.24420  0.06448  1.0000
  S   S427      1.0  0.80688  0.23857  0.15574  1.0000
  H   H2603     1.0  0.75234  0.32865  0.31266  1.0000
  H   H2604     1.0  0.83420  0.32877  0.31404  1.0000
  H   H2605     1.0  0.75594  0.24220  0.08039  1.0000
  H   H2606     1.0  0.54184  0.48336  0.10868  1.0000
  C   C1517     1.0  0.86344  0.48497  0.23727  1.0000
  H   H2607     1.0  0.59318  0.23854  0.09371  1.0000
  H   H2608     1.0  0.72790  0.47994  0.18488  1.0000
  H   H2609     1.0  0.61878  0.23632  0.06735  1.0000
  H   H2610     1.0  0.64363  0.26047  0.31495  1.0000
  Fe  Fe212     1.0  0.88913  0.44588  0.33317  1.0000
  S   S428      1.0  0.85826  0.45232  0.34734  1.0000
  Fe  Fe213     1.0  0.86082  0.48396  0.33831  1.0000
  H   H2611     1.0  0.77049  0.25124  0.55814  1.0000
  H   H2612     1.0  0.84953  0.25166  0.58002  1.0000
  Fe  Fe214     1.0  0.87129  0.45381  0.37333  1.0000
  S   S429      1.0  0.85765  0.43670  0.40149  1.0000
  C   C1518     1.0  0.69548  0.26417  0.32126  1.0000
  C   C1519     1.0  0.68566  0.24978  0.33340  1.0000
  S   S430      1.0  0.90241  0.44620  0.35935  1.0000
  C   C1520     1.0  0.98467  0.27748  0.53351  1.0000
  S   S431      1.0  0.75031  0.24715  0.60367  1.0000
  H   H2613     1.0  0.92175  0.35979  0.37069  1.0000
  H   H2614     1.0  0.77009  0.27589  0.55962  1.0000
  H   H2615     1.0  0.88486  0.40085  0.35444  1.0000
  C   C1521     1.0  0.88822  0.36414  0.34317  1.0000
  S   S432      1.0  0.86025  0.27181  0.35645  1.0000
  Fe  Fe215     1.0  0.86762  0.31668  0.50191  1.0000
  S   S433      1.0  0.89052  0.29012  0.50363  1.0000
  S   S434      1.0  0.83661  0.31467  0.51659  1.0000
  Fe  Fe216     1.0  0.89523  0.34189  0.47430  1.0000
  S   S435      1.0  0.91999  0.31683  0.47453  1.0000
  S   S436      1.0  0.90441  0.36975  0.45612  1.0000
  Fe  Fe217     1.0  0.89829  0.29887  0.47120  1.0000
  S   S437      1.0  0.90399  0.28274  0.44522  1.0000
  Fe  Fe218     1.0  0.90989  0.31075  0.50681  1.0000
  S   S438      1.0  0.92784  0.30354  0.53155  1.0000
  S   S439      1.0  0.87423  0.32445  0.46931  1.0000
  S   S440      1.0  0.88624  0.33675  0.50685  1.0000
  Fe  Fe219     1.0  0.76587  0.25523  0.62453  1.0000
  S   S441      1.0  0.76155  0.28716  0.62562  1.0000
  C   C1522     1.0  0.91350  0.37479  0.37069  1.0000
  H   H2616     1.0  0.84654  0.31596  0.44684  1.0000
  H   H2617     1.0  0.94874  0.37101  0.49489  1.0000
  H   H2618     1.0  0.79324  0.23872  0.33113  1.0000
  H   H2619     1.0  0.81102  0.26979  0.41284  1.0000
  H   H2620     1.0  0.91289  0.27063  0.62318  1.0000
  Fe  Fe220     1.0  0.79387  0.28185  0.62452  1.0000
  S   S442      1.0  0.81669  0.30023  0.60884  1.0000
  H   H2621     1.0  0.60988  0.26119  0.41290  1.0000
  H   H2622     1.0  0.83619  0.26420  0.32135  1.0000
  H   H2623     1.0  0.94048  0.29715  0.62788  1.0000
  H   H2624     1.0  0.90292  0.35829  0.33596  1.0000
  H   H2625     1.0  0.79181  0.26273  0.31769  1.0000
  C   C1523     1.0  0.83126  0.31100  0.54224  1.0000
  C   C1524     1.0  0.81230  0.30883  0.55156  1.0000
  C   C1525     1.0  0.80771  0.30537  0.57197  1.0000
  C   C1526     1.0  0.82199  0.30437  0.58320  1.0000
  C   C1527     1.0  0.84087  0.30688  0.57389  1.0000
  C   C1528     1.0  0.84556  0.30997  0.55348  1.0000
  H   H2626     1.0  0.80113  0.30978  0.54296  1.0000
  H   H2627     1.0  0.79306  0.30372  0.57901  1.0000
  H   H2628     1.0  0.85197  0.30620  0.58249  1.0000
  H   H2629     1.0  0.86021  0.31163  0.54647  1.0000
  C   C1529     1.0  0.89643  0.26163  0.44125  1.0000
  C   C1530     1.0  0.88801  0.24841  0.45631  1.0000
  H   H2630     1.0  0.90543  0.26826  0.41030  1.0000
  H   H2631     1.0  0.94921  0.39150  0.50620  1.0000
  C   C1531     1.0  0.96531  0.34065  0.55001  1.0000
  H   H2632     1.0  0.93715  0.30545  0.56852  1.0000
  C   C1532     1.0  0.94416  0.31610  0.55789  1.0000
  C   C1533     1.0  0.94150  0.31874  0.53842  1.0000
  C   C1534     1.0  0.95087  0.33237  0.52478  1.0000
  C   C1535     1.0  0.96269  0.34323  0.53056  1.0000
  C   C1536     1.0  0.92632  0.32717  0.62516  1.0000
  H   H2633     1.0  0.64143  0.25700  0.39667  1.0000
  H   H2634     1.0  0.94937  0.33420  0.50968  1.0000
  Fe  Fe221     1.0  0.98175  0.34828  0.62890  1.0000
  C   C1537     1.0  0.65818  0.26134  0.31665  1.0000
  H   H2635     1.0  0.89591  0.34547  0.36862  1.0000
  C   C1538     1.0  0.84111  0.28789  0.34735  1.0000
  S   S443      1.0  0.98432  0.32610  0.60966  1.0000
  C   C1539     1.0  0.90759  0.28629  0.61884  1.0000
  H   H2636     1.0  0.62537  0.25443  0.37277  1.0000
  H   H2637     1.0  0.79107  0.25509  0.58154  1.0000
  H   H2638     1.0  0.70983  0.26538  0.32325  1.0000
  C   C1540     1.0  0.61218  0.24671  0.42221  1.0000
  C   C1541     1.0  0.81259  0.31062  0.32704  1.0000
  C   C1542     1.0  0.66685  0.24853  0.33132  1.0000
  H   H2639     1.0  0.85233  0.41184  0.36847  1.0000
  C   C1543     1.0  0.83084  0.31611  0.32443  1.0000
  H   H2640     1.0  0.71932  0.32482  0.33272  1.0000
  C   C1544     1.0  0.85861  0.39673  0.37413  1.0000
  C   C1545     1.0  0.89105  0.38798  0.44095  1.0000
  C   C1546     1.0  0.90094  0.40150  0.42749  1.0000
  C   C1547     1.0  0.89097  0.41631  0.41511  1.0000
  C   C1548     1.0  0.87088  0.41801  0.41642  1.0000
  C   C1549     1.0  0.86094  0.40461  0.43003  1.0000
  C   C1550     1.0  0.87099  0.38953  0.44214  1.0000
  H   H2641     1.0  0.91645  0.40046  0.42654  1.0000
  H   H2642     1.0  0.89877  0.42660  0.40481  1.0000
  H   H2643     1.0  0.84538  0.40589  0.43121  1.0000
  H   H2644     1.0  0.86319  0.37930  0.45254  1.0000
  C   C1551     1.0  0.88093  0.39473  0.36997  1.0000
  H   H2645     1.0  0.89614  0.33668  0.40039  1.0000
  S   S444      1.0  0.79837  0.25052  0.62127  1.0000
  C   C1552     1.0  0.88656  0.35979  0.36545  1.0000
  C   C1553     1.0  0.79700  0.25756  0.56573  1.0000
  H   H2646     1.0  0.85282  0.26259  0.41669  1.0000
  H   H2647     1.0  0.93749  0.38427  0.34912  1.0000
  H   H2648     1.0  0.97877  0.28406  0.51995  1.0000
  C   C1554     1.0  0.89877  0.25828  0.42205  1.0000
  C   C1555     1.0  0.83586  0.25599  0.57389  1.0000
  C   C1556     1.0  0.82238  0.28322  0.35122  1.0000
  H   H2649     1.0  0.82638  0.30815  0.39542  1.0000
  H   H2650     1.0  0.62537  0.26287  0.43804  1.0000
  H   H2651     1.0  0.88830  0.38008  0.40453  1.0000
  H   H2652     1.0  0.85225  0.31817  0.40840  1.0000
  H   H2653     1.0  0.87361  0.27959  0.39505  1.0000
  H   H2654     1.0  0.72952  0.30569  0.31918  1.0000
  H   H2655     1.0  0.86643  0.30020  0.42321  1.0000
  H   H2656     1.0  0.81651  0.26572  0.44284  1.0000
  H   H2657     1.0  0.85176  0.24321  0.31606  1.0000
  C   C1557     1.0  0.80204  0.25009  0.32347  1.0000
  H   H2658     1.0  0.80291  0.28857  0.39459  1.0000
  C   C1558     1.0  0.93076  0.30694  0.63745  1.0000
  H   H2659     1.0  0.69253  0.23993  0.34460  1.0000
  H   H2660     1.0  0.82082  0.31812  0.42803  1.0000
  H   H2661     1.0  0.87166  0.35665  0.37168  1.0000
  H   H2662     1.0  0.88463  0.37966  0.33730  1.0000
  H   H2663     1.0  0.79856  0.29340  0.41876  1.0000
  H   H2664     1.0  0.79385  0.29052  0.34318  1.0000
  C   C1559     1.0  0.84508  0.30479  0.33465  1.0000
  C   C1560     1.0  0.95587  0.32706  0.56370  1.0000
  H   H2665     1.0  0.82504  0.31125  0.46337  1.0000
  H   H2666     1.0  0.89264  0.34693  0.42197  1.0000
  H   H2667     1.0  0.81346  0.29667  0.44181  1.0000
  H   H2668     1.0  0.83897  0.26600  0.56013  1.0000
  N   N110      1.0  0.89189  0.37454  0.37519  1.0000
  H   H2669     1.0  0.83470  0.24485  0.44108  1.0000
  C   C1561     1.0  0.89808  0.34945  0.40608  1.0000
  H   H2670     1.0  0.91702  0.40291  0.35205  1.0000
  C   C1562     1.0  0.88649  0.36857  0.39687  1.0000
  H   H2671     1.0  0.85876  0.27093  0.43615  1.0000
  C   C1563     1.0  0.61700  0.25068  0.44110  1.0000
  H   H2672     1.0  0.85326  0.38700  0.36675  1.0000
  H   H2673     1.0  0.91817  0.38052  0.38224  1.0000
  H   H2674     1.0  0.60324  0.25468  0.45100  1.0000
  H   H2675     1.0  0.84333  0.25911  0.52916  1.0000
  H   H2676     1.0  0.87746  0.35721  0.33874  1.0000
  H   H2677     1.0  0.92192  0.38731  0.47929  1.0000
  C   C1564     1.0  0.92137  0.38716  0.35146  1.0000
  Fe  Fe222     1.0  0.85300  0.24214  0.36818  1.0000
  C   C1565     1.0  0.80805  0.29466  0.34103  1.0000
  H   H2678     1.0  0.88412  0.30109  0.39163  1.0000
  C   C1566     1.0  0.83628  0.30541  0.45181  1.0000
  N   N111      1.0  0.90850  0.39053  0.50887  1.0000
  C   C1567     1.0  0.88980  0.39065  0.50183  1.0000
  C   C1568     1.0  0.91392  0.37062  0.52026  1.0000
  C   C1569     1.0  0.92391  0.39436  0.49125  1.0000
  C   C1570     1.0  0.90496  0.40630  0.52111  1.0000
  C   C1571     1.0  0.88305  0.40865  0.48722  1.0000
  C   C1572     1.0  0.89962  0.36479  0.53886  1.0000
  C   C1573     1.0  0.94529  0.38706  0.49368  1.0000
  C   C1574     1.0  0.92150  0.40763  0.53161  1.0000
  H   H2679     1.0  0.89099  0.37778  0.49472  1.0000
  H   H2680     1.0  0.87751  0.38950  0.51413  1.0000
  H   H2681     1.0  0.92812  0.36890  0.52495  1.0000
  H   H2682     1.0  0.91587  0.35935  0.51086  1.0000
  H   H2683     1.0  0.81923  0.27027  0.36128  1.0000
  H   H2684     1.0  0.92254  0.41016  0.48533  1.0000
  H   H2685     1.0  0.90191  0.42080  0.51205  1.0000
  H   H2686     1.0  0.89146  0.40562  0.53208  1.0000
  H   H2687     1.0  0.87981  0.42219  0.49353  1.0000
  H   H2688     1.0  0.89362  0.41035  0.47351  1.0000
  H   H2689     1.0  0.86939  0.40670  0.48309  1.0000
  H   H2690     1.0  0.89794  0.37472  0.54948  1.0000
  H   H2691     1.0  0.88524  0.36376  0.53579  1.0000
  H   H2692     1.0  0.90553  0.35006  0.54598  1.0000
  H   H2693     1.0  0.67217  0.24749  0.40714  1.0000
  H   H2694     1.0  0.91920  0.29336  0.60889  1.0000
  H   H2695     1.0  0.95484  0.39307  0.48046  1.0000
  H   H2696     1.0  0.93188  0.41661  0.52202  1.0000
  H   H2697     1.0  0.92950  0.39342  0.53735  1.0000
  H   H2698     1.0  0.91520  0.41450  0.54468  1.0000
  H   H2699     1.0  0.87094  0.36691  0.40104  1.0000
  S   S445      1.0  0.89114  0.47731  0.32225  1.0000
  H   H2700     1.0  0.86353  0.30168  0.38061  1.0000
  C   C1575     1.0  0.70150  0.25070  0.63038  1.0000
  C   C1576     1.0  0.83199  0.26021  0.44340  1.0000
  H   H2701     1.0  0.88502  0.40498  0.37786  1.0000
  H   H2702     1.0  0.91328  0.32928  0.61834  1.0000
  H   H2703     1.0  0.83800  0.28416  0.39248  1.0000
  H   H2704     1.0  0.95781  0.32483  0.57869  1.0000
  H   H2705     1.0  0.91691  0.38389  0.33864  1.0000
  H   H2706     1.0  0.97017  0.35345  0.51982  1.0000
  N   N112      1.0  0.83943  0.29207  0.42000  1.0000
  C   C1577     1.0  0.85687  0.30219  0.41208  1.0000
  C   C1578     1.0  0.82655  0.30322  0.43501  1.0000
  C   C1579     1.0  0.82894  0.29296  0.40331  1.0000
  C   C1580     1.0  0.84659  0.27134  0.42842  1.0000
  C   C1581     1.0  0.87015  0.29559  0.39382  1.0000
  H   H2707     1.0  0.65499  0.24427  0.42897  1.0000
  C   C1582     1.0  0.80927  0.28572  0.40812  1.0000
  H   H2708     1.0  0.92973  0.26892  0.64661  1.0000
  H   H2709     1.0  0.89429  0.24002  0.40293  1.0000
  S   S446      1.0  0.98121  0.35404  0.55616  1.0000
  H   H2710     1.0  0.91375  0.35017  0.40444  1.0000
  H   H2711     1.0  0.81999  0.27406  0.53458  1.0000
  C   C1583     1.0  0.61279  0.24701  0.37957  1.0000
  H   H2712     1.0  0.82526  0.26393  0.58445  1.0000
  H   H2713     1.0  0.80790  0.24055  0.53091  1.0000
  H   H2714     1.0  0.85952  0.30851  0.33180  1.0000
  H   H2715     1.0  0.84401  0.29141  0.45853  1.0000
  H   H2716     1.0  0.69084  0.26436  0.62914  1.0000
  C   C1584     1.0  0.89244  0.24225  0.41782  1.0000
  C   C1585     1.0  0.81926  0.24229  0.53887  1.0000
  C   C1586     1.0  0.89924  0.29660  0.63655  1.0000
  C   C1587     1.0  0.82757  0.26085  0.52871  1.0000
  H   H2717     1.0  0.82559  0.26396  0.51326  1.0000
  H   H2718     1.0  0.89579  0.28720  0.61041  1.0000
  H   H2719     1.0  0.92502  0.33879  0.63393  1.0000
  H   H2720     1.0  0.93843  0.32909  0.61282  1.0000
  H   H2721     1.0  0.85290  0.39441  0.38993  1.0000
  H   H2722     1.0  0.88621  0.25071  0.47117  1.0000
  H   H2723     1.0  0.83472  0.25954  0.45836  1.0000
  C   C1588     1.0  0.82870  0.23764  0.57148  1.0000
  H   H2724     1.0  0.80333  0.27095  0.56339  1.0000
  H   H2725     1.0  0.70552  0.24657  0.61571  1.0000
  Fe  Fe223     1.0  0.90124  0.47874  0.34990  1.0000
  S   S447      1.0  0.98758  0.37275  0.60422  1.0000
  H   H2726     1.0  0.80862  0.25417  0.33459  1.0000
  H   H2727     1.0  0.71433  0.25425  0.63474  1.0000
  H   H2728     1.0  0.60055  0.25753  0.38563  1.0000
  H   H2729     1.0  0.78420  0.26645  0.53886  1.0000
  N   N113      1.0  0.81201  0.24047  0.56042  1.0000
  H   H2730     1.0  0.89167  0.31107  0.63078  1.0000
  H   H2731     1.0  0.98548  0.26627  0.60373  1.0000
  H   H2732     1.0  0.97193  0.27449  0.54479  1.0000
  H   H2733     1.0  0.97706  0.28542  0.57307  1.0000
  C   C1589     1.0  0.72357  0.32142  0.31774  1.0000
  C   C1590     1.0  0.77960  0.26279  0.55476  1.0000
  H   H2734     1.0  0.83022  0.25306  0.64533  1.0000
  H   H2735     1.0  0.88738  0.28896  0.64547  1.0000
  H   H2736     1.0  0.98471  0.30523  0.54078  1.0000
  C   C1591     1.0  0.64504  0.24120  0.40221  1.0000
  H   H2737     1.0  0.89337  0.33726  0.64837  1.0000
  H   H2738     1.0  0.59750  0.24241  0.42554  1.0000
  H   H2739     1.0  0.94038  0.30880  0.64726  1.0000
  C   C1592     1.0  0.66067  0.23895  0.41506  1.0000
  H   H2740     1.0  0.60802  0.24213  0.36764  1.0000
  S   S448      1.0  0.83915  0.23609  0.39910  1.0000
  H   H2741     1.0  0.62484  0.23792  0.44954  1.0000
  Fe  Fe224     1.0  0.87667  0.25641  0.74945  1.0000
  S   S449      1.0  0.88344  0.28047  0.76175  1.0000
  Fe  Fe225     1.0  0.86908  0.28202  0.71190  1.0000
  S   S450      1.0  0.87478  0.30861  0.72077  1.0000
  S   S451      1.0  0.86157  0.28435  0.68245  1.0000
  Fe  Fe226     1.0  0.90015  0.28880  0.73191  1.0000
  S   S452      1.0  0.93047  0.29572  0.72679  1.0000
  Fe  Fe227     1.0  0.85756  0.29798  0.74962  1.0000
  S   S453      1.0  0.83404  0.31825  0.76510  1.0000
  S   S454      1.0  0.89583  0.26298  0.72068  1.0000
  S   S455      1.0  0.84947  0.27330  0.73957  1.0000
  H   H2742     1.0  0.72612  0.25694  0.83999  1.0000
  Fe  Fe228     1.0  0.74111  0.26691  0.88179  1.0000
  S   S456      1.0  0.75176  0.29110  0.89042  1.0000
  H   H2743     1.0  0.53029  0.37209  0.82766  1.0000
  Fe  Fe229     1.0  0.74064  0.28793  0.84048  1.0000
  S   S457      1.0  0.75030  0.31398  0.84598  1.0000
  S   S458      1.0  0.73685  0.28816  0.81009  1.0000
  Fe  Fe230     1.0  0.77157  0.29190  0.86142  1.0000
  S   S459      1.0  0.80401  0.29069  0.85433  1.0000
  Fe  Fe231     1.0  0.72933  0.31049  0.87412  1.0000
  S   S460      1.0  0.70586  0.33471  0.88388  1.0000
  S   S461      1.0  0.76280  0.26587  0.85443  1.0000
  S   S462      1.0  0.71767  0.28614  0.86703  1.0000
  H   H2744     1.0  0.65550  0.30798  0.88157  1.0000
  H   H2745     1.0  0.66854  0.26981  0.85260  1.0000
  H   H2746     1.0  0.80549  0.33292  0.69354  1.0000
  C   C1593     1.0  0.83600  0.23635  0.69230  1.0000
  S   S463      1.0  0.65795  0.27346  0.77511  1.0000
  H   H2747     1.0  0.50915  0.33644  0.83908  1.0000
  C   C1594     1.0  0.66443  0.39736  0.97137  1.0000
  S   S464      1.0  0.61738  0.26558  0.76429  1.0000
  H   H2748     1.0  0.54031  0.36336  0.79638  1.0000
  Fe  Fe232     1.0  0.64969  0.25732  0.75463  1.0000
  C   C1595     1.0  0.52292  0.24410  0.83274  1.0000
  Fe  Fe233     1.0  0.62592  0.27907  0.78677  1.0000
  S   S465      1.0  0.61084  0.30592  0.79938  1.0000
  H   H2749     1.0  0.68455  0.33671  0.80080  1.0000
  H   H2750     1.0  0.53239  0.38096  0.77685  1.0000
  H   H2751     1.0  0.77675  0.27451  0.78956  1.0000
  H   H2752     1.0  0.70033  0.27011  0.90601  1.0000
  S   S466      1.0  0.52513  0.30647  0.93559  1.0000
  Fe  Fe234     1.0  0.50929  0.30642  0.86952  1.0000
  S   S467      1.0  0.52608  0.29445  0.84283  1.0000
  S   S468      1.0  0.50588  0.28597  0.89770  1.0000
  C   C1596     1.0  0.58752  0.30261  0.81213  1.0000
  C   C1597     1.0  0.57815  0.31367  0.82664  1.0000
  C   C1598     1.0  0.55950  0.31091  0.83676  1.0000
  C   C1599     1.0  0.55000  0.29752  0.83193  1.0000
  C   C1600     1.0  0.55939  0.28660  0.81740  1.0000
  C   C1601     1.0  0.57816  0.28891  0.80775  1.0000
  H   H2753     1.0  0.58540  0.32419  0.83018  1.0000
  H   H2754     1.0  0.55246  0.31918  0.84815  1.0000
  H   H2755     1.0  0.55214  0.27630  0.81348  1.0000
  H   H2756     1.0  0.58524  0.28033  0.79660  1.0000
  H   H2757     1.0  0.51057  0.33493  0.79653  1.0000
  C   C1602     1.0  0.68525  0.26442  0.71293  1.0000
  Fe  Fe235     1.0  0.59736  0.35432  0.97956  1.0000
  S   S469      1.0  0.95398  0.35419  0.65010  1.0000
  H   H2758     1.0  0.52864  0.35650  0.77904  1.0000
  S   S470      1.0  0.73515  0.24215  0.90587  1.0000
  H   H2759     1.0  0.69900  0.31326  0.80244  1.0000
  C   C1603     1.0  0.54011  0.32177  0.94036  1.0000
  H   H2760     1.0  0.71174  0.33508  0.81718  1.0000
  C   C1604     1.0  0.71862  0.28052  0.69393  1.0000
  C   C1605     1.0  0.54912  0.35348  0.93862  1.0000
  C   C1606     1.0  0.53781  0.34174  0.93336  1.0000
  H   H2761     1.0  0.54689  0.36896  0.93344  1.0000
  H   H2762     1.0  0.52702  0.34820  0.92420  1.0000
  C   C1607     1.0  0.72333  0.27019  0.81055  1.0000
  C   C1608     1.0  0.71500  0.27005  0.79443  1.0000
  C   C1609     1.0  0.70189  0.25738  0.79575  1.0000
  S   S471      1.0  0.79062  0.27524  0.65694  1.0000
  H   H2763     1.0  0.80091  0.28040  0.78003  1.0000
  C   C1610     1.0  0.71945  0.25702  0.82762  1.0000
  H   H2764     1.0  0.71818  0.28011  0.78116  1.0000
  H   H2765     1.0  0.69537  0.25730  0.78334  1.0000
  C   C1611     1.0  0.90304  0.34972  0.79685  1.0000
  H   H2766     1.0  0.84886  0.27723  0.64948  1.0000
  C   C1612     1.0  0.69620  0.33298  0.90885  1.0000
  C   C1613     1.0  0.70684  0.32183  0.92284  1.0000
  C   C1614     1.0  0.69855  0.31992  0.94259  1.0000
  C   C1615     1.0  0.67954  0.32898  0.94851  1.0000
  C   C1616     1.0  0.66897  0.34043  0.93458  1.0000
  C   C1617     1.0  0.67735  0.34253  0.91480  1.0000
  H   H2767     1.0  0.72143  0.31459  0.91843  1.0000
  H   H2768     1.0  0.70685  0.31115  0.95331  1.0000
  H   H2769     1.0  0.65428  0.34747  0.93900  1.0000
  H   H2770     1.0  0.66909  0.35127  0.90404  1.0000
  C   C1618     1.0  0.85102  0.26512  0.67932  1.0000
  Fe  Fe236     1.0  0.79300  0.24429  0.65378  1.0000
  S   S472      1.0  0.62667  0.25220  0.80906  1.0000
  S   S473      1.0  0.62397  0.36884  0.97358  1.0000
  H   H2771     1.0  0.88527  0.37238  0.74215  1.0000
  C   C1619     1.0  0.56308  0.34545  0.95072  1.0000
  H   H2772     1.0  0.52305  0.25990  0.83098  1.0000
  C   C1620     1.0  0.65799  0.27616  0.95798  1.0000
  H   H2773     1.0  0.94795  0.28137  0.66707  1.0000
  C   C1621     1.0  0.82545  0.30972  0.78963  1.0000
  C   C1622     1.0  0.80872  0.32011  0.79918  1.0000
  C   C1623     1.0  0.80193  0.31410  0.81893  1.0000
  C   C1624     1.0  0.81206  0.29790  0.82938  1.0000
  C   C1625     1.0  0.82890  0.28757  0.81986  1.0000
  C   C1626     1.0  0.83542  0.29327  0.79994  1.0000
  H   H2774     1.0  0.80099  0.33288  0.79133  1.0000
  H   H2775     1.0  0.78911  0.32234  0.82621  1.0000
  H   H2776     1.0  0.83682  0.27505  0.82788  1.0000
  H   H2777     1.0  0.84833  0.28514  0.79271  1.0000
  C   C1627     1.0  0.94800  0.33770  0.67137  1.0000
  C   C1628     1.0  0.92950  0.34123  0.68256  1.0000
  C   C1629     1.0  0.92394  0.32821  0.69939  1.0000
  C   C1630     1.0  0.93704  0.31182  0.70538  1.0000
  C   C1631     1.0  0.95569  0.30845  0.69440  1.0000
  H   H2778     1.0  0.77798  0.24763  0.77764  1.0000
  H   H2779     1.0  0.91935  0.35397  0.67804  1.0000
  H   H2780     1.0  0.90955  0.33086  0.70770  1.0000
  C   C1632     1.0  0.51549  0.34738  0.82741  1.0000
  H   H2781     1.0  0.91466  0.31364  0.67161  1.0000
  H   H2782     1.0  0.71330  0.29622  0.71794  1.0000
  H   H2783     1.0  0.67009  0.26432  0.96095  1.0000
  C   C1633     1.0  0.80037  0.25509  0.80353  1.0000
  C   C1634     1.0  0.68813  0.32316  0.81112  1.0000
  H   H2784     1.0  0.81482  0.25718  0.80566  1.0000
  H   H2785     1.0  0.52822  0.33891  0.81923  1.0000
  C   C1635     1.0  0.81496  0.31665  0.66993  1.0000
  H   H2786     1.0  0.92682  0.28209  0.68605  1.0000
  H   H2787     1.0  0.87482  0.32224  0.65864  1.0000
  C   C1636     1.0  0.66607  0.39275  0.95077  1.0000
  H   H2788     1.0  0.62369  0.33698  0.83586  1.0000
  S   S474      1.0  0.73904  0.29134  0.68196  1.0000
  H   H2789     1.0  0.64485  0.33410  0.79297  1.0000
  C   C1637     1.0  0.93438  0.27537  0.67323  1.0000
  C   C1638     1.0  0.79107  0.27483  0.79319  1.0000
  C   C1639     1.0  0.90489  0.32541  0.76348  1.0000
  C   C1640     1.0  0.88323  0.35830  0.73908  1.0000
  N   N114      1.0  0.88687  0.33758  0.77281  1.0000
  H   H2790     1.0  0.79192  0.25252  0.81845  1.0000
  H   H2791     1.0  0.64780  0.28603  0.84534  1.0000
  H   H2792     1.0  0.91898  0.34709  0.79181  1.0000
  C   C1641     1.0  0.92116  0.27739  0.65791  1.0000
  H   H2793     1.0  0.51128  0.25931  0.86541  1.0000
  H   H2794     1.0  0.86052  0.35474  0.76339  1.0000
  Fe  Fe237     1.0  0.75879  0.27710  0.65789  1.0000
  C   C1642     1.0  0.52859  0.36804  0.78747  1.0000
  H   H2795     1.0  0.53439  0.35177  0.84610  1.0000
  C   C1643     1.0  0.65725  0.32347  0.78739  1.0000
  S   S475      1.0  0.57578  0.36120  0.95821  1.0000
  N   N115      1.0  0.79478  0.30545  0.70341  1.0000
  C   C1644     1.0  0.80987  0.31736  0.69193  1.0000
  C   C1645     1.0  0.78895  0.31088  0.72344  1.0000
  C   C1646     1.0  0.77693  0.30931  0.69404  1.0000
  C   C1647     1.0  0.80344  0.28428  0.70422  1.0000
  H   H2796     1.0  0.68025  0.39480  0.94161  1.0000
  C   C1648     1.0  0.80413  0.30373  0.73697  1.0000
  C   C1649     1.0  0.76667  0.33060  0.69113  1.0000
  C   C1650     1.0  0.79021  0.26960  0.71558  1.0000
  H   H2797     1.0  0.82379  0.31262  0.69767  1.0000
  H   H2798     1.0  0.77523  0.30571  0.73113  1.0000
  H   H2799     1.0  0.78556  0.32695  0.72252  1.0000
  H   H2800     1.0  0.78022  0.30442  0.67973  1.0000
  H   H2801     1.0  0.76584  0.30065  0.70285  1.0000
  H   H2802     1.0  0.80761  0.28052  0.68939  1.0000
  H   H2803     1.0  0.81752  0.28084  0.70969  1.0000
  C   C1651     1.0  0.84556  0.26572  0.66142  1.0000
  H   H2804     1.0  0.90881  0.26954  0.66508  1.0000
  H   H2805     1.0  0.68843  0.42481  0.96664  1.0000
  H   H2806     1.0  0.79888  0.30995  0.75058  1.0000
  H   H2807     1.0  0.80625  0.28772  0.74118  1.0000
  H   H2808     1.0  0.81822  0.30855  0.73041  1.0000
  H   H2809     1.0  0.50936  0.38596  0.80694  1.0000
  N   N116      1.0  0.50087  0.35741  0.81449  1.0000
  H   H2810     1.0  0.68614  0.36140  0.96894  1.0000
  H   H2811     1.0  0.78158  0.26585  0.70584  1.0000
  H   H2812     1.0  0.78011  0.27485  0.72808  1.0000
  H   H2813     1.0  0.79934  0.25614  0.72167  1.0000
  H   H2814     1.0  0.49366  0.31796  0.82752  1.0000
  H   H2815     1.0  0.76045  0.33560  0.70520  1.0000
  H   H2816     1.0  0.63363  0.31680  0.85258  1.0000
  C   C1652     1.0  0.67596  0.29682  0.83509  1.0000
  H   H2817     1.0  0.64308  0.28920  0.93414  1.0000
  C   C1653     1.0  0.70238  0.27127  0.93544  1.0000
  C   C1654     1.0  0.83490  0.25205  0.65909  1.0000
  C   C1655     1.0  0.50987  0.24372  0.86737  1.0000
  H   H2818     1.0  0.85078  0.32533  0.81252  1.0000
  C   C1656     1.0  0.81604  0.24113  0.77439  1.0000
  H   H2819     1.0  0.97541  0.31846  0.66873  1.0000
  C   C1657     1.0  0.88820  0.32666  0.66093  1.0000
  H   H2820     1.0  0.69042  0.24896  0.68893  1.0000
  H   H2821     1.0  0.89945  0.36224  0.80482  1.0000
  H   H2822     1.0  0.66359  0.37774  0.95123  1.0000
  C   C1658     1.0  0.50854  0.37363  0.79980  1.0000
  H   H2823     1.0  0.90123  0.31767  0.75287  1.0000
  H   H2824     1.0  0.66307  0.30026  0.93496  1.0000
  C   C1659     1.0  0.69552  0.25912  0.69531  1.0000
  H   H2825     1.0  0.71408  0.41869  0.96370  1.0000
  C   C1660     1.0  0.70042  0.39273  0.97146  1.0000
  H   H2826     1.0  0.69279  0.29325  0.91310  1.0000
  C   C1661     1.0  0.69186  0.27764  0.72121  1.0000
  H   H2827     1.0  0.66213  0.41334  0.97005  1.0000
  Fe  Fe238     1.0  0.65772  0.24530  0.79571  1.0000
  C   C1662     1.0  0.69886  0.32879  0.82551  1.0000
  H   H2828     1.0  0.67889  0.30635  0.88748  1.0000
  H   H2829     1.0  0.82048  0.30176  0.66678  1.0000
  H   H2830     1.0  0.70452  0.31603  0.83565  1.0000
  H   H2831     1.0  0.84586  0.34250  0.79170  1.0000
  H   H2832     1.0  0.89884  0.33729  0.80779  1.0000
  H   H2833     1.0  0.68400  0.28190  0.73473  1.0000
  H   H2834     1.0  0.49288  0.24963  0.89533  1.0000
  C   C1663     1.0  0.66386  0.30731  0.80373  1.0000
  C   C1664     1.0  0.71218  0.26705  0.68586  1.0000
  C   C1665     1.0  0.70843  0.28577  0.71165  1.0000
  H   H2835     1.0  0.65202  0.31682  0.77694  1.0000
  C   C1666     1.0  0.91623  0.30951  0.77696  1.0000
  H   H2836     1.0  0.96591  0.29583  0.69906  1.0000
  H   H2837     1.0  0.65166  0.29905  0.80903  1.0000
  S   S476      1.0  0.66947  0.32506  0.97335  1.0000
  C   C1667     1.0  0.87412  0.34562  0.75753  1.0000
  C   C1668     1.0  0.55420  0.31371  0.95232  1.0000
  H   H2838     1.0  0.66475  0.27263  0.82826  1.0000
  H   H2839     1.0  0.65727  0.31342  0.90446  1.0000
  N   N117      1.0  0.67026  0.31399  0.81994  1.0000
  H   H2840     1.0  0.67581  0.29686  0.79692  1.0000
  S   S477      1.0  0.66392  0.25462  0.72366  1.0000
  H   H2841     1.0  0.82679  0.32523  0.66342  1.0000
  C   C1669     1.0  0.52318  0.36068  0.83782  1.0000
  C   C1670     1.0  0.89203  0.35445  0.77949  1.0000
  H   H2842     1.0  0.63894  0.25578  0.93813  1.0000
  H   H2843     1.0  0.81017  0.25441  0.76485  1.0000
  H   H2844     1.0  0.78846  0.28561  0.80315  1.0000
  H   H2845     1.0  0.85130  0.24931  0.70842  1.0000
  C   C1671     1.0  0.82951  0.23777  0.67467  1.0000
  N   N118      1.0  0.67085  0.27463  0.92120  1.0000
  C   C1672     1.0  0.66342  0.28204  0.90219  1.0000
  H   H2846     1.0  0.87315  0.36170  0.72836  1.0000
  C   C1673     1.0  0.69165  0.27771  0.91793  1.0000
  C   C1674     1.0  0.65848  0.28587  0.93647  1.0000
  C   C1675     1.0  0.66392  0.30368  0.89371  1.0000
  C   C1676     1.0  0.85731  0.33596  0.80062  1.0000
  H   H2847     1.0  0.69588  0.27982  0.94722  1.0000
  H   H2848     1.0  0.64799  0.28023  0.90374  1.0000
  H   H2849     1.0  0.70646  0.38372  0.95982  1.0000
  H   H2850     1.0  0.66929  0.33094  0.77896  1.0000
  H   H2851     1.0  0.65338  0.34308  0.81891  1.0000
  S   S478      1.0  0.76084  0.24550  0.65684  1.0000
  H   H2852     1.0  0.70210  0.41525  0.94544  1.0000
  H   H2853     1.0  0.69085  0.28936  0.83023  1.0000
  C   C1677     1.0  0.56579  0.32539  0.95725  1.0000
  H   H2854     1.0  0.89635  0.29907  0.67765  1.0000
  H   H2855     1.0  0.77632  0.34057  0.68211  1.0000
  H   H2856     1.0  0.67169  0.27343  0.89079  1.0000
  H   H2857     1.0  0.65457  0.40261  0.94349  1.0000
  H   H2858     1.0  0.87061  0.31383  0.78312  1.0000
  H   H2859     1.0  0.71976  0.26314  0.67211  1.0000
  H   H2860     1.0  0.63036  0.31404  0.82887  1.0000
  Fe  Fe239     1.0  0.50632  0.31171  0.91170  1.0000
  H   H2861     1.0  0.67667  0.30170  0.84881  1.0000
  C   C1678     1.0  0.90374  0.30878  0.66541  1.0000
  S   S479      1.0  0.51194  0.33145  0.88311  1.0000
  H   H2862     1.0  0.87897  0.36555  0.78274  1.0000
  H   H2863     1.0  0.88436  0.31684  0.79988  1.0000
  H   H2864     1.0  0.92999  0.30333  0.76824  1.0000
  H   H2865     1.0  0.68978  0.33995  0.83377  1.0000
  C   C1679     1.0  0.84679  0.25007  0.69464  1.0000
  H   H2866     1.0  0.92021  0.31500  0.78883  1.0000
  C   C1680     1.0  0.67031  0.25311  0.92587  1.0000
  H   H2867     1.0  0.93874  0.25970  0.67872  1.0000
  H   H2868     1.0  0.91548  0.33473  0.75480  1.0000
  H   H2869     1.0  0.55619  0.29828  0.95773  1.0000
  H   H2870     1.0  0.90144  0.36253  0.76750  1.0000
  C   C1681     1.0  0.66328  0.28066  0.84049  1.0000
  H   H2871     1.0  0.51159  0.36738  0.84854  1.0000
  H   H2872     1.0  0.86945  0.33359  0.75266  1.0000
  H   H2873     1.0  0.65996  0.33284  0.84149  1.0000
  H   H2874     1.0  0.89717  0.35083  0.73195  1.0000
  C   C1682     1.0  0.65510  0.32902  0.82903  1.0000
  H   H2875     1.0  0.52028  0.24191  0.81849  1.0000
  C   C1683     1.0  0.96109  0.32122  0.67725  1.0000
  H   H2876     1.0  0.86090  0.34714  0.80755  1.0000
  H   H2877     1.0  0.57669  0.31892  0.96621  1.0000
  H   H2878     1.0  0.90811  0.29726  0.78302  1.0000
  H   H2879     1.0  0.80255  0.32314  0.66224  1.0000
  H   H2880     1.0  0.49839  0.37984  0.78930  1.0000
  C   C1684     1.0  0.87544  0.32514  0.78898  1.0000
  C   C1685     1.0  0.63475  0.32361  0.83707  1.0000
  H   H2881     1.0  0.75431  0.33159  0.68339  1.0000
  H   H2882     1.0  0.67654  0.24612  0.93906  1.0000
  H   H2883     1.0  0.70351  0.25549  0.94095  1.0000
  H   H2884     1.0  0.71752  0.27420  0.93070  1.0000
  H   H2885     1.0  0.88401  0.33425  0.67371  1.0000
  H   H2886     1.0  0.68785  0.24142  0.65923  1.0000
  C   C1686     1.0  0.70079  0.41407  0.96142  1.0000
  H   H2887     1.0  0.52401  0.23609  0.87146  1.0000
  C   C1687     1.0  0.49453  0.23889  0.88550  1.0000
  H   H2888     1.0  0.83012  0.24440  0.77644  1.0000
  C   C1688     1.0  0.49678  0.34276  0.80377  1.0000
  H   H2889     1.0  0.54873  0.23839  0.84708  1.0000
  H   H2890     1.0  0.76280  0.24808  0.81305  1.0000
  C   C1689     1.0  0.65009  0.24729  0.92849  1.0000
  C   C1690     1.0  0.69718  0.24496  0.81316  1.0000
  H   H2891     1.0  0.67980  0.24565  0.91416  1.0000
  C   C1691     1.0  0.70636  0.24436  0.82891  1.0000
  H   H2892     1.0  0.64398  0.27089  0.96396  1.0000
  H   H2893     1.0  0.65849  0.28734  0.96673  1.0000
  H   H2894     1.0  0.64533  0.24874  0.91428  1.0000
  H   H2895     1.0  0.49403  0.27826  0.83463  1.0000
  N   N119      1.0  0.80232  0.23795  0.79332  1.0000
  H   H2896     1.0  0.55386  0.23877  0.82158  1.0000
  H   H2897     1.0  0.65049  0.39336  0.97994  1.0000
  Fe  Fe240     1.0  0.62053  0.23825  0.78604  1.0000
  N   N120      1.0  0.50697  0.23814  0.84894  1.0000
  H   H2898     1.0  0.71117  0.38904  0.98157  1.0000
  N   N121      1.0  0.68103  0.38753  0.98192  1.0000
  N   N122      1.0  0.91365  0.29788  0.64899  1.0000
  C   C1692     1.0  0.92599  0.65865  0.27217  1.0000
  S   S480      1.0  0.83730  0.65062  0.28787  1.0000
  Fe  Fe241     1.0  0.85592  0.71423  0.18429  1.0000
  S   S481      1.0  0.86079  0.71707  0.15197  1.0000
  Fe  Fe242     1.0  0.88495  0.67746  0.18798  1.0000
  S   S482      1.0  0.89206  0.67738  0.15578  1.0000
  S   S483      1.0  0.89751  0.65404  0.21015  1.0000
  Fe  Fe243     1.0  0.89251  0.70943  0.15434  1.0000
  Fe  Fe244     1.0  0.85950  0.68503  0.15685  1.0000
  S   S484      1.0  0.83669  0.67569  0.14348  1.0000
  S   S485      1.0  0.85280  0.68301  0.18910  1.0000
  H   H2899     1.0  0.75112  0.69611  0.14370  1.0000
  N   N123      1.0  0.59124  0.60543  0.12330  1.0000
  Fe  Fe245     1.0  0.53017  0.58538  0.10168  1.0000
  S   S486      1.0  0.52574  0.61514  0.08325  1.0000
  S   S487      1.0  0.55798  0.56606  0.09036  1.0000
  Fe  Fe246     1.0  0.51934  0.62639  0.11166  1.0000
  S   S488      1.0  0.52843  0.65037  0.12340  1.0000
  H   H2900     1.0  0.56903  0.62365  0.10769  1.0000
  S   S489      1.0  0.52501  0.59687  0.12975  1.0000
  H   H2901     1.0  0.74206  0.52840  0.28873  1.0000
  C   C1693     1.0  0.93470  0.68369  0.20967  1.0000
  S   S490      1.0  0.62843  0.70449  0.25297  1.0000
  H   H2902     1.0  0.62496  0.68715  0.22118  1.0000
  S   S491      1.0  0.60545  0.69264  0.15409  1.0000
  Fe  Fe247     1.0  0.63690  0.68468  0.15606  1.0000
  S   S492      1.0  0.64745  0.65577  0.17292  1.0000
  Fe  Fe248     1.0  0.77833  0.58683  0.15722  1.0000
  S   S493      1.0  0.75258  0.60960  0.16387  1.0000
  S   S494      1.0  0.80858  0.59302  0.15783  1.0000
  Fe  Fe249     1.0  0.75245  0.55653  0.15553  1.0000
  S   S495      1.0  0.72539  0.57743  0.16261  1.0000
  S   S496      1.0  0.74679  0.52621  0.15403  1.0000
  Fe  Fe250     1.0  0.74066  0.59945  0.14151  1.0000
  S   S497      1.0  0.72273  0.61984  0.12123  1.0000
  Fe  Fe251     1.0  0.73983  0.58541  0.18429  1.0000
  S   S498      1.0  0.72260  0.59001  0.21348  1.0000
  S   S499      1.0  0.76731  0.57829  0.13277  1.0000
  S   S500      1.0  0.76613  0.56281  0.17930  1.0000
  H   H2903     1.0  0.81744  0.70620  0.09934  1.0000
  S   S501      1.0  0.77125  0.61907  0.26359  1.0000
  C   C1694     1.0  0.80255  0.71583  0.16521  1.0000
  H   H2904     1.0  0.91672  0.70927  0.21908  1.0000
  C   C1695     1.0  0.61118  0.60970  0.11376  1.0000
  S   S502      1.0  0.73133  0.63980  0.30507  1.0000
  C   C1696     1.0  0.88351  0.49488  0.27160  1.0000
  Fe  Fe252     1.0  0.75534  0.61708  0.29431  1.0000
  C   C1697     1.0  0.73183  0.52097  0.13905  1.0000
  C   C1698     1.0  0.71531  0.51231  0.14747  1.0000
  C   C1699     1.0  0.70478  0.50563  0.13593  1.0000
  C   C1700     1.0  0.71088  0.50723  0.11581  1.0000
  C   C1701     1.0  0.72734  0.51592  0.10744  1.0000
  C   C1702     1.0  0.73775  0.52271  0.11893  1.0000
  H   H2905     1.0  0.71072  0.51062  0.16304  1.0000
  H   H2906     1.0  0.69199  0.49922  0.14258  1.0000
  H   H2907     1.0  0.80325  0.70180  0.13184  1.0000
  H   H2908     1.0  0.75076  0.52876  0.11226  1.0000
  C   C1703     1.0  0.73590  0.59911  0.22678  1.0000
  C   C1704     1.0  0.72743  0.60329  0.24526  1.0000
  C   C1705     1.0  0.73801  0.61020  0.25627  1.0000
  C   C1706     1.0  0.75734  0.61234  0.24907  1.0000
  C   C1707     1.0  0.76580  0.60825  0.23054  1.0000
  C   C1708     1.0  0.75506  0.60179  0.21931  1.0000
  H   H2909     1.0  0.71272  0.60104  0.25112  1.0000
  H   H2910     1.0  0.73118  0.61382  0.27033  1.0000
  H   H2911     1.0  0.78072  0.60966  0.22498  1.0000
  H   H2912     1.0  0.76177  0.59838  0.20511  1.0000
  C   C1709     1.0  0.66685  0.64331  0.15865  1.0000
  C   C1710     1.0  0.66802  0.64589  0.13848  1.0000
  C   C1711     1.0  0.68509  0.63837  0.12690  1.0000
  C   C1712     1.0  0.70088  0.62815  0.13555  1.0000
  C   C1713     1.0  0.69935  0.62496  0.15575  1.0000
  C   C1714     1.0  0.68229  0.63232  0.16729  1.0000
  H   H2913     1.0  0.65583  0.65381  0.13182  1.0000
  H   H2914     1.0  0.68618  0.64083  0.11128  1.0000
  H   H2915     1.0  0.71148  0.61736  0.16261  1.0000
  H   H2916     1.0  0.68140  0.63016  0.18286  1.0000
  C   C1715     1.0  0.61429  0.71269  0.23453  1.0000
  H   H2917     1.0  0.77978  0.49940  0.28070  1.0000
  C   C1716     1.0  0.73973  0.70884  0.14076  1.0000
  C   C1717     1.0  0.93143  0.69997  0.25116  1.0000
  H   H2918     1.0  0.73779  0.55418  0.28438  1.0000
  C   C1718     1.0  0.57015  0.54455  0.10282  1.0000
  C   C1719     1.0  0.58813  0.53571  0.09360  1.0000
  C   C1720     1.0  0.59861  0.51888  0.10310  1.0000
  C   C1721     1.0  0.59107  0.51057  0.12187  1.0000
  C   C1722     1.0  0.57304  0.51933  0.13105  1.0000
  C   C1723     1.0  0.56269  0.53634  0.12165  1.0000
  H   H2919     1.0  0.59404  0.54202  0.07905  1.0000
  H   H2920     1.0  0.60025  0.63809  0.09712  1.0000
  H   H2921     1.0  0.56708  0.51295  0.14555  1.0000
  H   H2922     1.0  0.54890  0.54301  0.12893  1.0000
  C   C1724     1.0  0.54935  0.66184  0.11664  1.0000
  C   C1725     1.0  0.55526  0.66954  0.13080  1.0000
  C   C1726     1.0  0.57149  0.67913  0.12623  1.0000
  C   C1727     1.0  0.58167  0.68184  0.10724  1.0000
  C   C1728     1.0  0.57563  0.67434  0.09297  1.0000
  C   C1729     1.0  0.55973  0.66414  0.09768  1.0000
  H   H2923     1.0  0.54730  0.66795  0.14548  1.0000
  H   H2924     1.0  0.57577  0.68484  0.13736  1.0000
  H   H2925     1.0  0.55518  0.65855  0.08654  1.0000
  C   C1730     1.0  0.89869  0.69249  0.25648  1.0000
  C   C1731     1.0  0.82884  0.65265  0.14841  1.0000
  C   C1732     1.0  0.84146  0.63533  0.15286  1.0000
  C   C1733     1.0  0.83501  0.61728  0.15558  1.0000
  C   C1734     1.0  0.81581  0.61626  0.15420  1.0000
  C   C1735     1.0  0.80309  0.63362  0.15000  1.0000
  C   C1736     1.0  0.80964  0.65167  0.14694  1.0000
  H   H2926     1.0  0.85636  0.63579  0.15366  1.0000
  H   H2927     1.0  0.84504  0.60398  0.15861  1.0000
  H   H2928     1.0  0.78833  0.63311  0.14875  1.0000
  H   H2929     1.0  0.79978  0.66492  0.14330  1.0000
  C   C1737     1.0  0.85489  0.65228  0.26698  1.0000
  C   C1738     1.0  0.86971  0.63655  0.26399  1.0000
  C   C1739     1.0  0.88324  0.63743  0.24677  1.0000
  C   C1740     1.0  0.88165  0.65382  0.23233  1.0000
  C   C1741     1.0  0.86706  0.66971  0.23550  1.0000
  C   C1742     1.0  0.85376  0.66900  0.25290  1.0000
  H   H2930     1.0  0.87061  0.62365  0.27493  1.0000
  H   H2931     1.0  0.89457  0.62517  0.24436  1.0000
  H   H2932     1.0  0.86609  0.68265  0.22466  1.0000
  H   H2933     1.0  0.84237  0.68122  0.25527  1.0000
  C   C1743     1.0  0.75826  0.55227  0.24625  1.0000
  S   S503      1.0  0.88743  0.70862  0.18653  1.0000
  C   C1744     1.0  0.73184  0.66126  0.16628  1.0000
  H   H2934     1.0  0.81236  0.72623  0.26875  1.0000
  H   H2935     1.0  0.53302  0.72461  0.09057  1.0000
  H   H2936     1.0  0.95952  0.68161  0.24123  1.0000
  H   H2937     1.0  0.79288  0.70362  0.09875  1.0000
  H   H2938     1.0  0.82970  0.71729  0.12992  1.0000
  H   H2939     1.0  0.83941  0.60196  0.30791  1.0000
  H   H2940     1.0  0.57634  0.72140  0.13442  1.0000
  H   H2941     1.0  0.93231  0.68986  0.19458  1.0000
  H   H2942     1.0  0.60163  0.58323  0.14611  1.0000
  S   S504      1.0  0.86180  0.69159  0.29926  1.0000
  H   H2943     1.0  0.62617  0.63227  0.09488  1.0000
  C   C1745     1.0  0.74760  0.54134  0.29071  1.0000
  C   C1746     1.0  0.79357  0.56432  0.26743  1.0000
  H   H2944     1.0  0.78024  0.71389  0.12827  1.0000
  H   H2945     1.0  0.70859  0.71743  0.14534  1.0000
  H   H2946     1.0  0.57855  0.58121  0.14137  1.0000
  H   H2947     1.0  0.96137  0.70009  0.25347  1.0000
  H   H2948     1.0  0.72171  0.65111  0.17400  1.0000
  H   H2949     1.0  0.76368  0.52307  0.26095  1.0000
  H   H2950     1.0  0.94911  0.68640  0.21084  1.0000
  H   H2951     1.0  0.95652  0.70654  0.22896  1.0000
  H   H2952     1.0  0.60350  0.55449  0.13214  1.0000
  H   H2953     1.0  0.89757  0.49977  0.27084  1.0000
  H   H2954     1.0  0.55277  0.61481  0.14247  1.0000
  H   H2955     1.0  0.56554  0.60219  0.16216  1.0000
  H   H2956     1.0  0.70568  0.69838  0.29936  1.0000
  S   S505      1.0  0.69806  0.49957  0.10033  1.0000
  H   H2957     1.0  0.56587  0.59920  0.11458  1.0000
  N   N124      1.0  0.69715  0.57425  0.10530  1.0000
  C   C1747     1.0  0.71616  0.57076  0.09163  1.0000
  C   C1748     1.0  0.68487  0.55990  0.10337  1.0000
  C   C1749     1.0  0.70143  0.57086  0.12581  1.0000
  C   C1750     1.0  0.68778  0.59496  0.09959  1.0000
  C   C1751     1.0  0.73197  0.58227  0.09304  1.0000
  C   C1752     1.0  0.68072  0.56029  0.08285  1.0000
  C   C1753     1.0  0.68600  0.56290  0.14243  1.0000
  C   C1754     1.0  0.66765  0.60135  0.11114  1.0000
  H   H2958     1.0  0.72260  0.55513  0.09387  1.0000
  H   H2959     1.0  0.71396  0.57445  0.07622  1.0000
  H   H2960     1.0  0.67054  0.56169  0.11292  1.0000
  H   H2961     1.0  0.69194  0.54485  0.10834  1.0000
  H   H2962     1.0  0.71491  0.56012  0.12733  1.0000
  H   H2963     1.0  0.70437  0.58442  0.12941  1.0000
  H   H2964     1.0  0.69704  0.60522  0.10127  1.0000
  H   H2965     1.0  0.68651  0.59798  0.08394  1.0000
  H   H2966     1.0  0.72796  0.59803  0.08791  1.0000
  H   H2967     1.0  0.73550  0.57996  0.10787  1.0000
  H   H2968     1.0  0.74559  0.57724  0.08344  1.0000
  H   H2969     1.0  0.67058  0.54995  0.08384  1.0000
  H   H2970     1.0  0.67367  0.57478  0.07647  1.0000
  H   H2971     1.0  0.69403  0.55514  0.07295  1.0000
  H   H2972     1.0  0.67126  0.57135  0.14226  1.0000
  H   H2973     1.0  0.69008  0.56327  0.15659  1.0000
  H   H2974     1.0  0.68557  0.54746  0.14210  1.0000
  H   H2975     1.0  0.65686  0.59257  0.10994  1.0000
  H   H2976     1.0  0.66229  0.61665  0.10513  1.0000
  H   H2977     1.0  0.66843  0.60115  0.12655  1.0000
  C   C1755     1.0  0.92572  0.66645  0.25044  1.0000
  H   H2978     1.0  0.54566  0.70704  0.15181  1.0000
  H   H2979     1.0  0.61750  0.60112  0.10193  1.0000
  H   H2980     1.0  0.94044  0.66174  0.24265  1.0000
  H   H2981     1.0  0.93246  0.64303  0.27397  1.0000
  S   S506      1.0  0.60409  0.71149  0.30542  1.0000
  C   C1756     1.0  0.95333  0.69675  0.24300  1.0000
  S   S507      1.0  0.73911  0.59220  0.30648  1.0000
  H   H2982     1.0  0.92972  0.69852  0.26725  1.0000
  H   H2983     1.0  0.76245  0.57273  0.27303  1.0000
  H   H2984     1.0  0.79527  0.57954  0.26724  1.0000
  H   H2985     1.0  0.78483  0.53384  0.25283  1.0000
  H   H2986     1.0  0.78880  0.49567  0.30300  1.0000
  Fe  Fe253     1.0  0.64742  0.72334  0.13294  1.0000
  H   H2987     1.0  0.68304  0.69557  0.14287  1.0000
  N   N125      1.0  0.71417  0.68735  0.14158  1.0000
  C   C1757     1.0  0.71510  0.69302  0.11985  1.0000
  C   C1758     1.0  0.71920  0.70399  0.14879  1.0000
  C   C1759     1.0  0.69362  0.68451  0.15045  1.0000
  C   C1760     1.0  0.77348  0.56101  0.27914  1.0000
  H   H2988     1.0  0.56249  0.71947  0.10636  1.0000
  C   C1761     1.0  0.79582  0.71526  0.12381  1.0000
  C   C1762     1.0  0.68709  0.68582  0.17221  1.0000
  H   H2989     1.0  0.76450  0.56585  0.24252  1.0000
  H   H2990     1.0  0.70378  0.66358  0.26051  1.0000
  H   H2991     1.0  0.74146  0.71472  0.12502  1.0000
  H   H2992     1.0  0.71777  0.70161  0.16480  1.0000
  Fe  Fe254     1.0  0.49420  0.61132  0.08810  1.0000
  C   C1763     1.0  0.72824  0.66874  0.14526  1.0000
  H   H2993     1.0  0.69102  0.67025  0.14840  1.0000
  C   C1764     1.0  0.59501  0.72676  0.20264  1.0000
  H   H2994     1.0  0.89903  0.69149  0.27221  1.0000
  H   H2995     1.0  0.69047  0.67132  0.28245  1.0000
  S   S508      1.0  0.64615  0.72677  0.28913  1.0000
  H   H2996     1.0  0.93477  0.66785  0.21131  1.0000
  H   H2997     1.0  0.91110  0.65954  0.28071  1.0000
  H   H2998     1.0  0.71603  0.66459  0.11118  1.0000
  H   H2999     1.0  0.60756  0.69926  0.19352  1.0000
  H   H3000     1.0  0.67260  0.68134  0.17705  1.0000
  H   H3001     1.0  0.68526  0.70101  0.17477  1.0000
  H   H3002     1.0  0.69680  0.67612  0.18157  1.0000
  H   H3003     1.0  0.87475  0.49755  0.28578  1.0000
  H   H3004     1.0  0.72324  0.65663  0.14087  1.0000
  H   H3005     1.0  0.57147  0.48810  0.08866  1.0000
  H   H3006     1.0  0.59488  0.59080  0.08731  1.0000
  H   H3007     1.0  0.70902  0.68525  0.09391  1.0000
  H   H3008     1.0  0.75940  0.54691  0.23236  1.0000
  H   H3009     1.0  0.73096  0.67279  0.17489  1.0000
  H   H3010     1.0  0.86283  0.60145  0.21710  1.0000
  H   H3011     1.0  0.92535  0.72426  0.17246  1.0000
  H   H3012     1.0  0.88343  0.71409  0.23526  1.0000
  H   H3013     1.0  0.59422  0.61663  0.08001  1.0000
  H   H3014     1.0  0.85841  0.50092  0.23495  1.0000
  H   H3015     1.0  0.74257  0.55555  0.25212  1.0000
  H   H3016     1.0  0.55821  0.62789  0.15909  1.0000
  N   N126      1.0  0.82714  0.62927  0.21721  1.0000
  C   C1765     1.0  0.84517  0.62709  0.20209  1.0000
  C   C1766     1.0  0.81012  0.63830  0.20694  1.0000
  C   C1767     1.0  0.82339  0.60987  0.22877  1.0000
  C   C1768     1.0  0.82992  0.64173  0.23093  1.0000
  C   C1769     1.0  0.86397  0.61642  0.20952  1.0000
  C   C1770     1.0  0.80924  0.65993  0.19799  1.0000
  C   C1771     1.0  0.82281  0.59420  0.21674  1.0000
  C   C1772     1.0  0.81248  0.64625  0.24705  1.0000
  H   H3017     1.0  0.84304  0.61929  0.19086  1.0000
  H   H3018     1.0  0.84831  0.64150  0.19416  1.0000
  H   H3019     1.0  0.79607  0.63680  0.21673  1.0000
  H   H3020     1.0  0.81001  0.63057  0.19482  1.0000
  H   H3021     1.0  0.83435  0.60381  0.23847  1.0000
  H   H3022     1.0  0.80929  0.61153  0.23885  1.0000
  H   H3023     1.0  0.83476  0.65554  0.22310  1.0000
  H   H3024     1.0  0.87589  0.61533  0.19688  1.0000
  H   H3025     1.0  0.86856  0.62460  0.21900  1.0000
  H   H3026     1.0  0.80740  0.66932  0.20915  1.0000
  H   H3027     1.0  0.82217  0.66247  0.18693  1.0000
  H   H3028     1.0  0.79649  0.66462  0.19042  1.0000
  H   H3029     1.0  0.81203  0.59899  0.20678  1.0000
  H   H3030     1.0  0.81854  0.58114  0.22677  1.0000
  H   H3031     1.0  0.83721  0.58956  0.20822  1.0000
  H   H3032     1.0  0.79823  0.64809  0.24244  1.0000
  H   H3033     1.0  0.81300  0.66028  0.25138  1.0000
  H   H3034     1.0  0.88978  0.68153  0.25577  1.0000
  H   H3035     1.0  0.61244  0.51228  0.09587  1.0000
  H   H3036     1.0  0.56137  0.71016  0.16705  1.0000
  C   C1773     1.0  0.58340  0.61880  0.13811  1.0000
  S   S509      1.0  0.63921  0.71265  0.16460  1.0000
  H   H3037     1.0  0.82452  0.54471  0.30324  1.0000
  H   H3038     1.0  0.58106  0.63419  0.13085  1.0000
  N   N127      1.0  0.76822  0.54127  0.28019  1.0000
  H   H3039     1.0  0.74259  0.66946  0.13572  1.0000
  S   S510      1.0  0.49906  0.58100  0.10462  1.0000
  H   H3040     1.0  0.59276  0.56754  0.11209  1.0000
  H   H3041     1.0  0.93490  0.66618  0.27843  1.0000
  Fe  Fe255     1.0  0.84344  0.66820  0.30800  1.0000
  Fe  Fe256     1.0  0.60856  0.72174  0.15920  1.0000
  H   H3042     1.0  0.74205  0.72039  0.14810  1.0000
  C   C1774     1.0  0.56387  0.61548  0.15109  1.0000
  H   H3043     1.0  0.61709  0.57022  0.11437  1.0000
  C   C1775     1.0  0.61232  0.63120  0.10513  1.0000
  H   H3044     1.0  0.73027  0.69378  0.11237  1.0000
  H   H3045     1.0  0.73227  0.51719  0.09193  1.0000
  H   H3046     1.0  0.74691  0.65324  0.16597  1.0000
  S   S511      1.0  0.91368  0.72811  0.13461  1.0000
  C   C1776     1.0  0.91797  0.69327  0.22388  1.0000
  C   C1777     1.0  0.88698  0.71266  0.25001  1.0000
  H   H3047     1.0  0.89445  0.72470  0.25067  1.0000
  H   H3048     1.0  0.54076  0.71643  0.12210  1.0000
  C   C1778     1.0  0.60226  0.56866  0.12220  1.0000
  H   H3049     1.0  0.79945  0.72681  0.09214  1.0000
  C   C1779     1.0  0.69773  0.70675  0.31096  1.0000
  N   N128      1.0  0.67085  0.64741  0.25393  1.0000
  C   C1780     1.0  0.67230  0.66245  0.26568  1.0000
  C   C1781     1.0  0.65196  0.65379  0.24621  1.0000
  C   C1782     1.0  0.68781  0.64734  0.23737  1.0000
  C   C1783     1.0  0.67173  0.62797  0.26709  1.0000
  C   C1784     1.0  0.69186  0.66052  0.27272  1.0000
  C   C1785     1.0  0.63339  0.65341  0.26164  1.0000
  C   C1786     1.0  0.68638  0.63826  0.21987  1.0000
  C   C1787     1.0  0.66656  0.61099  0.25958  1.0000
  H   H3050     1.0  0.66943  0.67741  0.25730  1.0000
  H   H3051     1.0  0.66103  0.66226  0.27892  1.0000
  H   H3052     1.0  0.65053  0.64494  0.23557  1.0000
  H   H3053     1.0  0.65140  0.66879  0.23781  1.0000
  H   H3054     1.0  0.69028  0.66248  0.23119  1.0000
  H   H3055     1.0  0.70145  0.63972  0.24266  1.0000
  H   H3056     1.0  0.68650  0.62283  0.27086  1.0000
  H   H3057     1.0  0.66242  0.62915  0.28149  1.0000
  H   H3058     1.0  0.87286  0.71450  0.25996  1.0000
  H   H3059     1.0  0.69599  0.64608  0.28131  1.0000
  H   H3060     1.0  0.79520  0.56243  0.25211  1.0000
  H   H3061     1.0  0.63219  0.66356  0.27193  1.0000
  H   H3062     1.0  0.62054  0.65828  0.25420  1.0000
  H   H3063     1.0  0.63230  0.63861  0.26981  1.0000
  H   H3064     1.0  0.70070  0.63705  0.21016  1.0000
  H   H3065     1.0  0.67576  0.64763  0.21110  1.0000
  H   H3066     1.0  0.68282  0.62343  0.22399  1.0000
  H   H3067     1.0  0.67977  0.60217  0.25263  1.0000
  H   H3068     1.0  0.65608  0.61537  0.24940  1.0000
  H   H3069     1.0  0.65945  0.60136  0.27206  1.0000
  C   C1788     1.0  0.80196  0.71305  0.10228  1.0000
  H   H3070     1.0  0.81289  0.63470  0.26004  1.0000
  H   H3071     1.0  0.79725  0.52561  0.28245  1.0000
  C   C1789     1.0  0.78222  0.52614  0.29071  1.0000
  H   H3072     1.0  0.84207  0.63449  0.23879  1.0000
  H   H3073     1.0  0.80080  0.70124  0.16327  1.0000
  H   H3074     1.0  0.83347  0.72454  0.25053  1.0000
  H   H3075     1.0  0.70677  0.70781  0.11616  1.0000
  C   C1790     1.0  0.76945  0.53670  0.26014  1.0000
  Fe  Fe257     1.0  0.49350  0.59578  0.13084  1.0000
  C   C1791     1.0  0.57724  0.60859  0.10910  1.0000
  H   H3076     1.0  0.62311  0.48671  0.06560  1.0000
  H   H3077     1.0  0.58323  0.67651  0.07817  1.0000
  H   H3078     1.0  0.77328  0.56401  0.29388  1.0000
  C   C1792     1.0  0.61588  0.70124  0.22029  1.0000
  C   C1793     1.0  0.70752  0.67944  0.10970  1.0000
  H   H3079     1.0  0.59793  0.49572  0.07042  1.0000
  H   H3080     1.0  0.91627  0.65824  0.24556  1.0000
  C   C1794     1.0  0.60609  0.70818  0.20451  1.0000
  H   H3081     1.0  0.90464  0.68916  0.22099  1.0000
  S   S512      1.0  0.60100  0.69565  0.10059  1.0000
  C   C1795     1.0  0.77806  0.50514  0.29442  1.0000
  C   C1796     1.0  0.58579  0.60518  0.08812  1.0000
  N   N129      1.0  0.91898  0.68798  0.24530  1.0000
  H   H3082     1.0  0.61218  0.63974  0.11666  1.0000
  Fe  Fe258     1.0  0.61549  0.70402  0.12294  1.0000
  H   H3083     1.0  0.78305  0.52983  0.30494  1.0000
  H   H3084     1.0  0.80556  0.55492  0.27426  1.0000
  C   C1797     1.0  0.59306  0.58488  0.13422  1.0000
  S   S513      1.0  0.64732  0.69434  0.12449  1.0000
  H   H3085     1.0  0.69188  0.67884  0.11490  1.0000
  H   H3086     1.0  0.62141  0.60518  0.12441  1.0000
  H   H3087     1.0  0.57362  0.60590  0.08022  1.0000
  Fe  Fe259     1.0  0.62117  0.72238  0.27675  1.0000
  H   H3088     1.0  0.59408  0.61792  0.14790  1.0000
  H   H3089     1.0  0.92630  0.71569  0.24660  1.0000
  H   H3090     1.0  0.64752  0.64256  0.31102  1.0000
  H   H3091     1.0  0.87638  0.50431  0.25985  1.0000
  H   H3092     1.0  0.81817  0.71641  0.16408  1.0000
  H   H3093     1.0  0.79581  0.71756  0.18037  1.0000
  H   H3094     1.0  0.84703  0.48817  0.26567  1.0000
  C   C1798     1.0  0.55144  0.71816  0.15686  1.0000
  H   H3095     1.0  0.71775  0.72700  0.30074  1.0000
  S   S514      1.0  0.60314  0.48880  0.13403  1.0000
  C   C1799     1.0  0.54858  0.72778  0.11276  1.0000
  H   H3096     1.0  0.76350  0.50369  0.30302  1.0000
  H   H3097     1.0  0.68209  0.70619  0.31195  1.0000
  S   S515      1.0  0.83331  0.73400  0.20112  1.0000
  H   H3098     1.0  0.79453  0.56660  0.31504  1.0000
  C   C1800     1.0  0.56299  0.73089  0.14034  1.0000
  H   H3099     1.0  0.53971  0.72712  0.16553  1.0000
  C   C1801     1.0  0.70177  0.72786  0.30543  1.0000
  C   C1802     1.0  0.74443  0.54145  0.31283  1.0000
  H   H3100     1.0  0.49490  0.64855  0.17152  1.0000
  C   C1803     1.0  0.60216  0.73077  0.23334  1.0000
  H   H3101     1.0  0.51803  0.73019  0.14204  1.0000
  H   H3102     1.0  0.78153  0.73402  0.25560  1.0000
  S   S516      1.0  0.61653  0.73431  0.12779  1.0000
  C   C1804     1.0  0.82199  0.73245  0.12679  1.0000
  C   C1805     1.0  0.79245  0.73229  0.15114  1.0000
  N   N130      1.0  0.80032  0.73285  0.12974  1.0000
  H   H3103     1.0  0.77682  0.73085  0.15440  1.0000
  C   C1806     1.0  0.82322  0.73468  0.25931  1.0000
  H   H3104     1.0  0.82904  0.73564  0.09460  1.0000
  H   H3105     1.0  0.69521  0.73392  0.29208  1.0000
  C   C1807     1.0  0.93180  0.73585  0.16278  1.0000
  S   S517      1.0  0.98240  0.58493  0.36081  1.0000
  S   S518      1.0  0.98473  0.57707  0.40777  1.0000
  H   H3106     1.0  0.91291  0.61424  0.35029  1.0000
  H   H3107     1.0  0.59965  0.70025  0.35092  1.0000
  H   H3108     1.0  0.83066  0.61523  0.33785  1.0000
  Fe  Fe260     1.0  0.83750  0.67077  0.35026  1.0000
  S   S519      1.0  0.82119  0.65718  0.37830  1.0000
  C   C1808     1.0  0.64546  0.66802  0.32392  1.0000
  S   S520      1.0  0.85552  0.69444  0.34571  1.0000
  C   C1809     1.0  0.89754  0.57387  0.37352  1.0000
  H   H3109     1.0  0.93391  0.48750  0.38290  1.0000
  S   S521      1.0  0.77073  0.61337  0.31968  1.0000
  S   S522      1.0  0.94986  0.62283  0.39033  1.0000
  C   C1810     1.0  0.61144  0.72544  0.37688  1.0000
  C   C1811     1.0  0.78372  0.59745  0.37306  1.0000
  C   C1812     1.0  0.57557  0.68887  0.38886  1.0000
  C   C1813     1.0  0.81295  0.72620  0.38375  1.0000
  H   H3110     1.0  0.69916  0.71262  0.35333  1.0000
  H   H3111     1.0  0.56644  0.71276  0.33497  1.0000
  S   S523      1.0  0.64272  0.69975  0.34152  1.0000
  H   H3112     1.0  0.73017  0.55041  0.31725  1.0000
  S   S524      1.0  0.72798  0.60960  0.34693  1.0000
  H   H3113     1.0  0.77451  0.69514  0.35870  1.0000
  C   C1814     1.0  0.67264  0.64131  0.32405  1.0000
  H   H3114     1.0  0.57364  0.68842  0.40486  1.0000
  C   C1815     1.0  0.82977  0.59438  0.32006  1.0000
  H   H3115     1.0  0.58075  0.65744  0.39039  1.0000
  C   C1816     1.0  0.83290  0.59908  0.33938  1.0000
  Fe  Fe261     1.0  0.71609  0.61471  0.31923  1.0000
  C   C1817     1.0  0.82210  0.52275  0.32877  1.0000
  C   C1818     1.0  0.71238  0.71923  0.34757  1.0000
  H   H3116     1.0  0.80146  0.69584  0.37405  1.0000
  H   H3117     1.0  0.78315  0.64773  0.33221  1.0000
  C   C1819     1.0  0.78180  0.71816  0.40401  1.0000
  H   H3118     1.0  0.89572  0.58497  0.42063  1.0000
  H   H3119     1.0  0.76509  0.69862  0.38317  1.0000
  C   C1820     1.0  0.65411  0.67725  0.33478  1.0000
  C   C1821     1.0  0.56922  0.72459  0.38502  1.0000
  C   C1822     1.0  0.78281  0.64983  0.34691  1.0000
  C   C1823     1.0  0.84465  0.59495  0.37833  1.0000
  C   C1824     1.0  0.68140  0.65071  0.33467  1.0000
  C   C1825     1.0  0.67198  0.66846  0.34033  1.0000
  N   N131      1.0  0.58282  0.70726  0.37819  1.0000
  H   H3120     1.0  0.95513  0.50011  0.39969  1.0000
  H   H3121     1.0  0.69533  0.64418  0.33880  1.0000
  H   H3122     1.0  0.67873  0.67547  0.34879  1.0000
  C   C1826     1.0  0.96137  0.52364  0.37647  1.0000
  C   C1827     1.0  0.95788  0.53274  0.35793  1.0000
  H   H3123     1.0  0.59315  0.66970  0.36846  1.0000
  H   H3124     1.0  0.81569  0.50385  0.35593  1.0000
  C   C1828     1.0  0.56994  0.70217  0.34798  1.0000
  S   S525      1.0  0.97707  0.53160  0.38887  1.0000
  H   H3125     1.0  0.60193  0.66689  0.39114  1.0000
  H   H3126     1.0  0.82258  0.56298  0.34828  1.0000
  C   C1829     1.0  0.79979  0.65355  0.37196  1.0000
  C   C1830     1.0  0.78213  0.65627  0.38459  1.0000
  C   C1831     1.0  0.76471  0.65667  0.37803  1.0000
  C   C1832     1.0  0.78575  0.69645  0.41326  1.0000
  H   H3127     1.0  0.84132  0.71171  0.38987  1.0000
  H   H3128     1.0  0.57583  0.68817  0.34268  1.0000
  H   H3129     1.0  0.78181  0.65901  0.39905  1.0000
  S   S526      1.0  0.92319  0.50004  0.34385  1.0000
  H   H3130     1.0  0.79720  0.61123  0.34604  1.0000
  C   C1833     1.0  0.94050  0.50010  0.37587  1.0000
  C   C1834     1.0  0.91995  0.65652  0.33956  1.0000
  C   C1835     1.0  0.93938  0.64745  0.33605  1.0000
  C   C1836     1.0  0.94866  0.63688  0.35147  1.0000
  C   C1837     1.0  0.93866  0.63570  0.37055  1.0000
  C   C1838     1.0  0.91925  0.64480  0.37406  1.0000
  C   C1839     1.0  0.90982  0.65496  0.35860  1.0000
  H   H3131     1.0  0.62681  0.72217  0.37917  1.0000
  H   H3132     1.0  0.96364  0.62997  0.34863  1.0000
  H   H3133     1.0  0.91148  0.64407  0.38880  1.0000
  H   H3134     1.0  0.89489  0.66201  0.36145  1.0000
  H   H3135     1.0  0.93874  0.59415  0.36919  1.0000
  H   H3136     1.0  0.87629  0.58970  0.40646  1.0000
  H   H3137     1.0  0.90999  0.54320  0.37169  1.0000
  H   H3138     1.0  0.88361  0.60906  0.41421  1.0000
  C   C1840     1.0  0.93676  0.57011  0.40523  1.0000
  H   H3139     1.0  0.81378  0.64718  0.34369  1.0000
  H   H3140     1.0  0.60132  0.70354  0.39999  1.0000
  H   H3141     1.0  0.72377  0.70871  0.34030  1.0000
  H   H3142     1.0  0.82553  0.54270  0.38205  1.0000
  H   H3143     1.0  0.93485  0.60470  0.33597  1.0000
  H   H3144     1.0  0.88649  0.56884  0.38590  1.0000
  H   H3145     1.0  0.75095  0.65957  0.38748  1.0000
  H   H3146     1.0  0.56095  0.68815  0.38629  1.0000
  C   C1841     1.0  0.90460  0.55670  0.36221  1.0000
  H   H3147     1.0  0.78527  0.52525  0.36729  1.0000
  H   H3148     1.0  0.80183  0.55459  0.37719  1.0000
  N   N132      1.0  0.79232  0.72396  0.38373  1.0000
  C   C1842     1.0  0.79896  0.55284  0.32385  1.0000
  H   H3149     1.0  0.84207  0.56422  0.35904  1.0000
  H   H3150     1.0  0.77225  0.69003  0.41598  1.0000
  H   H3151     1.0  0.58649  0.72413  0.34929  1.0000
  H   H3152     1.0  0.89608  0.60988  0.37986  1.0000
  H   H3153     1.0  0.78413  0.60995  0.38009  1.0000
  C   C1843     1.0  0.82371  0.59913  0.37416  1.0000
  H   H3154     1.0  0.78464  0.58391  0.38373  1.0000
  C   C1844     1.0  0.88908  0.59501  0.40886  1.0000
  H   H3155     1.0  0.81475  0.59973  0.31721  1.0000
  C   C1845     1.0  0.80014  0.64973  0.35337  1.0000
  S   S527      1.0  0.74338  0.65612  0.35027  1.0000
  C   C1846     1.0  0.54827  0.72785  0.38103  1.0000
  H   H3156     1.0  0.89220  0.55360  0.35668  1.0000
  H   H3157     1.0  0.96429  0.54541  0.35092  1.0000
  H   H3158     1.0  0.56842  0.72383  0.40094  1.0000
  S   S528      1.0  0.76559  0.56163  0.35019  1.0000
  C   C1847     1.0  0.78764  0.54723  0.34176  1.0000
  H   H3159     1.0  0.81942  0.61519  0.37144  1.0000
  H   H3160     1.0  0.61161  0.73072  0.36120  1.0000
  H   H3161     1.0  0.79553  0.58664  0.34628  1.0000
  H   H3162     1.0  0.91513  0.60558  0.39341  1.0000
  C   C1848     1.0  0.81117  0.51752  0.34699  1.0000
  Fe  Fe262     1.0  0.62793  0.71845  0.31781  1.0000
  C   C1849     1.0  0.90385  0.59854  0.39003  1.0000
  N   N133      1.0  0.82037  0.59057  0.35758  1.0000
  H   H3163     1.0  0.94940  0.57455  0.39470  1.0000
  C   C1850     1.0  0.95256  0.50731  0.38535  1.0000
  H   H3164     1.0  0.91593  0.55977  0.34944  1.0000
  C   C1851     1.0  0.58551  0.70891  0.35639  1.0000
  H   H3165     1.0  0.82782  0.69560  0.38453  1.0000
  H   H3166     1.0  0.63161  0.67465  0.31969  1.0000
  H   H3167     1.0  0.92981  0.55244  0.38758  1.0000
  C   C1852     1.0  0.79391  0.52963  0.35335  1.0000
  C   C1853     1.0  0.76508  0.65375  0.35907  1.0000
  H   H3168     1.0  0.78513  0.72671  0.41410  1.0000
  H   H3169     1.0  0.79428  0.72142  0.31949  1.0000
  S   S529      1.0  0.82017  0.68531  0.32677  1.0000
  H   H3170     1.0  0.79946  0.71540  0.35535  1.0000
  C   C1854     1.0  0.65450  0.64986  0.31897  1.0000
  H   H3171     1.0  0.76919  0.59999  0.36865  1.0000
  C   C1855     1.0  0.92877  0.58670  0.36416  1.0000
  C   C1856     1.0  0.79943  0.59645  0.35476  1.0000
  H   H3172     1.0  0.93040  0.58164  0.41415  1.0000
  Fe  Fe263     1.0  0.97831  0.60265  0.38444  1.0000
  C   C1857     1.0  0.82607  0.56879  0.36033  1.0000
  C   C1858     1.0  0.92192  0.56479  0.39494  1.0000
  C   C1859     1.0  0.92191  0.60058  0.34638  1.0000
  H   H3173     1.0  0.94244  0.55706  0.41515  1.0000
  H   H3174     1.0  0.55596  0.70097  0.35770  1.0000
  C   C1860     1.0  0.79240  0.70999  0.37029  1.0000
  H   H3175     1.0  0.61328  0.69497  0.37816  1.0000
  N   N134      1.0  0.91301  0.58095  0.38066  1.0000
  H   H3176     1.0  0.85452  0.60256  0.36652  1.0000
  Fe  Fe264     1.0  0.87601  0.67665  0.32495  1.0000
  C   C1861     1.0  0.93744  0.50888  0.35711  1.0000
  H   H3177     1.0  0.84477  0.60081  0.39165  1.0000
  H   H3178     1.0  0.94403  0.53213  0.33373  1.0000
  C   C1862     1.0  0.77237  0.70553  0.36901  1.0000
  C   C1863     1.0  0.94628  0.52520  0.34823  1.0000
  C   C1864     1.0  0.58874  0.66979  0.38426  1.0000
  Fe  Fe265     1.0  0.75302  0.58982  0.33266  1.0000
  H   H3179     1.0  0.91058  0.55860  0.40626  1.0000
  H   H3180     1.0  0.85023  0.57918  0.38105  1.0000
  H   H3181     1.0  0.76251  0.71846  0.36329  1.0000
  H   H3182     1.0  0.67476  0.72200  0.33831  1.0000
  H   H3183     1.0  0.81437  0.59434  0.38800  1.0000
  Fe  Fe266     1.0  0.74472  0.63340  0.33201  1.0000
  C   C1865     1.0  0.81625  0.55706  0.37896  1.0000
  H   H3184     1.0  0.81472  0.56367  0.39207  1.0000
  C   C1866     1.0  0.60228  0.70682  0.38389  1.0000
  H   H3185     1.0  0.84858  0.59405  0.34004  1.0000
  H   H3186     1.0  0.91390  0.59365  0.33853  1.0000
  H   H3187     1.0  0.93812  0.57370  0.35890  1.0000
  S   S530      1.0  0.85924  0.65194  0.33189  1.0000
  H   H3188     1.0  0.88946  0.58589  0.36423  1.0000
  H   H3189     1.0  0.71734  0.72161  0.36062  1.0000
  H   H3190     1.0  0.76580  0.72202  0.40437  1.0000
  H   H3191     1.0  0.54061  0.71545  0.38773  1.0000
  H   H3192     1.0  0.94728  0.64863  0.32135  1.0000
  H   H3193     1.0  0.79005  0.69517  0.42767  1.0000
  Fe  Fe267     1.0  0.83977  0.70748  0.32045  1.0000
  H   H3194     1.0  0.70264  0.69904  0.32462  1.0000
  H   H3195     1.0  0.83367  0.57865  0.31933  1.0000
  C   C1867     1.0  0.82646  0.70813  0.39202  1.0000
  S   S531      1.0  0.84258  0.50695  0.31926  1.0000
  H   H3196     1.0  0.82007  0.73141  0.36868  1.0000
  S   S532      1.0  0.68450  0.61919  0.31664  1.0000
  C   C1868     1.0  0.81600  0.54050  0.31727  1.0000
  H   H3197     1.0  0.82205  0.70393  0.40787  1.0000
  H   H3198     1.0  0.54775  0.73167  0.36526  1.0000
  H   H3199     1.0  0.79725  0.68717  0.40483  1.0000
  S   S533      1.0  0.90881  0.66996  0.31998  1.0000
  H   H3200     1.0  0.75957  0.73349  0.33033  1.0000
  S   S534      1.0  0.87072  0.48640  0.36568  1.0000
  H   H3201     1.0  0.75542  0.54758  0.31765  1.0000
  H   H3202     1.0  0.74338  0.52668  0.32118  1.0000
  Fe  Fe268     1.0  0.71965  0.81699  0.16071  1.0000
  S   S535      1.0  0.74112  0.79195  0.17176  1.0000
  S   S536      1.0  0.69124  0.81051  0.15492  1.0000
  Fe  Fe269     1.0  0.74242  0.84755  0.16840  1.0000
  S   S537      1.0  0.76491  0.82419  0.18039  1.0000
  S   S538      1.0  0.74402  0.87919  0.16978  1.0000
  Fe  Fe270     1.0  0.76353  0.81001  0.15547  1.0000
  S   S539      1.0  0.79224  0.79682  0.14039  1.0000
  Fe  Fe271     1.0  0.74044  0.80852  0.19555  1.0000
  S   S540      1.0  0.74032  0.79242  0.22602  1.0000
  S   S541      1.0  0.74235  0.83418  0.14210  1.0000
  S   S542      1.0  0.71751  0.83278  0.18584  1.0000
  S   S543      1.0  0.73269  0.85253  0.28242  1.0000
  Fe  Fe272     1.0  0.83235  0.94569  0.15408  1.0000
  S   S544      1.0  0.86245  0.94634  0.13641  1.0000
  S   S545      1.0  0.82093  0.91847  0.15072  1.0000
  H   H3203     1.0  0.53771  0.76258  0.14288  1.0000
  H   H3204     1.0  0.94084  0.90546  0.23788  1.0000
  H   H3205     1.0  0.52376  0.74654  0.10027  1.0000
  Fe  Fe273     1.0  0.87160  0.94740  0.16440  1.0000
  S   S546      1.0  0.89598  0.92580  0.17711  1.0000
  S   S547      1.0  0.84186  0.94614  0.18229  1.0000
  H   H3206     1.0  0.49779  0.76716  0.27459  1.0000
  H   H3207     1.0  0.73243  0.83428  0.22001  1.0000
  H   H3208     1.0  0.67837  0.81292  0.19749  1.0000
  H   H3209     1.0  0.77862  0.79226  0.24546  1.0000
  C   C1869     1.0  0.96534  0.86335  0.20618  1.0000
  S   S548      1.0  0.96926  0.77122  0.16574  1.0000
  H   H3210     1.0  0.67277  0.74442  0.23189  1.0000
  S   S549      1.0  0.96238  0.86995  0.13080  1.0000
  S   S550      1.0  0.97267  0.82369  0.17200  1.0000
  C   C1870     1.0  0.91235  0.86666  0.11937  1.0000
  H   H3211     1.0  0.82608  0.75818  0.23551  1.0000
  H   H3212     1.0  0.91332  0.88230  0.11632  1.0000
  H   H3213     1.0  0.70255  0.75626  0.22638  1.0000
  H   H3214     1.0  0.58804  0.87913  0.30565  1.0000
  H   H3215     1.0  0.51169  0.79095  0.28695  1.0000
  C   C1871     1.0  0.69399  0.77476  0.24792  1.0000
  N   N135      1.0  0.77416  0.88239  0.22458  1.0000
  H   H3216     1.0  0.81593  0.79756  0.22991  1.0000
  C   C1872     1.0  0.53460  0.75531  0.13159  1.0000
  C   C1873     1.0  0.94529  0.89857  0.22462  1.0000
  H   H3217     1.0  0.56967  0.87409  0.29350  1.0000
  H   H3218     1.0  0.97043  0.88138  0.23610  1.0000
  H   H3219     1.0  0.82562  0.74042  0.13719  1.0000
  H   H3220     1.0  0.79326  0.74619  0.15560  1.0000
  H   H3221     1.0  0.65074  0.79694  0.21633  1.0000
  H   H3222     1.0  0.80518  0.85924  0.23991  1.0000
  H   H3223     1.0  0.79346  0.86932  0.26140  1.0000
  C   C1874     1.0  0.95286  0.76056  0.15688  1.0000
  C   C1875     1.0  0.94913  0.76578  0.13782  1.0000
  H   H3224     1.0  0.68983  0.78296  0.19064  1.0000
  H   H3225     1.0  0.67602  0.93959  0.28136  1.0000
  C   C1876     1.0  0.71029  0.76821  0.29650  1.0000
  H   H3226     1.0  0.95575  0.77727  0.12811  1.0000
  C   C1877     1.0  0.69207  0.76176  0.31005  1.0000
  C   C1878     1.0  0.91371  0.91002  0.16384  1.0000
  C   C1879     1.0  0.91938  0.91464  0.14377  1.0000
  C   C1880     1.0  0.93433  0.90223  0.13390  1.0000
  C   C1881     1.0  0.94346  0.88490  0.14387  1.0000
  C   C1882     1.0  0.93730  0.87992  0.16383  1.0000
  C   C1883     1.0  0.92271  0.89258  0.17381  1.0000
  H   H3227     1.0  0.91263  0.92804  0.13593  1.0000
  H   H3228     1.0  0.93893  0.90617  0.11843  1.0000
  H   H3229     1.0  0.94387  0.86637  0.17151  1.0000
  H   H3230     1.0  0.91824  0.88880  0.18931  1.0000
  H   H3231     1.0  0.65918  0.79513  0.23840  1.0000
  C   C1884     1.0  0.68734  0.78938  0.14729  1.0000
  C   C1885     1.0  0.70255  0.77664  0.13845  1.0000
  C   C1886     1.0  0.69859  0.76064  0.13174  1.0000
  C   C1887     1.0  0.67947  0.75684  0.13426  1.0000
  C   C1888     1.0  0.66438  0.76920  0.14370  1.0000
  C   C1889     1.0  0.66827  0.78550  0.14989  1.0000
  H   H3232     1.0  0.71726  0.77951  0.13619  1.0000
  H   H3233     1.0  0.71037  0.75138  0.12425  1.0000
  H   H3234     1.0  0.64960  0.76657  0.14568  1.0000
  H   H3235     1.0  0.65638  0.79528  0.15660  1.0000
  C   C1890     1.0  0.80428  0.78101  0.15797  1.0000
  C   C1891     1.0  0.79402  0.77511  0.17642  1.0000
  C   C1892     1.0  0.80307  0.76084  0.18976  1.0000
  C   C1893     1.0  0.82257  0.75284  0.18490  1.0000
  C   C1894     1.0  0.83312  0.75944  0.16684  1.0000
  C   C1895     1.0  0.82392  0.77336  0.15328  1.0000
  H   H3236     1.0  0.77894  0.78102  0.18027  1.0000
  H   H3237     1.0  0.79482  0.75570  0.20363  1.0000
  C   C1896     1.0  0.56998  0.83460  0.30793  1.0000
  H   H3238     1.0  0.82781  0.75764  0.10431  1.0000
  C   C1897     1.0  0.76526  0.89040  0.16309  1.0000
  C   C1898     1.0  0.76405  0.90984  0.16542  1.0000
  C   C1899     1.0  0.78080  0.91875  0.16168  1.0000
  C   C1900     1.0  0.79902  0.90843  0.15517  1.0000
  C   C1901     1.0  0.80008  0.88918  0.15231  1.0000
  C   C1902     1.0  0.78341  0.88018  0.15636  1.0000
  H   H3239     1.0  0.75005  0.91800  0.17040  1.0000
  H   H3240     1.0  0.77961  0.93362  0.16374  1.0000
  H   H3241     1.0  0.81387  0.88106  0.14694  1.0000
  H   H3242     1.0  0.78462  0.86531  0.15429  1.0000
  C   C1903     1.0  0.73780  0.80909  0.24177  1.0000
  C   C1904     1.0  0.73999  0.80245  0.26115  1.0000
  C   C1905     1.0  0.73894  0.81577  0.27358  1.0000
  C   C1906     1.0  0.73471  0.83572  0.26689  1.0000
  C   C1907     1.0  0.73213  0.84229  0.24762  1.0000
  C   C1908     1.0  0.73408  0.82903  0.23496  1.0000
  H   H3243     1.0  0.74279  0.78706  0.26645  1.0000
  H   H3244     1.0  0.74158  0.81059  0.28827  1.0000
  H   H3245     1.0  0.72841  0.85764  0.24253  1.0000
  S   S551      1.0  0.82446  0.97860  0.14794  1.0000
  C   C1909     1.0  0.79924  0.79574  0.27269  1.0000
  H   H3246     1.0  0.66608  0.77832  0.19224  1.0000
  H   H3247     1.0  0.97614  0.90873  0.18700  1.0000
  H   H3248     1.0  0.79480  0.89625  0.23324  1.0000
  H   H3249     1.0  0.56381  0.89164  0.30923  1.0000
  H   H3250     1.0  0.81233  0.78408  0.21242  1.0000
  H   H3251     1.0  0.88683  0.86086  0.16306  1.0000
  C   C1910     1.0  0.96729  0.89078  0.22226  1.0000
  H   H3252     1.0  0.74951  0.87391  0.21670  1.0000
  H   H3253     1.0  0.75529  0.89616  0.20359  1.0000
  C   C1911     1.0  0.67481  0.81163  0.21351  1.0000
  H   H3254     1.0  0.59200  0.80778  0.30772  1.0000
  H   H3255     1.0  0.84841  0.75389  0.16332  1.0000
  H   H3256     1.0  0.58009  0.74467  0.10488  1.0000
  H   H3257     1.0  0.66432  0.94284  0.30517  1.0000
  H   H3258     1.0  0.70480  0.78079  0.21719  1.0000
  H   H3259     1.0  0.72438  0.90018  0.22558  1.0000
  H   H3260     1.0  0.97923  0.89805  0.15521  1.0000
  H   H3261     1.0  0.73516  0.88975  0.24653  1.0000
  H   H3262     1.0  0.50849  0.81622  0.27845  1.0000
  H   H3263     1.0  0.57532  0.84270  0.29357  1.0000
  C   C1912     1.0  0.87046  0.88857  0.16940  1.0000
  H   H3264     1.0  0.86849  0.90420  0.16302  1.0000
  H   H3265     1.0  0.74063  0.91275  0.23235  1.0000
  H   H3266     1.0  0.68546  0.76495  0.25883  1.0000
  C   C1913     1.0  0.59257  0.73787  0.21734  1.0000
  C   C1914     1.0  0.92824  0.74083  0.14367  1.0000
  H   H3267     1.0  0.66912  0.81062  0.27857  1.0000
  S   S552      1.0  0.60629  0.75326  0.27573  1.0000
  H   H3268     1.0  0.66025  0.76108  0.24721  1.0000
  H   H3269     1.0  0.57417  0.81008  0.29254  1.0000
  H   H3270     1.0  0.63447  0.95093  0.29527  1.0000
  C   C1915     1.0  0.73798  0.89809  0.23167  1.0000
  H   H3271     1.0  0.97805  0.84237  0.22960  1.0000
  H   H3272     1.0  0.60252  0.85317  0.29160  1.0000
  H   H3273     1.0  0.94155  0.90993  0.21224  1.0000
  N   N136      1.0  0.87716  0.87662  0.13641  1.0000
  C   C1916     1.0  0.64756  0.79487  0.29713  1.0000
  H   H3274     1.0  0.80398  0.87466  0.21029  1.0000
  C   C1917     1.0  0.89128  0.86253  0.12510  1.0000
  H   H3275     1.0  0.89246  0.84764  0.13370  1.0000
  C   C1918     1.0  0.88402  0.87600  0.15523  1.0000
  S   S553      1.0  0.64616  0.78157  0.27944  1.0000
  H   H3276     1.0  0.76387  0.75567  0.25033  1.0000
  N   N137      1.0  0.67565  0.77447  0.22008  1.0000
  C   C1919     1.0  0.67952  0.77313  0.19875  1.0000
  C   C1920     1.0  0.66423  0.79423  0.22275  1.0000
  H   H3277     1.0  0.62909  0.98546  0.28341  1.0000
  C   C1921     1.0  0.69488  0.77136  0.22699  1.0000
  C   C1922     1.0  0.68834  0.75285  0.19348  1.0000
  H   H3278     1.0  0.76235  0.87322  0.25469  1.0000
  H   H3279     1.0  0.72176  0.76882  0.30475  1.0000
  H   H3280     1.0  0.61195  0.96226  0.30726  1.0000
  C   C1923     1.0  0.75453  0.88727  0.21827  1.0000
  H   H3281     1.0  0.76709  0.85467  0.24084  1.0000
  H   H3282     1.0  0.88602  0.86091  0.11188  1.0000
  H   H3283     1.0  0.95036  0.86836  0.20292  1.0000
  C   C1924     1.0  0.77302  0.86738  0.24272  1.0000
  C   C1925     1.0  0.78013  0.90000  0.22901  1.0000
  H   H3284     1.0  0.77036  0.90521  0.24185  1.0000
  H   H3285     1.0  0.79092  0.84311  0.21673  1.0000
  Fe  Fe274     1.0  0.62977  0.75672  0.29075  1.0000
  H   H3286     1.0  0.79804  0.85136  0.19141  1.0000
  C   C1926     1.0  0.78886  0.87491  0.20825  1.0000
  C   C1927     1.0  0.78738  0.85469  0.20448  1.0000
  H   H3287     1.0  0.68814  0.81111  0.21953  1.0000
  H   H3288     1.0  0.80827  0.80086  0.28108  1.0000
  C   C1928     1.0  0.78117  0.91732  0.21217  1.0000
  H   H3289     1.0  0.78755  0.88499  0.19437  1.0000
  H   H3290     1.0  0.84793  0.73851  0.10635  1.0000
  C   C1929     1.0  0.79069  0.75158  0.11909  1.0000
  H   H3291     1.0  0.68814  0.79002  0.24976  1.0000
  H   H3292     1.0  0.76159  0.75681  0.13693  1.0000
  H   H3293     1.0  0.85285  0.87030  0.12603  1.0000
  H   H3294     1.0  0.95444  0.85588  0.23765  1.0000
  H   H3295     1.0  0.77286  0.85418  0.20140  1.0000
  C   C1930     1.0  0.79201  0.86000  0.25112  1.0000
  H   H3296     1.0  0.61569  0.82886  0.29660  1.0000
  H   H3297     1.0  0.58180  0.77847  0.10673  1.0000
  C   C1931     1.0  0.63349  0.98135  0.29797  1.0000
  H   H3298     1.0  0.78543  0.79354  0.28255  1.0000
  H   H3299     1.0  0.98075  0.87324  0.16633  1.0000
  C   C1932     1.0  0.78382  0.75868  0.26931  1.0000
  H   H3300     1.0  0.88733  0.89295  0.09513  1.0000
  H   H3301     1.0  0.69062  0.75390  0.17746  1.0000
  H   H3302     1.0  0.55385  0.83762  0.30915  1.0000
  C   C1933     1.0  0.87395  0.89969  0.10387  1.0000
  H   H3303     1.0  0.86123  0.89394  0.10190  1.0000
  C   C1934     1.0  0.85489  0.85127  0.15314  1.0000
  C   C1935     1.0  0.85730  0.87093  0.13997  1.0000
  H   H3304     1.0  0.83200  0.77810  0.13915  1.0000
  H   H3305     1.0  0.79630  0.80753  0.26042  1.0000
  H   H3306     1.0  0.58095  0.76466  0.13035  1.0000
  C   C1936     1.0  0.81388  0.75182  0.24540  1.0000
  H   H3307     1.0  0.91927  0.86108  0.10570  1.0000
  H   H3308     1.0  0.78968  0.74931  0.28196  1.0000
  C   C1937     1.0  0.79077  0.78166  0.23930  1.0000
  H   H3309     1.0  0.84617  0.88217  0.14643  1.0000
  C   C1938     1.0  0.83196  0.74159  0.10673  1.0000
  H   H3310     1.0  0.87175  0.91546  0.09790  1.0000
  H   H3311     1.0  0.68902  0.94697  0.29655  1.0000
  C   C1939     1.0  0.87584  0.89713  0.12545  1.0000
  H   H3312     1.0  0.83959  0.84908  0.15471  1.0000
  H   H3313     1.0  0.49551  0.77013  0.30733  1.0000
  H   H3314     1.0  0.79590  0.75333  0.10323  1.0000
  C   C1940     1.0  0.57270  0.87730  0.30709  1.0000
  N   N138      1.0  0.79973  0.76726  0.25489  1.0000
  S   S554      1.0  0.82863  0.73979  0.31334  1.0000
  H   H3315     1.0  0.89831  0.88099  0.15231  1.0000
  H   H3316     1.0  0.87717  0.88719  0.18251  1.0000
  H   H3317     1.0  0.86298  0.90658  0.13226  1.0000
  H   H3318     1.0  0.56793  0.74088  0.14775  1.0000
  H   H3319     1.0  0.86407  0.83886  0.14676  1.0000
  H   H3320     1.0  0.88841  0.90390  0.12629  1.0000
  H   H3321     1.0  0.79178  0.84492  0.25901  1.0000
  H   H3322     1.0  0.70897  0.77174  0.25125  1.0000
  H   H3323     1.0  0.92103  0.85953  0.13094  1.0000
  H   H3324     1.0  0.85607  0.88393  0.17434  1.0000
  H   H3325     1.0  0.81449  0.76677  0.27883  1.0000
  H   H3326     1.0  0.85769  0.85085  0.16797  1.0000
  S   S555      1.0  0.55892  0.75298  0.31307  1.0000
  Fe  Fe275     1.0  0.98111  0.84239  0.14344  1.0000
  H   H3327     1.0  0.58399  0.75224  0.21596  1.0000
  H   H3328     1.0  0.66502  0.82523  0.21666  1.0000
  H   H3329     1.0  0.63812  0.74653  0.23435  1.0000
  H   H3330     1.0  0.67854  0.74203  0.19955  1.0000
  C   C1941     1.0  0.66044  0.80822  0.29287  1.0000
  N   N139      1.0  0.97547  0.88033  0.20525  1.0000
  Fe  Fe276     1.0  0.98324  0.79859  0.15563  1.0000
  H   H3331     1.0  0.79648  0.80643  0.21692  1.0000
  H   H3332     1.0  0.76141  0.74081  0.27362  1.0000
  H   H3333     1.0  0.78478  0.92968  0.21739  1.0000
  H   H3334     1.0  0.76721  0.92248  0.20675  1.0000
  H   H3335     1.0  0.79288  0.91379  0.19994  1.0000
  C   C1942     1.0  0.80485  0.79287  0.22381  1.0000
  C   C1943     1.0  0.57231  0.77033  0.11852  1.0000
  H   H3336     1.0  0.76327  0.76844  0.11239  1.0000
  C   C1944     1.0  0.50451  0.80242  0.27661  1.0000
  H   H3337     1.0  0.95698  0.89746  0.18519  1.0000
  H   H3338     1.0  0.94706  0.74127  0.18396  1.0000
  C   C1945     1.0  0.81042  0.77682  0.26568  1.0000
  C   C1946     1.0  0.96371  0.84906  0.22556  1.0000
  H   H3339     1.0  0.97293  0.85452  0.19482  1.0000
  H   H3340     1.0  0.82456  0.77994  0.25689  1.0000
  H   H3341     1.0  0.68035  0.76447  0.30109  1.0000
  C   C1947     1.0  0.66405  0.75922  0.23173  1.0000
  H   H3342     1.0  0.78364  0.77424  0.23098  1.0000
  C   C1948     1.0  0.93703  0.75582  0.13122  1.0000
  H   H3343     1.0  0.93647  0.88692  0.22647  1.0000
  H   H3344     1.0  0.79479  0.76411  0.12360  1.0000
  S   S556      1.0  0.58656  0.73673  0.18076  1.0000
  H   H3345     1.0  0.93441  0.75975  0.11640  1.0000
  S   S557      1.0  0.67512  0.73703  0.12471  1.0000
  C   C1949     1.0  0.76833  0.75476  0.12188  1.0000
  H   H3346     1.0  0.67221  0.82872  0.30384  1.0000
  H   H3347     1.0  0.50446  0.75237  0.13151  1.0000
  H   H3348     1.0  0.70620  0.78320  0.28881  1.0000
  S   S558      1.0  0.86715  0.98013  0.15937  1.0000
  C   C1950     1.0  0.77220  0.74666  0.26145  1.0000
  H   H3349     1.0  0.66120  0.97021  0.27075  1.0000
  H   H3350     1.0  0.76291  0.74294  0.11760  1.0000
  C   C1951     1.0  0.94416  0.74552  0.16926  1.0000
  H   H3351     1.0  0.69118  0.97532  0.30862  1.0000
  H   H3352     1.0  0.55963  0.78102  0.12346  1.0000
  H   H3353     1.0  0.53056  0.76732  0.11974  1.0000
  Fe  Fe277     1.0  0.59113  0.74291  0.30566  1.0000
  Fe  Fe278     1.0  0.85524  0.97903  0.13253  1.0000
  H   H3354     1.0  0.56011  0.76168  0.09732  1.0000
  C   C1952     1.0  0.67437  0.94892  0.29258  1.0000
  C   C1953     1.0  0.51608  0.74615  0.14038  1.0000
  N   N140      1.0  0.65445  0.98317  0.29686  1.0000
  C   C1954     1.0  0.98385  0.88747  0.16781  1.0000
  H   H3355     1.0  0.60063  0.73961  0.24432  1.0000
  C   C1955     1.0  0.60994  0.84261  0.30241  1.0000
  H   H3356     1.0  0.70272  0.74751  0.19796  1.0000
  H   H3357     1.0  0.51030  0.75000  0.15506  1.0000
  H   H3358     1.0  0.77301  0.77026  0.27560  1.0000
  Fe  Fe279     1.0  0.72242  0.83869  0.31292  1.0000
  C   C1956     1.0  0.56643  0.75411  0.11039  1.0000
  H   H3359     1.0  0.95677  0.83693  0.22390  1.0000
  Fe  Fe280     1.0  0.83670  0.97891  0.17499  1.0000
  H   H3360     1.0  0.71630  0.75898  0.28518  1.0000
  C   C1957     1.0  0.64462  0.75902  0.22536  1.0000
  N   N141      1.0  0.55256  0.74200  0.12407  1.0000
  C   C1958     1.0  0.57645  0.81282  0.30668  1.0000
  H   H3361     1.0  0.98969  0.78999  0.09714  1.0000
  C   C1959     1.0  0.66786  0.97032  0.28360  1.0000
  H   H3362     1.0  0.63398  0.77227  0.22790  1.0000
  H   H3363     1.0  0.51074  0.79953  0.26167  1.0000
  H   H3364     1.0  0.68154  0.97640  0.27773  1.0000
  H   H3365     1.0  0.83175  0.73949  0.26838  1.0000
  C   C1960     1.0  0.97256  0.89428  0.18675  1.0000
  H   H3366     1.0  0.80697  0.74571  0.23578  1.0000
  H   H3367     1.0  0.54641  0.74417  0.08335  1.0000
  C   C1961     1.0  0.62796  0.96107  0.30569  1.0000
  H   H3368     1.0  0.64633  0.75710  0.21002  1.0000
  C   C1962     1.0  0.66232  0.81831  0.30721  1.0000
  H   H3369     1.0  0.62301  0.84838  0.30357  1.0000
  H   H3370     1.0  0.97458  0.90354  0.22114  1.0000
  C   C1963     1.0  0.53726  0.73660  0.09588  1.0000
  S   S559      1.0  0.98998  0.81733  0.12650  1.0000
  H   H3371     1.0  0.69620  0.91793  0.33740  1.0000
  S   S560      1.0  0.74192  0.82720  0.33521  1.0000
  H   H3372     1.0  0.50036  0.87454  0.43402  1.0000
  S   S561      1.0  0.70333  0.81279  0.36392  1.0000
  H   H3373     1.0  0.51127  0.88276  0.40971  1.0000
  Fe  Fe281     1.0  0.71642  0.84014  0.35581  1.0000
  S   S562      1.0  0.71466  0.85694  0.38002  1.0000
  Fe  Fe282     1.0  0.72684  0.80115  0.34096  1.0000
  H   H3374     1.0  0.55081  0.86368  0.32741  1.0000
  H   H3375     1.0  0.60256  0.87927  0.34001  1.0000
  S   S563      1.0  0.65468  0.82647  0.34405  1.0000
  H   H3376     1.0  0.69042  0.88274  0.40506  1.0000
  Fe  Fe283     1.0  0.64292  0.95605  0.37799  1.0000
  S   S564      1.0  0.62456  0.94704  0.40677  1.0000
  S   S565      1.0  0.67125  0.94333  0.36119  1.0000
  Fe  Fe284     1.0  0.60018  0.95197  0.38928  1.0000
  S   S566      1.0  0.58130  0.92788  0.39499  1.0000
  H   H3377     1.0  0.64227  0.84404  0.38406  1.0000
  C   C1964     1.0  0.49085  0.91212  0.38680  1.0000
  S   S567      1.0  0.61907  0.95945  0.36068  1.0000
  C   C1965     1.0  0.50485  0.88745  0.42382  1.0000
  H   H3378     1.0  0.67238  0.91638  0.39790  1.0000
  Fe  Fe285     1.0  0.51009  0.87566  0.35346  1.0000
  H   H3379     1.0  0.60175  0.84763  0.33218  1.0000
  S   S568      1.0  0.53126  0.89777  0.34460  1.0000
  H   H3380     1.0  0.50042  0.95772  0.38910  1.0000
  S   S569      1.0  0.52855  0.80647  0.37746  1.0000
  S   S570      1.0  0.51349  0.84960  0.33877  1.0000
  H   H3381     1.0  0.71350  0.88433  0.34444  1.0000
  C   C1966     1.0  0.56692  0.86225  0.32496  1.0000
  H   H3382     1.0  0.52507  0.94990  0.39232  1.0000
  C   C1967     1.0  0.53710  0.79202  0.35925  1.0000
  C   C1968     1.0  0.52622  0.79265  0.34477  1.0000
  C   C1969     1.0  0.53304  0.78056  0.33066  1.0000
  C   C1970     1.0  0.55103  0.76832  0.33059  1.0000
  C   C1971     1.0  0.56218  0.76817  0.34472  1.0000
  C   C1972     1.0  0.55506  0.77975  0.35924  1.0000
  H   H3383     1.0  0.51236  0.80214  0.34471  1.0000
  H   H3384     1.0  0.51613  0.89212  0.42979  1.0000
  H   H3385     1.0  0.61586  0.88529  0.42043  1.0000
  H   H3386     1.0  0.62721  0.90364  0.40404  1.0000
  H   H3387     1.0  0.62033  0.91352  0.36556  1.0000
  C   C1973     1.0  0.56978  0.83551  0.36202  1.0000
  H   H3388     1.0  0.64287  0.90974  0.37345  1.0000
  C   C1974     1.0  0.56799  0.91951  0.38037  1.0000
  C   C1975     1.0  0.55895  0.90311  0.38821  1.0000
  C   C1976     1.0  0.54788  0.89613  0.37745  1.0000
  C   C1977     1.0  0.54559  0.90554  0.35866  1.0000
  C   C1978     1.0  0.55499  0.92168  0.35066  1.0000
  C   C1979     1.0  0.56608  0.92865  0.36141  1.0000
  H   H3389     1.0  0.56041  0.89580  0.40279  1.0000
  H   H3390     1.0  0.54108  0.88350  0.38374  1.0000
  H   H3391     1.0  0.55344  0.92905  0.33612  1.0000
  H   H3392     1.0  0.57294  0.94125  0.35511  1.0000
  H   H3393     1.0  0.50577  0.93312  0.42001  1.0000
  C   C1980     1.0  0.79731  0.76808  0.32114  1.0000
  H   H3394     1.0  0.66782  0.84204  0.37672  1.0000
  C   C1981     1.0  0.77005  0.74323  0.32774  1.0000
  H   H3395     1.0  0.66295  0.87177  0.35858  1.0000
  C   C1982     1.0  0.65369  0.87220  0.37308  1.0000
  S   S571      1.0  0.70866  0.81209  0.31763  1.0000
  C   C1983     1.0  0.51213  0.94495  0.38960  1.0000
  S   S572      1.0  0.69847  0.85401  0.33276  1.0000
  H   H3396     1.0  0.60479  0.90093  0.34767  1.0000
  C   C1984     1.0  0.63496  0.90435  0.36413  1.0000
  Fe  Fe286     1.0  0.68672  0.82625  0.33983  1.0000
  C   C1985     1.0  0.78127  0.76075  0.38553  1.0000
  H   H3397     1.0  0.53989  0.74060  0.38751  1.0000
  H   H3398     1.0  0.63705  0.90754  0.33232  1.0000
  S   S573      1.0  0.73980  0.76928  0.34226  1.0000
  H   H3399     1.0  0.58479  0.83748  0.36218  1.0000
  H   H3400     1.0  0.60560  0.89017  0.38889  1.0000
  C   C1986     1.0  0.67948  0.98258  0.31879  1.0000
  C   C1987     1.0  0.70280  0.88110  0.37514  1.0000
  C   C1988     1.0  0.70433  0.89111  0.35610  1.0000
  C   C1989     1.0  0.69460  0.91019  0.35215  1.0000
  C   C1990     1.0  0.68286  0.91928  0.36713  1.0000
  C   C1991     1.0  0.68119  0.90933  0.38623  1.0000
  C   C1992     1.0  0.69149  0.89037  0.39027  1.0000
  C   C1993     1.0  0.76395  0.76240  0.33112  1.0000
  H   H3401     1.0  0.66029  0.90106  0.34064  1.0000
  H   H3402     1.0  0.65745  0.85010  0.39895  1.0000
  H   H3403     1.0  0.57759  0.97671  0.55717  1.0000
  C   C1994     1.0  0.65487  0.85103  0.38391  1.0000
  C   C1995     1.0  0.56775  0.82935  0.34301  1.0000
  H   H3404     1.0  0.66098  0.87993  0.38087  1.0000
  Fe  Fe287     1.0  0.50733  0.83316  0.36886  1.0000
  C   C1996     1.0  0.77754  0.77502  0.32721  1.0000
  C   C1997     1.0  0.66550  0.74950  0.34750  1.0000
  H   H3405     1.0  0.78894  0.74768  0.35984  1.0000
  H   H3406     1.0  0.51646  0.94004  0.37528  1.0000
  C   C1998     1.0  0.80356  0.74853  0.31903  1.0000
  S   S574      1.0  0.59162  0.98337  0.39334  1.0000
  H   H3407     1.0  0.77298  0.78986  0.32971  1.0000
  H   H3408     1.0  0.77142  0.77340  0.37899  1.0000
  H   H3409     1.0  0.66422  0.73991  0.32094  1.0000
  H   H3410     1.0  0.61724  0.86614  0.39531  1.0000
  C   C1999     1.0  0.64546  0.90949  0.34312  1.0000
  H   H3411     1.0  0.57473  0.81386  0.34390  1.0000
  H   H3412     1.0  0.56354  0.77937  0.37037  1.0000
  H   H3413     1.0  0.70540  0.75066  0.34289  1.0000
  H   H3414     1.0  0.59404  0.88201  0.36476  1.0000
  H   H3415     1.0  0.63623  0.87466  0.34294  1.0000
  H   H3416     1.0  0.65801  0.96404  0.32439  1.0000
  H   H3417     1.0  0.55939  0.84887  0.36485  1.0000
  H   H3418     1.0  0.56594  0.82394  0.37438  1.0000
  S   S575      1.0  0.61353  0.74887  0.32076  1.0000
  H   H3419     1.0  0.62987  0.79933  0.34436  1.0000
  C   C2000     1.0  0.65919  0.97910  0.31715  1.0000
  H   H3420     1.0  0.57468  0.73830  0.37797  1.0000
  H   H3421     1.0  0.57608  0.75889  0.34470  1.0000
  C   C2001     1.0  0.62585  0.87484  0.35687  1.0000
  H   H3422     1.0  0.64709  0.92503  0.34039  1.0000
  H   H3423     1.0  0.62459  0.85931  0.36221  1.0000
  H   H3424     1.0  0.67467  0.74707  0.35891  1.0000
  H   H3425     1.0  0.64090  0.87966  0.41024  1.0000
  H   H3426     1.0  0.57048  0.86748  0.33734  1.0000
  N   N142      1.0  0.63361  0.88315  0.37112  1.0000
  C   C2002     1.0  0.62669  0.88785  0.40702  1.0000
  C   C2003     1.0  0.60569  0.88504  0.35223  1.0000
  C   C2004     1.0  0.62009  0.88129  0.39033  1.0000
  H   H3427     1.0  0.55203  0.82930  0.34360  1.0000
  H   H3428     1.0  0.52006  0.91683  0.40477  1.0000
  C   C2005     1.0  0.63828  0.80194  0.32995  1.0000
  H   H3429     1.0  0.66227  0.76521  0.34180  1.0000
  H   H3430     1.0  0.62037  0.97622  0.51189  1.0000
  C   C2006     1.0  0.65138  0.81500  0.32578  1.0000
  Fe  Fe288     1.0  0.61746  0.97925  0.40862  1.0000
  N   N143      1.0  0.57602  0.84135  0.32431  1.0000
  H   H3431     1.0  0.58597  0.98151  0.50189  1.0000
  H   H3432     1.0  0.60658  0.97521  0.48406  1.0000
  H   H3433     1.0  0.68753  0.77224  0.32045  1.0000
  H   H3434     1.0  0.77533  0.75781  0.40121  1.0000
  H   H3435     1.0  0.65138  0.74494  0.35462  1.0000
  S   S576      1.0  0.50559  0.85879  0.38347  1.0000
  C   C2007     1.0  0.50693  0.92816  0.40586  1.0000
  H   H3436     1.0  0.58370  0.97197  0.53291  1.0000
  C   C2008     1.0  0.63628  0.79200  0.31557  1.0000
  H   H3437     1.0  0.49468  0.92261  0.35563  1.0000
  C   C2009     1.0  0.70890  0.73883  0.33396  1.0000
  H   H3438     1.0  0.61092  0.98129  0.54370  1.0000
  H   H3439     1.0  0.62592  0.78228  0.31878  1.0000
  H   H3440     1.0  0.50595  0.90480  0.38249  1.0000
  H   H3441     1.0  0.80787  0.77771  0.31884  1.0000
  H   H3442     1.0  0.60405  0.73713  0.38533  1.0000
  H   H3443     1.0  0.68241  0.97663  0.33373  1.0000
  C   C2010     1.0  0.58105  0.98365  0.54178  1.0000
  C   C2011     1.0  0.78204  0.74346  0.37513  1.0000
  H   H3444     1.0  0.52443  0.78076  0.31971  1.0000
  H   H3445     1.0  0.63175  0.95492  0.32019  1.0000
  H   H3446     1.0  0.60323  0.82335  0.32891  1.0000
  H   H3447     1.0  0.56749  0.80384  0.31811  1.0000
  C   C2012     1.0  0.59777  0.83863  0.32294  1.0000
  C   C2013     1.0  0.67465  0.73735  0.33131  1.0000
  H   H3448     1.0  0.72344  0.74087  0.32546  1.0000
  H   H3449     1.0  0.76665  0.74292  0.37466  1.0000
  N   N144      1.0  0.69443  0.74102  0.32054  1.0000
  H   H3450     1.0  0.79564  0.76542  0.38327  1.0000
  H   H3451     1.0  0.81332  0.73736  0.39253  1.0000
  C   C2014     1.0  0.78976  0.73631  0.32172  1.0000
  H   H3452     1.0  0.55504  0.96389  0.71057  1.0000
  H   H3453     1.0  0.54755  0.96667  0.73521  1.0000
  H   H3454     1.0  0.54436  0.97683  0.67969  1.0000
  C   C2015     1.0  0.52648  0.98206  0.71677  1.0000
  H   H3455     1.0  0.51700  0.98134  0.73126  1.0000
  C   C2016     1.0  0.54769  0.97467  0.72014  1.0000
  H   H3456     1.0  0.52268  0.97097  0.70972  1.0000
