data_image0
_chemical_formula_structural       HCH2CH6S3H7CHCH2CH2S2FeSFeSFeSHSFe2S2FeS2FeS2FeSFeS3FeS2FeS2FeSFeS3C6H4C6H4C6H5C2H2C3H2CH4C3H3C2SH2C2H3FeC3H4CH2C3H2NC6H3SH2C2NC8H14NH5NC8H20SH4CH3SH3CHCHC5HC2HC3SC2HNC3HCH4CHCH3CH6SH9C2H2FeCH5CH3NCHCSC2HSCHCS2CHCH2C3HCH2CSH2SHSCH2Fe2HCH3CH2NCH2SH2CH4CHSFeH3CFeH2CHSC2H3SH4CFeH4CNC8H20NC8H14CHSHC2HCH2CH3CHCFeC2HFeH3C3SCHC2H4CH2CH3S2HCH3CSH2SCSC2SC2H3CNH3C2H2CH2CHCHCH5C2H2C2HC2HC2H4CHC3HC2HC3H2CH3SH4CH4NCH5NC2H4C2HCHNCH6FeS2FeH3CFeS3HSHSH3FeHSH7CH4CHSHCH14C2H2CH2FeC3H2C2N2FeCH4C3SH2CHC2HC2HCH3CH3CH2C3H3CH3CH3FeHC3HCHCHC2H2C2NCH4CHC4H7C2H3CHC2HC2HSNH2CH4CH3CHSH2C2NSH4SHFeS2Fe2SHSHSFeS2FeS2FeS2FeSFeS3H3FeSFeS3CH3SH2NHSH2SHSHCHSCH4FeH4C6HNH2CH2C6H5C6H4C6H4CHCH3FeH2C2SC3H2CH2C6H4CH4C2H5Fe2C2HSH2CH2C3H4CSCH2CH5CH2C3H2CH7CHC2H2NC8H9CH10NH3CFeHNH2S2HFeHCH7CH3C2H8CHCH2SHCH4NC4H2CH5CH2C2FeHCH2CH2CS2HCNHC2HCH3C2H2NCSH3CHCHC2NFeHCHCHC2H2CSHCHC2H5C5H5C2H2C2H4SCHCH2CH14C3FeH5C4H5C2SCH2C3H6S2H3SFeS2HSFeSCS2FeSFeNSFeS2FeSH2S2HFeSFeHSHCH5C2FeSC6H4C2HCH3CHC7H6CHSH2SHFeC6H4CH6C2HCH3C2HCH3CH2CHC3HCHC6HCH2NHC2HCH2CH3CHCSHCH2CSHCHFeC2HNH2FeH2CH6SH3CNC8H21CHCH3SH2CHCH3CH2CHSHC3HC2NC5HC2H11CH8NC8H22SH2C3FeHC3H6CHCH2C2HCH4C3H3CNC8H17SH2C2H3CHC2NHC7HNHCH4SHS2H3CH3C2NCH2CFeSH2CHCFeH2SH2CHCH2SH3C2FeHSFeH3C3FeS2HCH2S2C3SFeHC2NFeH5CHS2H2SC3HFeCH2FeHFeSHCS3CHSCH4C2H3CHCHFeCH7CHC2H3C2HSH4CHC2HFeHCFeSHFeS2FeSFeCSH2CHCHFeCSH7FeS2FeSHFeSFeS2FeS2FeS2FeSFeS3FeSHFeS2FeSFeS3C6H5SC2HC6H5C6H6C2H2CHFeCHNCH2SFeH2C7H4CHCHCH3CHSH4CSH3NH4CH2SHCHCHCH2SCNC8H20CH3NHCH8NH8SC3HC3H2CH6CH2CH2C2HC4NC8H20NH2C2H3C4H3CH4C2H7C5H8FeH3SHC2H4CH4C3HCH2CHCHCH5NC5HC2H8CH2CFeCH3CH3CHS2C2SHFeH2SH2C2H2NH6CH6SHSCHCHC3NH3CH2NH2CH2SC2HCHC2HC2HCHCNH2C2HSH4FeCFeHC3S2H3CHFeS2C4H4CHSH3CH3CH4C2H5CFeHCH2SHC2H2SC2H3CH2C2H5CH3CFeHC3H2CHFeSHFeS2FeSFeS4NCHC3H2SFeS2FeS2FeHFeS3H4C2HC3HCHC2H2CH2CH4C3H4NSCH3C2HC6H5C3HCNFeHCHCHCHC3NH4CNHCHNCHCH2C2HCHSCH3CH5C2H5CH9C2SC2H5NH6C2H2CH2C2HCHCH2C2H2C3H3SH2CH3CH2C2SCHC2H2CH5C2H5C4HC2HCH6C5H15CSCH2SHCHNH2C2HCH4FeH2C2FeHCHC2HCH3CH2CH2C2HCSHCH4CHS2FeS2FeS2FeSFeS3H3FeHSC2H6SH2CH3NHNHCH9NH3CH2C2H2NSCHCH2CHCSHCSH2FeSC7H4C6HCH6CHC6H4C6H7C2H3C4H10SCH2CHSH2SH4Fe2SHC3HCH10C2H2C2FeCHCHNH2SCHCHC2HCH5CH4CH2C4HCH2FeCHCH2CHCH5CH3CH5CHCHSC2H3CHNH4NH7C2H4FeS2HFeSHSHC2HC2H3CHCSH2C2HCH5C2FeSH6FeSC2HCHC3H2CH3C5H3S2H2CH3C3FeHSH2CH5FeH3NH4SHC6H2SHCH2C3SH3C4SH4CNH2CH2CNHCHC2H4NHCHCHSNH2CH5C2H7CH4CSFeCFeCS2HCH8CS2H2FeSCHNH3FeS2FeS2FeSFeS4HFeSHCSCFeSHSHFeS2FeS2FeSC2S2FeS2FeS2FeSFeHS2C3HCH3CH3CH3C6H4FeH3CH2C6H6CNC2H2SH3C5HFeH2C6H4C2HNHCHCH4CHC6H4CHC2HCH4C3H2CH5CHCH3CHCHCSHCH9C4H2CH2FeH3CH3CHCHC2H3CH2CH2CHSH4CHCHCH8C2HCH3NHCHCNC8H20NFeHC5HNH2C2H2SHCH8SCH2CH2CHCH2C2H3CH3FeC2HCHSHC3H3CH2SC2H2C2H3NC7H10CHNH4NC4H2CHCH2CHC3HCNH2CH5C2HSH2C2H4CH9CSHC2H2C2S2C2H2SHSCH2C3H3NHS2FeS2FeSFeSFeS3H2SH2CH4CH5CH4CHCH3NFeHCH2CNC6H4CHC2SHC7H5CH2CHNHCSC3HCH4C2H3C2H3C4FeC2H2SNH5CH4CH2CHCH2CHCHFeCSCHC2H4NC8H9CH10CHSH2CH5C2SCH6C2H2SHCHCHC2H2CH2CH4FeHCHC2NHCH3FeCHC2H3C3SHCHCHSH4CSFeS2FeS2FeCFeS3FeS2H2Fe2S2FeS2FeSHFeSFeS3HSH4C2HC6H4C6H4C6H4C6H8C2H4CSH2CH4CNHC3HCH3C2H2CHSH2CH6CHCNHCNHCHC2HCH2CHNC8H6FeH7CHCH3CH2C3FeH6SH2C2H3C3H4C2H3NH2FeH5CFeCH6SC6H2SH4SHCH3NHSHCH2CHC2HC2HC2H5CH2CH6CH6C2H6C4H3CNHSHFeCH6CH2CH2CH2SCHCH2CH2NC2SHCFeSH3CHNC2SHSH2CSHN2S4C2H4SHFeS2FeS2FeSFeS4HSCHCFeSHCFeHCHCFeSHCHCFeH3SCHSC6HCH2CH2C2HCHCHC6H5C2HCH2C6H4C2HC3HSHSHFeH3CHCHCHCHC8H7C6H4C2HSH2NH2SNHSFeSCH5FeSHSFe2C2H3CH3NC8H26CHSHS2NH4SHCHCHC3H11CH2CHCFeHCFeCHSCH2CH4C2HC4HCH4FeCH3C2H3C3FeHC3HCHCSHCHC3H3CH2Fe2HCHCH5C2HCFeH6NH2C2H3SH11CHC2HSH9C2SH2SH5SC4HC2H5CHSCH3FeSFeH3FeCSH2SHFeSFeSH3C2HCH2CHFeHSFeH2NH3SHFeS2HCFeHCSC2H5CH2NCHSH4CH2SCH2C6H4CH2SC4H2FeHCSCHCHC3H2CH2C8H4CHCSH2CHCH3C2H4C2H3CH2CH10C2FeH3CHSHSH3SCH2SH5CHC2S2CHCH3CH3CH2CSC3NHSC2HCHC2H2CH4C2H5CSHCH4CH3C4H3CH4CN2H4CHCHCFeS2CSFeHFeS3CHSCFeS2Fe2S2H2FeS2FeS2FeSFeS3CH2CH2C5H2C6H5C5H4CHCHFeCH2C6H4C6H3NC7H15CHCH3NC8H6FeCH6NH4CSC3HSH2CSH3C4HCH2CSHSHCH2SH4NC8H20C3SFeH2C2H3SH3SCH7CHCHC3H6SHCSHC2NHFeCH7CH4CHCHC2FeCSHNH2CS2H2S2HSFeH4FeH3CSH3SC2HFeHCHSH2CSCHCH3FeH4FeCH3CHCHCH7CNFeH2CHNCNH4C3H3C2HCSH2CHFeH6C2H3CH3NCH3CH5C3HC2H2S2H2FeSH4FeS2FeS2FeSFeS3FeS2H4FeSHSFeS2FeS2H5C3HC3H2C4HC6H3C6H4C6H4C6H4NH4C2NFeHNH2SH4CNHCHCHCHCH2CNCHCH4NC8H20FeH3CH2C4H4C2H2C2HCHCHCSH4SH3CH5CH3CSH2CSC3H2C2H2C2SNH4FeHC2H2FeCHCH7CH4CH3CH3C3H2SC3HC2HSCH3CH6CHCHCHCH5C2H2CHNCH2CH4FeHC2HFeH4SFeH2SH4CFeC2H3FeSHCSNC2H2CH3C3H5C2FeSC2HC3S2C2HCFeS2FeHCHSHFeS2FeS2FeSFeS5FeSFeS2FeS2FeSFeS4CH3SH3CHC6H4C6H4C6H4C7H4C2H2C2HCH2C6HCH2C6H4NH10C3H5C6H4SFeNC7SH5SC2FeHSH4C2HC2HCH5FeHCHFeH8C2HSC3H2CHSH5C2SHSHC2NHCHCHCFeSH4CHSHSCH5CNC7H16CNC8H20C2HCH2CHCH10FeHSHSCH3CNC3H2SH6C2H2SHSHFeHNH4FeCH2CH3C4FeH2CH3CH2CH9CH3CHC2HFeSH7CH3CHC3HFeCH2C2H4CHCHC2H2CSHCH2SFeCH5FeH6SHCH2CH2SHNHC5HC5H2FeSCHCH5SHNCH5SCHCHNFe2CH3NH2CSHCHCH3SHFeSHFeC4H2CHCH2C2H2SFeCFeCNFeH3SHC2SH3CH3SHSHC2H4FeHCHSHCFeS2FeS2FeSFeS3FeS2FeS2FeSFeS3FeS2FeS2FeSFeS3C2HCHCH3CSH5CH2FeCH2CH4CH2CHCHC2HC4H2C3HC2H2C6H4CHC3H4C7H3C7H5C4H5C6H4C6H4C3H7CH2NH6CHCNC7H14C2H5NC7H16NHCNC2HCH3CH8NCHCH2CHSCH6CHC3HSH7C5HCH2SCH4SCH2CH4CH3CH3CH3CHNH3C2H3CHCHC3HCH4CH2CH8CHC3HCHCH4C2NH2CHNCH9NSHCHCH3SHCH3CH3C3FeC2HCH2C2HCH3CH6CHSCHCSC2HCH2SH7CH5NCH2CH3SHC2H2C2HFeCH3C2HS3FeH2SH4FeCH2CH3CFeCHCSHC2HCHC2H4CFeH3NH5NH3C2H9C2H3CHCHSH6CH2FeH5C2HCH2FeCHSH5FeS2FeS2FeCFeS3HFeH2FeS2FeC2HSHC2FeSFeS3HFeHSFeSHFeSCSH2SH3C6HCH8C4HFeHCHCH2C2HC3H4CH3SCSH2SC6H5CHC6H3C6H5SHNHCH3C2HSH2NH8CHC3H3CSCHC3H9CH5CH3S2HCHCHNC5HC2H11CH3CH2C2NCH7CH3CH2CHCHFeH5CH2CHSH2SHSCSHFeH2C2H5CSHCHNH3NCH4SFeCHCHC2HC2H9C2H2CH2C2H5CH2C2FeH3CH2SH2C2H7CH4NCH4CHFeNSFeCSH2FeSCSH3C4H2SCH2C3HCH3C2HFeS2FeS2FeSFeS3HFeS2FeCHFeS2H3FeSHSH2CH2C6H6C2H5SHCNCHC6H3CH3SC5H7SCH2NCH2C6H7C2H2CH4CHFeHS2H3CH5SCH3FeHCSCHSHCHC4NCH3C3FeH3CHFeH7NH3FeHCH2CNCH5CH3C4HSHCH3SCH3C2H3CH3SC2H3CHCH5CH6C3H5CHCNC4HCH3SC3H2CH5CH2CH2C2H5C2H5SC2HSH2NH3CHFeS2CFeS3HSC2H2S2FeS2FeSFeS2FeS2FeS2FeSFeS3CFeS2FeS2FeSFeS3FeS2FeS2FeSFeS3FeHSHC7HCH2C6H4CHC4FeCH4C6H4C6H4C6H2C7H4CH3CHC6H4SC6H5SH8C3H4NC8H20CH3FeCH2CH3NHCFeHNH2C3H9Fe2HCH3C2SH2C2HCH5C2HNHCH2C2HCH2C2SH2CH3NC8H9CH9NC4HC3H4CH3CSCHCH2C2H3CH2C2HNC8H20NH3C2H3CH2C3H5CH2CHCHCH6NC8H29C2S2H3FeH2NCHSH11SH3C2H2CH2NCHFeHSHCH2C2H2CH4SH6CHC3H4CH2C2HCH2CHCH3CH2CH2CH4NCH2C2HSCSCH3SCH6C2HCH3CHSCH2CSH2NHC2H2CH5FeS2FeHFeCFeCS2CSH2SHFeSFeSHSHS2FeS2FeS2FeSHFeCFeHS2H2NH6CHCH5S2FeHCH3FeHC3H6C3H2CH2CH2C6H5CH5C9H3NH2C2HC7H4C6H7CHCHCH2CNCHC2HCH2C2HCH3SHC3HCH3FeCH3CH5C2NH2C3SH2CFeH2CH6FeHC2HCHNC2HSCNC2SHSH8C2HCH2CHC3HCH3C2SH2SNHC2HSH2CH2C2HCHNC8H16CH3SH4SH6C3H2SNH2CH4NCHC2H3CH4CH2SH3SHCH2C2HFeH2FeSHCFeHSH2CH3C2H6CH6CH2CSHSC4H2CH4C3H5C3HCHSC2HSFeS2H2CH2SHFeHCSCH3SH3FeCH2C2SFeH3FeH4NHC3HSHSHCH2FeCHSH6CHC2HFeH2
_chemical_formula_sum              "H4608 C2688 S768 Fe384 N192"
_cell_length_a       75.9023
_cell_length_b       75.6736
_cell_length_c       75.7076
_cell_angle_alpha    74.6536
_cell_angle_beta     74.6447
_cell_angle_gamma    74.5765

_space_group_name_H-M_alt    "P 1"
_space_group_IT_number       1

loop_
  _space_group_symop_operation_xyz
  'x, y, z'

loop_
  _atom_site_type_symbol
  _atom_site_label
  _atom_site_symmetry_multiplicity
  _atom_site_fract_x
  _atom_site_fract_y
  _atom_site_fract_z
  _atom_site_occupancy
  H   H1        1.0  0.07910  0.04680  0.46986  1.0000
  C   C1        1.0  0.07744  0.00840  0.47217  1.0000
  H   H2        1.0  0.11404  0.98931  0.46584  1.0000
  H   H3        1.0  0.10535  0.02225  0.47747  1.0000
  C   C2        1.0  0.05859  0.02162  0.46895  1.0000
  H   H4        1.0  0.05376  0.03331  0.47638  1.0000
  H   H5        1.0  0.05989  0.02812  0.45380  1.0000
  H   H6        1.0  0.08851  0.01276  0.45999  1.0000
  H   H7        1.0  0.07634  0.99432  0.47113  1.0000
  H   H8        1.0  0.99585  0.07506  0.47229  1.0000
  H   H9        1.0  0.04739  0.01359  0.47229  1.0000
  S   S1        1.0  0.99262  0.04258  0.42173  1.0000
  S   S2        1.0  0.99201  0.99386  0.41241  1.0000
  S   S3        1.0  0.00446  0.03445  0.47311  1.0000
  H   H10       1.0  0.28688  0.16740  0.71148  1.0000
  H   H11       1.0  0.16826  0.19730  0.70202  1.0000
  H   H12       1.0  0.31154  0.14315  0.81987  1.0000
  H   H13       1.0  0.16661  0.06549  0.61017  1.0000
  H   H14       1.0  0.02631  0.99729  0.63509  1.0000
  H   H15       1.0  0.26450  0.01033  0.69924  1.0000
  H   H16       1.0  0.28867  0.04075  0.80624  1.0000
  C   C3        1.0  0.14077  0.01542  0.50955  1.0000
  H   H17       1.0  0.10755  0.98417  0.54314  1.0000
  C   C4        1.0  0.30761  0.18719  0.65707  1.0000
  H   H18       1.0  0.08017  0.18734  0.89138  1.0000
  H   H19       1.0  0.00497  0.09299  0.49050  1.0000
  C   C5        1.0  0.15739  0.22735  0.87152  1.0000
  H   H20       1.0  0.04292  0.99436  0.52158  1.0000
  H   H21       1.0  0.05015  0.22936  0.85443  1.0000
  S   S4        1.0  0.28080  0.06655  0.74074  1.0000
  S   S5        1.0  0.23795  0.09019  0.75352  1.0000
  Fe  Fe1       1.0  0.26636  0.08832  0.75768  1.0000
  S   S6        1.0  0.27825  0.11387  0.75068  1.0000
  Fe  Fe2       1.0  0.23613  0.06732  0.77911  1.0000
  S   S7        1.0  0.21024  0.06624  0.80155  1.0000
  Fe  Fe3       1.0  0.25251  0.02467  0.59386  1.0000
  S   S8        1.0  0.23726  0.03995  0.61729  1.0000
  H   H22       1.0  0.28631  0.13763  0.60692  1.0000
  S   S9        1.0  0.27662  0.05067  0.61667  1.0000
  Fe  Fe4       1.0  0.26222  0.02680  0.63035  1.0000
  Fe  Fe5       1.0  0.25316  0.06253  0.60157  1.0000
  S   S10       1.0  0.24212  0.09372  0.59855  1.0000
  S   S11       1.0  0.26668  0.04863  0.57707  1.0000
  Fe  Fe6       1.0  0.11976  0.19465  0.78848  1.0000
  S   S12       1.0  0.14552  0.17301  0.79428  1.0000
  S   S13       1.0  0.09638  0.21172  0.80640  1.0000
  Fe  Fe7       1.0  0.12880  0.19373  0.74705  1.0000
  S   S14       1.0  0.15552  0.17247  0.74860  1.0000
  S   S15       1.0  0.11874  0.20814  0.72045  1.0000
  Fe  Fe8       1.0  0.13913  0.15822  0.77529  1.0000
  S   S16       1.0  0.13974  0.12748  0.78035  1.0000
  Fe  Fe9       1.0  0.16003  0.18882  0.76717  1.0000
  S   S17       1.0  0.18767  0.19692  0.76126  1.0000
  S   S18       1.0  0.11182  0.17826  0.77217  1.0000
  S   S19       1.0  0.13494  0.21164  0.76292  1.0000
  Fe  Fe10      1.0  0.15076  0.12681  0.64947  1.0000
  S   S20       1.0  0.15557  0.13998  0.61888  1.0000
  S   S21       1.0  0.17188  0.10448  0.66317  1.0000
  Fe  Fe11      1.0  0.11300  0.15181  0.65780  1.0000
  S   S22       1.0  0.11455  0.16761  0.62784  1.0000
  S   S23       1.0  0.09132  0.15726  0.68353  1.0000
  Fe  Fe12      1.0  0.12575  0.13888  0.62082  1.0000
  S   S24       1.0  0.12249  0.12899  0.59607  1.0000
  Fe  Fe13      1.0  0.14423  0.16714  0.62849  1.0000
  S   S25       1.0  0.15897  0.19146  0.61634  1.0000
  S   S26       1.0  0.12206  0.12319  0.65084  1.0000
  S   S27       1.0  0.14146  0.15389  0.65894  1.0000
  C   C6        1.0  0.11121  0.19367  0.71050  1.0000
  C   C7        1.0  0.10856  0.17579  0.72040  1.0000
  C   C8        1.0  0.10206  0.16472  0.71226  1.0000
  C   C9        1.0  0.09888  0.17124  0.69400  1.0000
  C   C10       1.0  0.10193  0.18893  0.68401  1.0000
  C   C11       1.0  0.10768  0.20028  0.69240  1.0000
  H   H23       1.0  0.11128  0.17056  0.73437  1.0000
  H   H24       1.0  0.09974  0.15102  0.71998  1.0000
  H   H25       1.0  0.09954  0.19398  0.66989  1.0000
  H   H26       1.0  0.10951  0.21413  0.68472  1.0000
  C   C12       1.0  0.22464  0.09789  0.61823  1.0000
  C   C13       1.0  0.21262  0.11546  0.61804  1.0000
  C   C14       1.0  0.19712  0.11796  0.63278  1.0000
  C   C15       1.0  0.19341  0.10279  0.64740  1.0000
  C   C16       1.0  0.20605  0.08558  0.64815  1.0000
  C   C17       1.0  0.22164  0.08319  0.63355  1.0000
  H   H27       1.0  0.21476  0.12691  0.60620  1.0000
  H   H28       1.0  0.18782  0.13153  0.63262  1.0000
  H   H29       1.0  0.20333  0.07382  0.65950  1.0000
  H   H30       1.0  0.23098  0.06975  0.63382  1.0000
  C   C18       1.0  0.19107  0.08372  0.79530  1.0000
  C   C19       1.0  0.19274  0.10234  0.78731  1.0000
  C   C20       1.0  0.17696  0.11614  0.78308  1.0000
  C   C21       1.0  0.15971  0.11113  0.78624  1.0000
  C   C22       1.0  0.15823  0.09248  0.79389  1.0000
  C   C23       1.0  0.17375  0.07891  0.79871  1.0000
  H   H31       1.0  0.20605  0.10619  0.78489  1.0000
  H   H32       1.0  0.17812  0.13057  0.77735  1.0000
  H   H33       1.0  0.14494  0.08855  0.79636  1.0000
  H   H34       1.0  0.17236  0.06459  0.80490  1.0000
  H   H35       1.0  0.25024  0.05373  0.65278  1.0000
  C   C24       1.0  0.28099  0.10578  0.78726  1.0000
  C   C25       1.0  0.28939  0.11207  0.76862  1.0000
  H   H36       1.0  0.31696  0.05562  0.77144  1.0000
  H   H37       1.0  0.26710  0.10298  0.79070  1.0000
  C   C26       1.0  0.06672  0.00720  0.50687  1.0000
  C   C27       1.0  0.18576  0.20680  0.62159  1.0000
  C   C28       1.0  0.17703  0.19143  0.62700  1.0000
  H   H38       1.0  0.18143  0.21854  0.61076  1.0000
  H   H39       1.0  0.28166  0.99741  0.84276  1.0000
  C   C29       1.0  0.01198  0.99198  0.56211  1.0000
  H   H40       1.0  0.00156  0.21262  0.87639  1.0000
  H   H41       1.0  0.30784  0.99232  0.62692  1.0000
  H   H42       1.0  0.04977  0.20382  0.90332  1.0000
  H   H43       1.0  0.24192  0.05292  0.82176  1.0000
  C   C30       1.0  0.19145  0.20295  0.78055  1.0000
  C   C31       1.0  0.18456  0.19398  0.79881  1.0000
  C   C32       1.0  0.18872  0.19811  0.81406  1.0000
  H   H44       1.0  0.21750  0.16647  0.61359  1.0000
  H   H45       1.0  0.00766  0.18951  0.87194  1.0000
  H   H46       1.0  0.17643  0.18352  0.80121  1.0000
  C   C33       1.0  0.04055  0.99952  0.57409  1.0000
  C   C34       1.0  0.30524  0.20909  0.82447  1.0000
  S   S28       1.0  0.02660  0.08160  0.51941  1.0000
  H   H47       1.0  0.14246  0.21248  0.68189  1.0000
  H   H48       1.0  0.25277  0.00941  0.54872  1.0000
  C   C35       1.0  0.13910  0.05190  0.56517  1.0000
  C   C36       1.0  0.15609  0.20305  0.67811  1.0000
  H   H49       1.0  0.14555  0.05507  0.57520  1.0000
  H   H50       1.0  0.17344  0.09760  0.62388  1.0000
  H   H51       1.0  0.15136  0.09310  0.62336  1.0000
  Fe  Fe14      1.0  0.27551  0.04588  0.76788  1.0000
  C   C37       1.0  0.10589  0.11647  0.59590  1.0000
  C   C38       1.0  0.08985  0.11537  0.61006  1.0000
  C   C39       1.0  0.07638  0.10635  0.60869  1.0000
  H   H52       1.0  0.99176  0.99744  0.51490  1.0000
  H   H53       1.0  0.08763  0.12182  0.62185  1.0000
  H   H54       1.0  0.06382  0.10591  0.61952  1.0000
  H   H55       1.0  0.26480  0.02634  0.83672  1.0000
  C   C40       1.0  0.00869  0.04812  0.48674  1.0000
  H   H56       1.0  0.14988  0.02423  0.49998  1.0000
  H   H57       1.0  0.03173  0.04163  0.52196  1.0000
  C   C41       1.0  0.03245  0.01242  0.55999  1.0000
  C   C42       1.0  0.01844  0.00850  0.55378  1.0000
  C   C43       1.0  0.13304  0.98480  0.52231  1.0000
  H   H58       1.0  0.21684  0.02739  0.82893  1.0000
  H   H59       1.0  0.03682  0.02554  0.55394  1.0000
  N   N1        1.0  0.15988  0.01895  0.56327  1.0000
  C   C44       1.0  0.10158  0.21903  0.86267  1.0000
  C   C45       1.0  0.11382  0.20439  0.85463  1.0000
  C   C46       1.0  0.11281  0.20226  0.83704  1.0000
  C   C47       1.0  0.09934  0.21462  0.82762  1.0000
  C   C48       1.0  0.18474  0.01016  0.53430  1.0000
  C   C49       1.0  0.02395  0.04895  0.51117  1.0000
  H   H60       1.0  0.12403  0.19459  0.86207  1.0000
  H   H61       1.0  0.12214  0.19082  0.83101  1.0000
  H   H62       1.0  0.30051  0.98714  0.66153  1.0000
  S   S29       1.0  0.24309  0.21376  0.68048  1.0000
  H   H63       1.0  0.28100  0.08496  0.67748  1.0000
  H   H64       1.0  0.31450  0.19164  0.60993  1.0000
  C   C50       1.0  0.16911  0.02132  0.59297  1.0000
  C   C51       1.0  0.24769  0.06288  0.67809  1.0000
  N   N2        1.0  0.28386  0.15983  0.81789  1.0000
  C   C52       1.0  0.28863  0.16034  0.79709  1.0000
  C   C53       1.0  0.27422  0.14373  0.82755  1.0000
  C   C54       1.0  0.30207  0.15604  0.82409  1.0000
  C   C55       1.0  0.27182  0.17854  0.82130  1.0000
  C   C56       1.0  0.30027  0.17479  0.78472  1.0000
  C   C57       1.0  0.25714  0.14370  0.82011  1.0000
  C   C58       1.0  0.30093  0.15393  0.84511  1.0000
  C   C59       1.0  0.25810  0.17883  0.84043  1.0000
  H   H65       1.0  0.29641  0.14632  0.79424  1.0000
  H   H66       1.0  0.27572  0.16365  0.79146  1.0000
  H   H67       1.0  0.26945  0.14312  0.84282  1.0000
  H   H68       1.0  0.28420  0.13012  0.82640  1.0000
  H   H69       1.0  0.02231  0.02369  0.50410  1.0000
  H   H70       1.0  0.17620  0.00715  0.59950  1.0000
  H   H71       1.0  0.28070  0.18873  0.81951  1.0000
  H   H72       1.0  0.26300  0.18491  0.81065  1.0000
  H   H73       1.0  0.18736  0.01393  0.51875  1.0000
  H   H74       1.0  0.27459  0.11344  0.59891  1.0000
  H   H75       1.0  0.31350  0.07987  0.74162  1.0000
  H   H76       1.0  0.24787  0.15778  0.81771  1.0000
  H   H77       1.0  0.26169  0.13847  0.80689  1.0000
  H   H78       1.0  0.24880  0.13398  0.83044  1.0000
  N   N3        1.0  0.17195  0.22521  0.68667  1.0000
  H   H79       1.0  0.29361  0.13141  0.66817  1.0000
  H   H80       1.0  0.30961  0.16754  0.81701  1.0000
  H   H81       1.0  0.24615  0.17245  0.84163  1.0000
  H   H82       1.0  0.25208  0.19366  0.84167  1.0000
  H   H83       1.0  0.26476  0.17201  0.85254  1.0000
  N   N4        1.0  0.17312  0.11303  0.71879  1.0000
  C   C60       1.0  0.17365  0.09438  0.71464  1.0000
  C   C61       1.0  0.15514  0.11774  0.73272  1.0000
  C   C62       1.0  0.18949  0.11042  0.72771  1.0000
  C   C63       1.0  0.17445  0.12742  0.70060  1.0000
  C   C64       1.0  0.19217  0.08527  0.70288  1.0000
  C   C65       1.0  0.13706  0.11922  0.72624  1.0000
  C   C66       1.0  0.19166  0.12760  0.73351  1.0000
  C   C67       1.0  0.16694  0.14830  0.70185  1.0000
  H   H84       1.0  0.17052  0.08389  0.72789  1.0000
  H   H85       1.0  0.16264  0.09571  0.70685  1.0000
  H   H86       1.0  0.15364  0.13106  0.73697  1.0000
  H   H87       1.0  0.15500  0.10704  0.74610  1.0000
  H   H88       1.0  0.18887  0.09886  0.74043  1.0000
  H   H89       1.0  0.20297  0.10611  0.71807  1.0000
  H   H90       1.0  0.18915  0.12587  0.69252  1.0000
  H   H91       1.0  0.16637  0.12490  0.69152  1.0000
  H   H92       1.0  0.18971  0.07384  0.69776  1.0000
  H   H93       1.0  0.19772  0.09528  0.69037  1.0000
  H   H94       1.0  0.20295  0.07870  0.71146  1.0000
  H   H95       1.0  0.13663  0.12838  0.71220  1.0000
  H   H96       1.0  0.13509  0.10521  0.72625  1.0000
  H   H97       1.0  0.12488  0.12536  0.73630  1.0000
  H   H98       1.0  0.20332  0.12321  0.74110  1.0000
  H   H99       1.0  0.17912  0.13340  0.74329  1.0000
  H   H100      1.0  0.19553  0.13857  0.72110  1.0000
  H   H101      1.0  0.17610  0.15685  0.69098  1.0000
  H   H102      1.0  0.16633  0.15165  0.71534  1.0000
  H   H103      1.0  0.15289  0.15346  0.69830  1.0000
  S   S30       1.0  0.99443  0.98790  0.55380  1.0000
  H   H104      1.0  0.22808  0.18448  0.59679  1.0000
  H   H105      1.0  0.15084  0.22310  0.71220  1.0000
  H   H106      1.0  0.31464  0.04569  0.64915  1.0000
  H   H107      1.0  0.29337  0.14298  0.85408  1.0000
  C   C68       1.0  0.09258  0.02264  0.48880  1.0000
  H   H108      1.0  0.13133  0.02924  0.55929  1.0000
  H   H109      1.0  0.15399  0.02324  0.59926  1.0000
  H   H110      1.0  0.15387  0.18847  0.68285  1.0000
  S   S31       1.0  0.25399  0.22525  0.80536  1.0000
  H   H111      1.0  0.01230  0.01848  0.54274  1.0000
  H   H112      1.0  0.25692  0.20564  0.73371  1.0000
  H   H113      1.0  0.20963  0.04720  0.57058  1.0000
  C   C69       1.0  0.00346  0.06770  0.48325  1.0000
  H   H114      1.0  0.32092  0.17406  0.70084  1.0000
  C   C70       1.0  0.20486  0.05537  0.58183  1.0000
  H   H115      1.0  0.18598  0.22893  0.65754  1.0000
  C   C71       1.0  0.02950  0.22083  0.84573  1.0000
  C   C72       1.0  0.30716  0.11601  0.76422  1.0000
  C   C73       1.0  0.30808  0.19580  0.63823  1.0000
  C   C74       1.0  0.24275  0.00049  0.55245  1.0000
  C   C75       1.0  0.17104  0.20531  0.68729  1.0000
  H   H116      1.0  0.09975  0.98637  0.50865  1.0000
  C   C76       1.0  0.20004  0.20706  0.63016  1.0000
  C   C77       1.0  0.20658  0.22023  0.79278  1.0000
  H   H117      1.0  0.24402  0.21280  0.75484  1.0000
  C   C78       1.0  0.08835  0.23152  0.85303  1.0000
  C   C79       1.0  0.16621  0.02268  0.54224  1.0000
  C   C80       1.0  0.12469  0.02336  0.52133  1.0000
  S   S32       1.0  0.10304  0.22152  0.88467  1.0000
  C   C81       1.0  0.01933  0.06852  0.50731  1.0000
  C   C82       1.0  0.06934  0.18963  0.88311  1.0000
  H   H118      1.0  0.31356  0.11271  0.66748  1.0000
  N   N5        1.0  0.28934  0.10539  0.68759  1.0000
  C   C83       1.0  0.30035  0.10437  0.70193  1.0000
  C   C84       1.0  0.28929  0.08553  0.68728  1.0000
  C   C85       1.0  0.26957  0.11531  0.69440  1.0000
  H   H119      1.0  0.29999  0.01441  0.64275  1.0000
  C   C86       1.0  0.30338  0.12315  0.70368  1.0000
  H   H120      1.0  0.25328  0.98943  0.80688  1.0000
  H   H121      1.0  0.19116  0.10768  0.59574  1.0000
  H   H122      1.0  0.02536  0.01042  0.61191  1.0000
  H   H123      1.0  0.29368  0.09746  0.71606  1.0000
  C   C87       1.0  0.29814  0.11601  0.66889  1.0000
  H   H124      1.0  0.31172  0.12014  0.71455  1.0000
  C   C88       1.0  0.08724  0.22929  0.83559  1.0000
  H   H125      1.0  0.26349  0.10747  0.70844  1.0000
  H   H126      1.0  0.26915  0.12945  0.69632  1.0000
  H   H127      1.0  0.00532  0.21517  0.91023  1.0000
  C   C89       1.0  0.30782  0.21461  0.80497  1.0000
  H   H128      1.0  0.30339  0.21080  0.63426  1.0000
  H   H129      1.0  0.22067  0.14076  0.63496  1.0000
  H   H130      1.0  0.03615  0.22625  0.83100  1.0000
  H   H131      1.0  0.22389  0.04845  0.84243  1.0000
  H   H132      1.0  0.18435  0.99506  0.53827  1.0000
  H   H133      1.0  0.23168  0.21231  0.73808  1.0000
  S   S33       1.0  0.29895  0.02128  0.77520  1.0000
  H   H134      1.0  0.09739  0.02087  0.50196  1.0000
  H   H135      1.0  0.03672  0.20753  0.78297  1.0000
  H   H136      1.0  0.15235  0.99084  0.54818  1.0000
  H   H137      1.0  0.05618  0.02040  0.50525  1.0000
  H   H138      1.0  0.19260  0.19787  0.71412  1.0000
  H   H139      1.0  0.03888  0.20866  0.80545  1.0000
  H   H140      1.0  0.21702  0.06047  0.58250  1.0000
  H   H141      1.0  0.30045  0.17583  0.76976  1.0000
  H   H142      1.0  0.19686  0.01243  0.53832  1.0000
  C   C90       1.0  0.02433  0.22857  0.88570  1.0000
  C   C91       1.0  0.20993  0.10084  0.57032  1.0000
  H   H143      1.0  0.20091  0.04539  0.59511  1.0000
  H   H144      1.0  0.15765  0.98985  0.50133  1.0000
  Fe  Fe15      1.0  0.23596  0.21604  0.65296  1.0000
  C   C92       1.0  0.25571  0.11868  0.68168  1.0000
  H   H145      1.0  0.24271  0.07748  0.67214  1.0000
  H   H146      1.0  0.31418  0.16133  0.67664  1.0000
  H   H147      1.0  0.31212  0.04318  0.87738  1.0000
  H   H148      1.0  0.31624  0.15601  0.73757  1.0000
  H   H149      1.0  0.16793  0.03741  0.53664  1.0000
  C   C93       1.0  0.23171  0.99793  0.57057  1.0000
  H   H150      1.0  0.24702  0.02146  0.85683  1.0000
  H   H151      1.0  0.20419  0.10243  0.55792  1.0000
  H   H152      1.0  0.22370  0.09089  0.56903  1.0000
  N   N6        1.0  0.25677  0.15012  0.60802  1.0000
  C   C94       1.0  0.06938  0.20145  0.75136  1.0000
  H   H153      1.0  0.02822  0.18797  0.89948  1.0000
  C   C95       1.0  0.00805  0.19794  0.88177  1.0000
  S   S34       1.0  0.22321  0.19136  0.65559  1.0000
  C   C96       1.0  0.17357  0.02389  0.57141  1.0000
  C   C97       1.0  0.24967  0.02608  0.84127  1.0000
  H   H154      1.0  0.25781  0.03421  0.71866  1.0000
  S   S35       1.0  0.07083  0.08229  0.53787  1.0000
  C   C98       1.0  0.05397  0.20678  0.88780  1.0000
  H   H155      1.0  0.02432  0.22102  0.91614  1.0000
  C   C99       1.0  0.11305  0.01190  0.53376  1.0000
  S   S36       1.0  0.26242  0.01377  0.66085  1.0000
  S   S37       1.0  0.26337  0.06779  0.78514  1.0000
  C   C100      1.0  0.22540  0.17022  0.59916  1.0000
  H   H156      1.0  0.28394  0.09858  0.81600  1.0000
  C   C101      1.0  0.30555  0.03531  0.65366  1.0000
  H   H157      1.0  0.16380  0.21248  0.87677  1.0000
  H   H158      1.0  0.28579  0.16020  0.62092  1.0000
  C   C102      1.0  0.25773  0.16708  0.61438  1.0000
  C   C103      1.0  0.27087  0.16350  0.62797  1.0000
  C   C104      1.0  0.25112  0.13459  0.62407  1.0000
  H   H159      1.0  0.19241  0.07822  0.56246  1.0000
  C   C105      1.0  0.23379  0.13977  0.63927  1.0000
  H   H160      1.0  0.06613  0.19542  0.74101  1.0000
  H   H161      1.0  0.24424  0.05512  0.84381  1.0000
  C   C106      1.0  0.27612  0.14265  0.59753  1.0000
  S   S38       1.0  0.24426  0.07473  0.70997  1.0000
  H   H162      1.0  0.12411  0.05904  0.56786  1.0000
  H   H163      1.0  0.16553  0.07746  0.63884  1.0000
  S   S39       1.0  0.28515  0.21951  0.83910  1.0000
  H   H164      1.0  0.08466  0.20052  0.74775  1.0000
  S   S40       1.0  0.23253  0.00972  0.58781  1.0000
  C   C107      1.0  0.19065  0.21316  0.71293  1.0000
  H   H165      1.0  0.31537  0.14962  0.84768  1.0000
  H   H166      1.0  0.17586  0.03832  0.56485  1.0000
  Fe  Fe16      1.0  0.04833  0.06793  0.53750  1.0000
  Fe  Fe17      1.0  0.06458  0.07193  0.56915  1.0000
  H   H167      1.0  0.01724  0.98868  0.62012  1.0000
  C   C108      1.0  0.01857  0.03884  0.50104  1.0000
  H   H168      1.0  0.17409  0.03196  0.59691  1.0000
  H   H169      1.0  0.28214  0.07852  0.70114  1.0000
  H   H170      1.0  0.29267  0.12203  0.58099  1.0000
  C   C109      1.0  0.99828  0.01266  0.63163  1.0000
  H   H171      1.0  0.16066  0.20557  0.66263  1.0000
  H   H172      1.0  0.23400  0.15632  0.78424  1.0000
  N   N7        1.0  0.03714  0.21155  0.87895  1.0000
  C   C110      1.0  0.09667  0.98865  0.49453  1.0000
  H   H173      1.0  0.16026  0.11009  0.59397  1.0000
  H   H174      1.0  0.31281  0.06374  0.60284  1.0000
  S   S41       1.0  0.11901  0.04748  0.52070  1.0000
  H   H175      1.0  0.06089  0.21893  0.88398  1.0000
  H   H176      1.0  0.10106  0.01767  0.54342  1.0000
  C   C111      1.0  0.30867  0.07267  0.68247  1.0000
  H   H177      1.0  0.20736  0.22345  0.76349  1.0000
  H   H178      1.0  0.06398  0.17656  0.88703  1.0000
  H   H179      1.0  0.02533  0.20787  0.84573  1.0000
  H   H180      1.0  0.30053  0.03383  0.83536  1.0000
  C   C112      1.0  0.24983  0.05743  0.69669  1.0000
  H   H181      1.0  0.23334  0.15268  0.64371  1.0000
  S   S42       1.0  0.06092  0.08846  0.59135  1.0000
  Fe  Fe18      1.0  0.27103  0.21844  0.66393  1.0000
  H   H182      1.0  0.16561  0.22133  0.84393  1.0000
  H   H183      1.0  0.28138  0.10803  0.65289  1.0000
  H   H184      1.0  0.00352  0.01273  0.59453  1.0000
  C   C113      1.0  0.25766  0.03051  0.67469  1.0000
  Fe  Fe19      1.0  0.06210  0.03353  0.56590  1.0000
  H   H185      1.0  0.05522  0.20550  0.85273  1.0000
  H   H186      1.0  0.12085  0.10898  0.56953  1.0000
  C   C114      1.0  0.18826  0.07152  0.57736  1.0000
  H   H187      1.0  0.25566  0.14268  0.77337  1.0000
  S   S43       1.0  0.26477  0.21857  0.63654  1.0000
  C   C115      1.0  0.24372  0.15581  0.59450  1.0000
  C   C116      1.0  0.07898  0.09810  0.59334  1.0000
  H   H188      1.0  0.18843  0.06513  0.61498  1.0000
  H   H189      1.0  0.21309  0.11456  0.56962  1.0000
  H   H190      1.0  0.29025  0.13284  0.70837  1.0000
  S   S44       1.0  0.06817  0.04064  0.53451  1.0000
  H   H191      1.0  0.20291  0.21549  0.71672  1.0000
  H   H192      1.0  0.31765  0.06477  0.86339  1.0000
  H   H193      1.0  0.21841  0.01649  0.85251  1.0000
  H   H194      1.0  0.23978  0.14332  0.59273  1.0000
  C   C117      1.0  0.14044  0.03068  0.56800  1.0000
  Fe  Fe20      1.0  0.28945  0.03522  0.59359  1.0000
  H   H195      1.0  0.20669  0.08548  0.59865  1.0000
  H   H196      1.0  0.18471  0.19757  0.68046  1.0000
  H   H197      1.0  0.26282  0.12690  0.63122  1.0000
  H   H198      1.0  0.26223  0.17798  0.60203  1.0000
  C   C118      1.0  0.10855  0.10806  0.58062  1.0000
  N   N8        1.0  0.03333  0.13737  0.56325  1.0000
  C   C119      1.0  0.02372  0.12142  0.56599  1.0000
  C   C120      1.0  0.03344  0.13974  0.58240  1.0000
  C   C121      1.0  0.05318  0.13202  0.55248  1.0000
  C   C122      1.0  0.02255  0.15461  0.55233  1.0000
  C   C123      1.0  0.02316  0.11588  0.54794  1.0000
  C   C124      1.0  0.01420  0.14423  0.59550  1.0000
  C   C125      1.0  0.06832  0.14020  0.55592  1.0000
  C   C126      1.0  0.02847  0.17319  0.54984  1.0000
  H   H199      1.0  0.03041  0.10860  0.57504  1.0000
  H   H200      1.0  0.00889  0.12474  0.57341  1.0000
  H   H201      1.0  0.04068  0.15103  0.58146  1.0000
  H   H202      1.0  0.04163  0.12679  0.58995  1.0000
  H   H203      1.0  0.05845  0.11654  0.55589  1.0000
  H   H204      1.0  0.05380  0.13561  0.53711  1.0000
  H   H205      1.0  0.02355  0.15286  0.53793  1.0000
  H   H206      1.0  0.00738  0.15671  0.55892  1.0000
  H   H207      1.0  0.01766  0.10284  0.55185  1.0000
  H   H208      1.0  0.01355  0.12671  0.53986  1.0000
  H   H209      1.0  0.03711  0.11289  0.53872  1.0000
  H   H210      1.0  0.00726  0.13211  0.60025  1.0000
  H   H211      1.0  0.01630  0.14715  0.60836  1.0000
  H   H212      1.0  0.00486  0.15687  0.58911  1.0000
  H   H213      1.0  0.06496  0.15561  0.55383  1.0000
  H   H214      1.0  0.08171  0.13620  0.54607  1.0000
  H   H215      1.0  0.07102  0.13421  0.57024  1.0000
  H   H216      1.0  0.02764  0.17672  0.56338  1.0000
  H   H217      1.0  0.01874  0.18473  0.54248  1.0000
  H   H218      1.0  0.04258  0.17319  0.54089  1.0000
  N   N9        1.0  0.24399  0.17074  0.74289  1.0000
  C   C127      1.0  0.23487  0.15492  0.75525  1.0000
  C   C128      1.0  0.23340  0.17974  0.72738  1.0000
  C   C129      1.0  0.24230  0.18463  0.75470  1.0000
  C   C130      1.0  0.26420  0.16250  0.73556  1.0000
  C   C131      1.0  0.24036  0.14657  0.77449  1.0000
  C   C132      1.0  0.23438  0.16722  0.71389  1.0000
  C   C133      1.0  0.24396  0.20483  0.74444  1.0000
  C   C134      1.0  0.27592  0.17566  0.72088  1.0000
  H   H219      1.0  0.21932  0.15957  0.75824  1.0000
  H   H220      1.0  0.23804  0.14298  0.74811  1.0000
  H   H221      1.0  0.23806  0.19251  0.71854  1.0000
  H   H222      1.0  0.21840  0.18478  0.73341  1.0000
  H   H223      1.0  0.22842  0.18613  0.76449  1.0000
  H   H224      1.0  0.25283  0.17944  0.76372  1.0000
  H   H225      1.0  0.27180  0.15656  0.74721  1.0000
  H   H226      1.0  0.26553  0.15013  0.72962  1.0000
  H   H227      1.0  0.06552  0.19251  0.76535  1.0000
  H   H228      1.0  0.13220  0.99813  0.56584  1.0000
  H   H229      1.0  0.29492  0.16755  0.84945  1.0000
  H   H230      1.0  0.24889  0.16274  0.70627  1.0000
  H   H231      1.0  0.22814  0.15485  0.72115  1.0000
  H   H232      1.0  0.22617  0.17547  0.70311  1.0000
  C   C135      1.0  0.14703  0.99064  0.56333  1.0000
  H   H233      1.0  0.07678  0.19188  0.86824  1.0000
  S   S45       1.0  0.31992  0.10462  0.81504  1.0000
  H   H234      1.0  0.28286  0.18237  0.72773  1.0000
  C   C136      1.0  0.30835  0.10714  0.79714  1.0000
  C   C137      1.0  0.24061  0.99177  0.53900  1.0000
  H   H235      1.0  0.13328  0.02566  0.58265  1.0000
  C   C138      1.0  0.04394  0.21677  0.85802  1.0000
  H   H236      1.0  0.24153  0.12473  0.68906  1.0000
  H   H237      1.0  0.03702  0.18380  0.87652  1.0000
  C   C139      1.0  0.05856  0.22207  0.78296  1.0000
  H   H238      1.0  0.31672  0.19049  0.84753  1.0000
  H   H239      1.0  0.26775  0.15235  0.64041  1.0000
  H   H240      1.0  0.25461  0.10561  0.67846  1.0000
  C   C140      1.0  0.25178  0.04947  0.66710  1.0000
  H   H241      1.0  0.14938  0.21804  0.82285  1.0000
  C   C141      1.0  0.29046  0.10337  0.80156  1.0000
  Fe  Fe21      1.0  0.08989  0.05396  0.53768  1.0000
  C   C142      1.0  0.18278  0.17626  0.64091  1.0000
  C   C143      1.0  0.20230  0.21621  0.77757  1.0000
  H   H242      1.0  0.17648  0.16419  0.64491  1.0000
  Fe  Fe22      1.0  0.25202  0.06701  0.73810  1.0000
  H   H243      1.0  0.26885  0.17650  0.63313  1.0000
  H   H244      1.0  0.29544  0.12462  0.63982  1.0000
  H   H245      1.0  0.31158  0.13011  0.69051  1.0000
  C   C144      1.0  0.32114  0.16571  0.62949  1.0000
  C   C145      1.0  0.25619  0.03850  0.70427  1.0000
  C   C146      1.0  0.27793  0.12607  0.58838  1.0000
  S   S46       1.0  0.29627  0.20012  0.67439  1.0000
  C   C147      1.0  0.19683  0.17660  0.64959  1.0000
  H   H246      1.0  0.21611  0.17108  0.58967  1.0000
  C   C148      1.0  0.30713  0.01688  0.79609  1.0000
  C   C149      1.0  0.20553  0.19194  0.64424  1.0000
  H   H247      1.0  0.20097  0.16487  0.66049  1.0000
  H   H248      1.0  0.14532  0.05813  0.55060  1.0000
  H   H249      1.0  0.28149  0.15399  0.58626  1.0000
  H   H250      1.0  0.26796  0.18659  0.71133  1.0000
  C   C150      1.0  0.02831  0.19471  0.88445  1.0000
  H   H251      1.0  0.23487  0.13358  0.78099  1.0000
  H   H252      1.0  0.06938  0.20895  0.78527  1.0000
  C   C151      1.0  0.19977  0.21120  0.81104  1.0000
  H   H253      1.0  0.24820  0.12351  0.61875  1.0000
  H   H254      1.0  0.26919  0.12973  0.57777  1.0000
  H   H255      1.0  0.15296  0.09266  0.58744  1.0000
  S   S47       1.0  0.20482  0.21637  0.83012  1.0000
  S   S48       1.0  0.08540  0.04471  0.56887  1.0000
  H   H256      1.0  0.17161  0.10292  0.55391  1.0000
  C   C152      1.0  0.31449  0.18502  0.62447  1.0000
  H   H257      1.0  0.18349  0.19104  0.82818  1.0000
  H   H258      1.0  0.20676  0.21890  0.62585  1.0000
  H   H259      1.0  0.15299  0.12019  0.56291  1.0000
  C   C153      1.0  0.30646  0.02472  0.82545  1.0000
  S   S49       1.0  0.27667  0.01003  0.60824  1.0000
  H   H260      1.0  0.17646  0.06515  0.57783  1.0000
  H   H261      1.0  0.24380  0.17407  0.62135  1.0000
  S   S50       1.0  0.05818  0.00466  0.58154  1.0000
  C   C154      1.0  0.25996  0.02501  0.69330  1.0000
  S   S51       1.0  0.24784  0.04391  0.76347  1.0000
  C   C155      1.0  0.19715  0.09498  0.58958  1.0000
  C   C156      1.0  0.16694  0.11145  0.56477  1.0000
  S   S52       1.0  0.04046  0.05989  0.56894  1.0000
  C   C157      1.0  0.09525  0.09876  0.57941  1.0000
  C   C158      1.0  0.17609  0.07468  0.60973  1.0000
  H   H262      1.0  0.09732  0.09261  0.56745  1.0000
  H   H263      1.0  0.17603  0.12149  0.56244  1.0000
  H   H264      1.0  0.25087  0.16217  0.58025  1.0000
  C   C159      1.0  0.16491  0.09962  0.58487  1.0000
  N   N10       1.0  0.18192  0.08544  0.58997  1.0000
  H   H265      1.0  0.18771  0.01499  0.56788  1.0000
  H   H266      1.0  0.30641  0.10092  0.64575  1.0000
  H   H267      1.0  0.15540  0.02138  0.53558  1.0000
  C   C160      1.0  0.29965  0.02863  0.80896  1.0000
  C   C161      1.0  0.16605  0.08658  0.62462  1.0000
  H   H268      1.0  0.25923  0.12908  0.66864  1.0000
  H   H269      1.0  0.06771  0.04549  0.49440  1.0000
  C   C162      1.0  0.01443  0.22540  0.90658  1.0000
  H   H270      1.0  0.31464  0.09568  0.69879  1.0000
  H   H271      1.0  0.01704  0.23174  0.84944  1.0000
  C   C163      1.0  0.15928  0.99859  0.57128  1.0000
  H   H272      1.0  0.08943  0.05258  0.48555  1.0000
  C   C164      1.0  0.29484  0.11189  0.65119  1.0000
  H   H273      1.0  0.07145  0.00662  0.51980  1.0000
  C   C165      1.0  0.00873  0.07784  0.49354  1.0000
  H   H274      1.0  0.30692  0.06024  0.67847  1.0000
  H   H275      1.0  0.14211  0.22073  0.85529  1.0000
  H   H276      1.0  0.17359  0.98957  0.56952  1.0000
  H   H277      1.0  0.15384  0.99621  0.58670  1.0000
  H   H278      1.0  0.06234  0.22912  0.73513  1.0000
  C   C166      1.0  0.23919  0.04671  0.83693  1.0000
  C   C167      1.0  0.14516  0.99603  0.51032  1.0000
  H   H279      1.0  0.29433  0.18901  0.78774  1.0000
  H   H280      1.0  0.09161  0.22041  0.76173  1.0000
  C   C168      1.0  0.05854  0.22195  0.75007  1.0000
  C   C169      1.0  0.05624  0.99111  0.51136  1.0000
  H   H281      1.0  0.99599  0.03569  0.59905  1.0000
  C   C170      1.0  0.01784  0.00152  0.62415  1.0000
  C   C171      1.0  0.31200  0.02078  0.64105  1.0000
  H   H282      1.0  0.17820  0.21794  0.72340  1.0000
  C   C172      1.0  0.30807  0.98800  0.67179  1.0000
  C   C173      1.0  0.21868  0.98635  0.57505  1.0000
  H   H283      1.0  0.31508  0.17035  0.78618  1.0000
  H   H284      1.0  0.04338  0.22211  0.75247  1.0000
  H   H285      1.0  0.23433  0.12862  0.65215  1.0000
  H   H286      1.0  0.24908  0.99406  0.52499  1.0000
  C   C174      1.0  0.31677  0.11318  0.77847  1.0000
  H   H287      1.0  0.31377  0.12050  0.74978  1.0000
  C   C175      1.0  0.11693  0.99278  0.53387  1.0000
  C   C176      1.0  0.18961  0.22413  0.69282  1.0000
  C   C177      1.0  0.08125  0.04286  0.48444  1.0000
  H   H288      1.0  0.24274  0.03167  0.80591  1.0000
  C   C178      1.0  0.15302  0.22907  0.85229  1.0000
  C   C179      1.0  0.22387  0.01456  0.83779  1.0000
  H   H289      1.0  0.20201  0.21750  0.68325  1.0000
  C   C180      1.0  0.31859  0.19469  0.83245  1.0000
  C   C181      1.0  0.31462  0.16796  0.66209  1.0000
  C   C182      1.0  0.03930  0.21670  0.79082  1.0000
  H   H290      1.0  0.29130  0.04335  0.65220  1.0000
  H   H291      1.0  0.00005  0.02676  0.63188  1.0000
  C   C183      1.0  0.99107  0.02264  0.60046  1.0000
  H   H292      1.0  0.99407  0.00592  0.64656  1.0000
  H   H293      1.0  0.29767  0.22582  0.79870  1.0000
  H   H294      1.0  0.29881  0.99749  0.68101  1.0000
  S   S53       1.0  0.32071  0.03252  0.58287  1.0000
  H   H295      1.0  0.05985  0.23061  0.79231  1.0000
  H   H296      1.0  0.99885  0.19298  0.89531  1.0000
  H   H297      1.0  0.21515  0.23032  0.79031  1.0000
  H   H298      1.0  0.31390  0.02870  0.62629  1.0000
  C   C184      1.0  0.32092  0.00914  0.82918  1.0000
  H   H299      1.0  0.14438  0.23094  0.88200  1.0000
  H   H300      1.0  0.31835  0.07968  0.67071  1.0000
  H   H301      1.0  0.31523  0.06727  0.69487  1.0000
  H   H302      1.0  0.30491  0.02863  0.66865  1.0000
  N   N11       1.0  0.08299  0.00703  0.49032  1.0000
  C   C185      1.0  0.21608  0.99813  0.83663  1.0000
  H   H303      1.0  0.02772  0.22920  0.79143  1.0000
  H   H304      1.0  0.05266  0.98920  0.49882  1.0000
  H   H305      1.0  0.26567  0.02080  0.80776  1.0000
  H   H306      1.0  0.31956  0.18454  0.71966  1.0000
  H   H307      1.0  0.31908  0.21138  0.69755  1.0000
  N   N12       1.0  0.24485  0.01263  0.83255  1.0000
  C   C186      1.0  0.25135  0.01799  0.81160  1.0000
  C   C187      1.0  0.25096  0.00434  0.79980  1.0000
  H   H308      1.0  0.26265  0.00507  0.78732  1.0000
  H   H309      1.0  0.23765  0.00830  0.79481  1.0000
  H   H310      1.0  0.28185  0.99184  0.82079  1.0000
  H   H311      1.0  0.21013  0.98415  0.58904  1.0000
  C   C188      1.0  0.27610  0.98925  0.83610  1.0000
  C   C189      1.0  0.25453  0.99316  0.84078  1.0000
  H   H312      1.0  0.22106  0.99415  0.82286  1.0000
  C   C190      1.0  0.14708  0.23266  0.81466  1.0000
  H   H313      1.0  0.20060  0.00242  0.83887  1.0000
  N   N13       1.0  0.06210  0.23236  0.76277  1.0000
  C   C191      1.0  0.11564  0.98616  0.48055  1.0000
  H   H314      1.0  0.13837  0.23316  0.80475  1.0000
  H   H315      1.0  0.24993  0.99015  0.85633  1.0000
  H   H316      1.0  0.21924  0.98570  0.84789  1.0000
  H   H317      1.0  0.12478  0.99471  0.48205  1.0000
  H   H318      1.0  0.32071  0.22382  0.58692  1.0000
  H   H319      1.0  0.32128  0.06723  0.80026  1.0000
  Fe  Fe23      1.0  0.03107  0.43649  0.14630  1.0000
  S   S54       1.0  0.04044  0.44766  0.11557  1.0000
  S   S55       1.0  0.00794  0.42002  0.15831  1.0000
  Fe  Fe24      1.0  0.05507  0.45805  0.15725  1.0000
  H   H320      1.0  0.14318  0.42657  0.98317  1.0000
  H   H321      1.0  0.25053  0.46343  0.40510  1.0000
  H   H322      1.0  0.00492  0.27863  0.99655  1.0000
  C   C192      1.0  0.10811  0.46047  0.09259  1.0000
  Fe  Fe25      1.0  0.06889  0.44229  0.12197  1.0000
  S   S56       1.0  0.09516  0.42782  0.10487  1.0000
  S   S57       1.0  0.02513  0.46438  0.15439  1.0000
  S   S58       1.0  0.06003  0.42888  0.15222  1.0000
  H   H323      1.0  0.01941  0.38502  0.10857  1.0000
  S   S59       1.0  0.20635  0.47135  0.99589  1.0000
  H   H324      1.0  0.00208  0.30196  0.12816  1.0000
  S   S60       1.0  0.20215  0.45207  0.04036  1.0000
  H   H325      1.0  0.16012  0.43461  0.08294  1.0000
  H   H326      1.0  0.26956  0.41553  0.46507  1.0000
  H   H327      1.0  0.00668  0.36345  0.16298  1.0000
  Fe  Fe26      1.0  0.19351  0.44798  0.01563  1.0000
  H   H328      1.0  0.26428  0.46985  0.42571  1.0000
  S   S61       1.0  0.16486  0.46573  0.02247  1.0000
  H   H329      1.0  0.17399  0.45702  0.12429  1.0000
  H   H330      1.0  0.13124  0.45510  0.01920  1.0000
  H   H331      1.0  0.27036  0.47168  0.38909  1.0000
  H   H332      1.0  0.13501  0.41641  0.09573  1.0000
  H   H333      1.0  0.12605  0.39817  0.03573  1.0000
  H   H334      1.0  0.26417  0.44711  0.46848  1.0000
  H   H335      1.0  0.13946  0.42431  0.05797  1.0000
  C   C193      1.0  0.00939  0.39009  0.12019  1.0000
  H   H336      1.0  0.13451  0.44963  0.16896  1.0000
  H   H337      1.0  0.02981  0.46329  0.07030  1.0000
  H   H338      1.0  0.10964  0.44814  0.02383  1.0000
  H   H339      1.0  0.02193  0.26645  0.03189  1.0000
  C   C194      1.0  0.11902  0.41262  0.03782  1.0000
  H   H340      1.0  0.14300  0.46180  0.11865  1.0000
  S   S62       1.0  0.06552  0.46198  0.18134  1.0000
  H   H341      1.0  0.29888  0.41427  0.42913  1.0000
  C   C195      1.0  0.10973  0.44309  0.14815  1.0000
  H   H342      1.0  0.28606  0.42173  0.41126  1.0000
  H   H343      1.0  0.09366  0.46774  0.09456  1.0000
  H   H344      1.0  0.15126  0.40814  0.01240  1.0000
  H   H345      1.0  0.10850  0.41705  0.02885  1.0000
  H   H346      1.0  0.31300  0.47887  0.18863  1.0000
  H   H347      1.0  0.12271  0.42000  0.99870  1.0000
  H   H348      1.0  0.13426  0.46994  0.18861  1.0000
  H   H349      1.0  0.16611  0.39889  0.05783  1.0000
  H   H350      1.0  0.09432  0.42192  0.05885  1.0000
  H   H351      1.0  0.24404  0.45323  0.08379  1.0000
  H   H352      1.0  0.99800  0.32537  0.20113  1.0000
  H   H353      1.0  0.15691  0.42980  0.03827  1.0000
  H   H354      1.0  0.11519  0.41227  0.06824  1.0000
  H   H355      1.0  0.02720  0.28504  0.01181  1.0000
  C   C196      1.0  0.11027  0.46411  0.14126  1.0000
  C   C197      1.0  0.99666  0.31156  0.19983  1.0000
  H   H356      1.0  0.15505  0.43129  0.00776  1.0000
  H   H357      1.0  0.00101  0.47216  0.12502  1.0000
  C   C198      1.0  0.12237  0.44580  0.02952  1.0000
  H   H358      1.0  0.25075  0.44439  0.44587  1.0000
  H   H359      1.0  0.27269  0.40336  0.44648  1.0000
  Fe  Fe27      1.0  0.17460  0.47198  0.04519  1.0000
  C   C199      1.0  0.00164  0.40751  0.14498  1.0000
  C   C200      1.0  0.01418  0.40142  0.12949  1.0000
  C   C201      1.0  0.98920  0.34360  0.16682  1.0000
  H   H360      1.0  0.02780  0.40499  0.12502  1.0000
  H   H361      1.0  0.09649  0.44098  0.14623  1.0000
  C   C202      1.0  0.99728  0.32082  0.14697  1.0000
  C   C203      1.0  0.11620  0.45411  0.04723  1.0000
  N   N14       1.0  0.27942  0.44097  0.43016  1.0000
  N   N15       1.0  0.13260  0.42552  0.03143  1.0000
  Fe  Fe28      1.0  0.03625  0.47497  0.12400  1.0000
  C   C204      1.0  0.14628  0.42095  0.04411  1.0000
  H   H362      1.0  0.99573  0.28388  0.04767  1.0000
  H   H363      1.0  0.20772  0.45234  0.11643  1.0000
  H   H364      1.0  0.11201  0.46389  0.17365  1.0000
  H   H365      1.0  0.20563  0.45181  0.07824  1.0000
  C   C205      1.0  0.25155  0.47975  0.09635  1.0000
  C   C206      1.0  0.28837  0.44321  0.44480  1.0000
  C   C207      1.0  0.23001  0.46092  0.08114  1.0000
  S   S63       1.0  0.19539  0.41898  0.01068  1.0000
  H   H366      1.0  0.09681  0.47216  0.14806  1.0000
  H   H367      1.0  0.10408  0.39710  0.06338  1.0000
  C   C208      1.0  0.21801  0.46114  0.11438  1.0000
  H   H368      1.0  0.16645  0.39620  0.03516  1.0000
  C   C209      1.0  0.27463  0.45989  0.41760  1.0000
  C   C210      1.0  0.00847  0.34904  0.16085  1.0000
  H   H369      1.0  0.01216  0.32206  0.14251  1.0000
  C   C211      1.0  0.15700  0.40040  0.04796  1.0000
  C   C212      1.0  0.16234  0.46540  0.13296  1.0000
  H   H370      1.0  0.99693  0.31022  0.00047  1.0000
  C   C213      1.0  0.26169  0.43384  0.43894  1.0000
  H   H371      1.0  0.30005  0.45059  0.43801  1.0000
  H   H372      1.0  0.01558  0.47535  0.19114  1.0000
  H   H373      1.0  0.12613  0.44385  0.99401  1.0000
  C   C214      1.0  0.10757  0.41118  0.05813  1.0000
  H   H374      1.0  0.30592  0.44537  0.39398  1.0000
  H   H375      1.0  0.00247  0.30721  0.02234  1.0000
  H   H376      1.0  0.16547  0.46202  0.14709  1.0000
  C   C215      1.0  0.14393  0.42298  0.01227  1.0000
  H   H377      1.0  0.99595  0.25074  0.04703  1.0000
  H   H378      1.0  0.14748  0.39055  0.05471  1.0000
  C   C216      1.0  0.11268  0.44088  0.09643  1.0000
  C   C217      1.0  0.13145  0.43158  0.09287  1.0000
  C   C218      1.0  0.14563  0.44183  0.08560  1.0000
  H   H379      1.0  0.19324  0.38591  0.99990  1.0000
  H   H380      1.0  0.99997  0.29508  0.17985  1.0000
  H   H381      1.0  0.24983  0.41152  0.45927  1.0000
  C   C219      1.0  0.31004  0.43403  0.40577  1.0000
  H   H382      1.0  0.23115  0.45060  0.11625  1.0000
  H   H383      1.0  0.26096  0.47219  0.08552  1.0000
  H   H384      1.0  0.31630  0.45506  0.47319  1.0000
  C   C220      1.0  0.02210  0.27177  0.01675  1.0000
  H   H385      1.0  0.25552  0.43184  0.42798  1.0000
  H   H386      1.0  0.14640  0.44447  0.13899  1.0000
  H   H387      1.0  0.26941  0.46882  0.45320  1.0000
  Fe  Fe29      1.0  0.21214  0.47741  0.02135  1.0000
  H   H388      1.0  0.11005  0.46733  0.12615  1.0000
  C   C221      1.0  0.21991  0.44579  0.08092  1.0000
  C   C222      1.0  0.19028  0.41583  0.99025  1.0000
  C   C223      1.0  0.99334  0.24159  0.98918  1.0000
  H   H389      1.0  0.19621  0.47537  0.13486  1.0000
  C   C224      1.0  0.14416  0.45986  0.13342  1.0000
  H   H390      1.0  0.10786  0.44576  0.05909  1.0000
  C   C225      1.0  0.07428  0.48035  0.18433  1.0000
  H   H391      1.0  0.08005  0.46499  0.21123  1.0000
  C   C226      1.0  0.21163  0.47093  0.13116  1.0000
  C   C227      1.0  0.12229  0.47073  0.08560  1.0000
  H   H392      1.0  0.31819  0.43881  0.41307  1.0000
  H   H393      1.0  0.99979  0.25985  0.01527  1.0000
  C   C228      1.0  0.01988  0.47517  0.06357  1.0000
  C   C229      1.0  0.12643  0.46422  0.16527  1.0000
  N   N16       1.0  0.12654  0.46991  0.14447  1.0000
  C   C230      1.0  0.00295  0.27402  0.01207  1.0000
  H   H394      1.0  0.01447  0.34959  0.14571  1.0000
  H   H395      1.0  0.28389  0.45518  0.46913  1.0000
  H   H396      1.0  0.16221  0.48036  0.12637  1.0000
  H   H397      1.0  0.27080  0.44737  0.39562  1.0000
  C   C231      1.0  0.01235  0.24258  0.98465  1.0000
  H   H398      1.0  0.25143  0.47070  0.11050  1.0000
  C   C232      1.0  0.13303  0.42878  0.99637  1.0000
  C   C233      1.0  0.26604  0.46041  0.40105  1.0000
  C   C234      1.0  0.18979  0.39778  0.98884  1.0000
  C   C235      1.0  0.99314  0.48307  0.11591  1.0000
  H   H399      1.0  0.98984  0.33197  0.13697  1.0000
  H   H400      1.0  0.01853  0.33977  0.16934  1.0000
  H   H401      1.0  0.10989  0.43798  0.16326  1.0000
  H   H402      1.0  0.28685  0.46674  0.41209  1.0000
  H   H403      1.0  0.21810  0.48293  0.12911  1.0000
  H   H404      1.0  0.21644  0.46103  0.14352  1.0000
  H   H405      1.0  0.10733  0.46835  0.04410  1.0000
  C   C236      1.0  0.26383  0.41500  0.45323  1.0000
  C   C237      1.0  0.29306  0.42703  0.41937  1.0000
  H   H406      1.0  0.21934  0.43494  0.09405  1.0000
  H   H407      1.0  0.12844  0.45589  0.05144  1.0000
  H   H408      1.0  0.23258  0.46947  0.06660  1.0000
  C   C238      1.0  0.27546  0.45423  0.45957  1.0000
  H   H409      1.0  0.00807  0.46941  0.06318  1.0000
  C   C239      1.0  0.99118  0.30659  0.01579  1.0000
  C   C240      1.0  0.13350  0.47679  0.17383  1.0000
  H   H410      1.0  0.01611  0.30995  0.17359  1.0000
  C   C241      1.0  0.20124  0.48321  0.09026  1.0000
  C   C242      1.0  0.14103  0.46142  0.08206  1.0000
  H   H411      1.0  0.02051  0.23764  0.99541  1.0000
  S   S64       1.0  0.06566  0.47089  0.12737  1.0000
  N   N17       1.0  0.22009  0.47338  0.09499  1.0000
  H   H412      1.0  0.12116  0.43425  0.13974  1.0000
  H   H413      1.0  0.03251  0.26135  0.00924  1.0000
  C   C243      1.0  0.99189  0.38503  0.12601  1.0000
  H   H414      1.0  0.00621  0.28996  0.15083  1.0000
  H   H415      1.0  0.29500  0.42938  0.45251  1.0000
  H   H416      1.0  0.22793  0.43852  0.06934  1.0000
  H   H417      1.0  0.00691  0.30081  0.20725  1.0000
  C   C244      1.0  0.08045  0.47795  0.20088  1.0000
  H   H418      1.0  0.03447  0.47179  0.03606  1.0000
  H   H419      1.0  0.04706  0.48081  0.00598  1.0000
  H   H420      1.0  0.19114  0.47377  0.09570  1.0000
  C   C245      1.0  0.99686  0.30177  0.14336  1.0000
  H   H421      1.0  0.14753  0.47937  0.16645  1.0000
  S   S65       1.0  0.15862  0.47432  0.07442  1.0000
  H   H422      1.0  0.00663  0.48158  0.02543  1.0000
  H   H423      1.0  0.29998  0.47705  0.17253  1.0000
  C   C246      1.0  0.00108  0.30958  0.17933  1.0000
  C   C247      1.0  0.02997  0.48338  0.04379  1.0000
  N   N18       1.0  0.98914  0.32369  0.16675  1.0000
  S   S66       1.0  0.23901  0.48293  0.02496  1.0000
  H   H424      1.0  0.31958  0.42227  0.39957  1.0000
  H   H425      1.0  0.10882  0.41929  0.75951  1.0000
  H   H426      1.0  0.26372  0.30442  0.70997  1.0000
  H   H427      1.0  0.13693  0.44656  0.81297  1.0000
  S   S67       1.0  0.01974  0.26610  0.80320  1.0000
  H   H428      1.0  0.13631  0.28850  0.83757  1.0000
  Fe  Fe30      1.0  0.04547  0.27288  0.89283  1.0000
  S   S68       1.0  0.04756  0.28849  0.91329  1.0000
  S   S69       1.0  0.01940  0.28139  0.88128  1.0000
  Fe  Fe31      1.0  0.07773  0.28585  0.89869  1.0000
  Fe  Fe32      1.0  0.23437  0.24486  0.67513  1.0000
  S   S70       1.0  0.07472  0.27276  0.87662  1.0000
  H   H429      1.0  0.18554  0.29811  0.93459  1.0000
  S   S71       1.0  0.04458  0.40213  0.84748  1.0000
  H   H430      1.0  0.03642  0.34089  0.88110  1.0000
  S   S72       1.0  0.06602  0.43641  0.82521  1.0000
  Fe  Fe33      1.0  0.07044  0.40589  0.82574  1.0000
  S   S73       1.0  0.09722  0.38505  0.82914  1.0000
  S   S74       1.0  0.05700  0.40995  0.80146  1.0000
  Fe  Fe34      1.0  0.17160  0.38422  0.92659  1.0000
  S   S75       1.0  0.14404  0.38785  0.91872  1.0000
  S   S76       1.0  0.17258  0.40811  0.93942  1.0000
  Fe  Fe35      1.0  0.18968  0.35345  0.90375  1.0000
  S   S77       1.0  0.16378  0.35573  0.89378  1.0000
  S   S78       1.0  0.21464  0.33083  0.89558  1.0000
  Fe  Fe36      1.0  0.16069  0.38667  0.88982  1.0000
  S   S79       1.0  0.14930  0.40923  0.86718  1.0000
  Fe  Fe37      1.0  0.14925  0.35667  0.92338  1.0000
  S   S80       1.0  0.12602  0.34089  0.93738  1.0000
  S   S81       1.0  0.18805  0.38458  0.89698  1.0000
  S   S82       1.0  0.17538  0.35262  0.93411  1.0000
  H   H431      1.0  0.04804  0.31817  0.87695  1.0000
  H   H432      1.0  0.19886  0.25156  0.89822  1.0000
  H   H433      1.0  0.20394  0.42061  0.78430  1.0000
  Fe  Fe38      1.0  0.23206  0.27343  0.81892  1.0000
  S   S83       1.0  0.21512  0.30172  0.82429  1.0000
  Fe  Fe39      1.0  0.25143  0.25366  0.78660  1.0000
  S   S84       1.0  0.05262  0.24434  0.91066  1.0000
  S   S85       1.0  0.22121  0.26304  0.79944  1.0000
  S   S86       1.0  0.26230  0.26610  0.80441  1.0000
  C   C248      1.0  0.17422  0.26296  0.84180  1.0000
  H   H434      1.0  0.15001  0.29729  0.87800  1.0000
  H   H435      1.0  0.16696  0.25793  0.69890  1.0000
  H   H436      1.0  0.08394  0.46557  0.82840  1.0000
  S   S87       1.0  0.22502  0.24728  0.64868  1.0000
  H   H437      1.0  0.16023  0.26505  0.66873  1.0000
  H   H438      1.0  0.16478  0.30955  0.85922  1.0000
  N   N19       1.0  0.30865  0.48050  0.72171  1.0000
  H   H439      1.0  0.03322  0.40649  0.88761  1.0000
  S   S88       1.0  0.26313  0.27056  0.60802  1.0000
  H   H440      1.0  0.12297  0.24287  0.83450  1.0000
  H   H441      1.0  0.07721  0.28434  0.83451  1.0000
  S   S89       1.0  0.04438  0.25207  0.96111  1.0000
  H   H442      1.0  0.19219  0.23809  0.69172  1.0000
  S   S90       1.0  0.09291  0.30963  0.88601  1.0000
  H   H443      1.0  0.04303  0.32521  0.80401  1.0000
  C   C249      1.0  0.99201  0.36360  0.78903  1.0000
  H   H444      1.0  0.14217  0.26177  0.70486  1.0000
  S   S91       1.0  0.30745  0.33173  0.60628  1.0000
  C   C250      1.0  0.25056  0.25320  0.74181  1.0000
  H   H445      1.0  0.31114  0.25739  0.57263  1.0000
  H   H446      1.0  0.02301  0.34464  0.83211  1.0000
  H   H447      1.0  0.03858  0.35493  0.84838  1.0000
  H   H448      1.0  0.10893  0.42443  0.96766  1.0000
  Fe  Fe40      1.0  0.08228  0.24545  0.89609  1.0000
  H   H449      1.0  0.15603  0.43191  0.77656  1.0000
  H   H450      1.0  0.10994  0.47334  0.94172  1.0000
  H   H451      1.0  0.13154  0.42278  0.80502  1.0000
  H   H452      1.0  0.18046  0.27498  0.83298  1.0000
  C   C251      1.0  0.27558  0.28743  0.60767  1.0000
  C   C252      1.0  0.28240  0.28722  0.62319  1.0000
  C   C253      1.0  0.29220  0.30082  0.62254  1.0000
  C   C254      1.0  0.00307  0.38003  0.81285  1.0000
  C   C255      1.0  0.28916  0.31462  0.59055  1.0000
  C   C256      1.0  0.27906  0.30117  0.59133  1.0000
  H   H453      1.0  0.28035  0.27649  0.63561  1.0000
  N   N20       1.0  0.14669  0.24856  0.84131  1.0000
  H   H454      1.0  0.18613  0.40028  0.80850  1.0000
  H   H455      1.0  0.27387  0.30144  0.57923  1.0000
  C   C257      1.0  0.24815  0.24664  0.71294  1.0000
  H   H456      1.0  0.29160  0.32524  0.57795  1.0000
  H   H457      1.0  0.21190  0.26748  0.88049  1.0000
  C   C258      1.0  0.21625  0.32379  0.87466  1.0000
  C   C259      1.0  0.22841  0.30697  0.87103  1.0000
  C   C260      1.0  0.22856  0.30018  0.85537  1.0000
  C   C261      1.0  0.21675  0.31039  0.84309  1.0000
  C   C262      1.0  0.20517  0.32758  0.84630  1.0000
  C   C263      1.0  0.20488  0.33424  0.86205  1.0000
  H   H458      1.0  0.23744  0.29895  0.88060  1.0000
  H   H459      1.0  0.23766  0.28700  0.85289  1.0000
  H   H460      1.0  0.19611  0.33559  0.83677  1.0000
  H   H461      1.0  0.19585  0.34744  0.86440  1.0000
  H   H462      1.0  0.06613  0.44804  0.94795  1.0000
  C   C264      1.0  0.11144  0.39171  0.84009  1.0000
  C   C265      1.0  0.12553  0.37818  0.84774  1.0000
  C   C266      1.0  0.13710  0.38338  0.85634  1.0000
  C   C267      1.0  0.13472  0.40215  0.85713  1.0000
  C   C268      1.0  0.12073  0.41568  0.84940  1.0000
  C   C269      1.0  0.10907  0.41044  0.84103  1.0000
  H   H463      1.0  0.12756  0.36367  0.84698  1.0000
  H   H464      1.0  0.14818  0.37292  0.86184  1.0000
  H   H465      1.0  0.11890  0.43023  0.84989  1.0000
  H   H466      1.0  0.09873  0.42103  0.83479  1.0000
  C   C270      1.0  0.10224  0.31777  0.90054  1.0000
  C   C271      1.0  0.11370  0.33082  0.89232  1.0000
  C   C272      1.0  0.12108  0.33792  0.90350  1.0000
  C   C273      1.0  0.11713  0.33197  0.92300  1.0000
  C   C274      1.0  0.10555  0.31900  0.93123  1.0000
  C   C275      1.0  0.09816  0.31185  0.92004  1.0000
  H   H467      1.0  0.11671  0.33564  0.87726  1.0000
  H   H468      1.0  0.12940  0.34834  0.89697  1.0000
  H   H469      1.0  0.10234  0.31441  0.94631  1.0000
  H   H470      1.0  0.08926  0.30183  0.92649  1.0000
  C   C276      1.0  0.16105  0.30544  0.87475  1.0000
  H   H471      1.0  0.00784  0.38097  0.76653  1.0000
  C   C277      1.0  0.00901  0.38502  0.79340  1.0000
  H   H472      1.0  0.02200  0.47128  0.89554  1.0000
  H   H473      1.0  0.07686  0.23888  0.82827  1.0000
  H   H474      1.0  0.18057  0.31501  0.90362  1.0000
  Fe  Fe41      1.0  0.26252  0.23807  0.82428  1.0000
  H   H475      1.0  0.01785  0.39513  0.78750  1.0000
  H   H476      1.0  0.05139  0.36970  0.82056  1.0000
  C   C278      1.0  0.02017  0.26856  0.82550  1.0000
  C   C279      1.0  0.13658  0.24689  0.82727  1.0000
  S   S92       1.0  0.05586  0.46486  0.77886  1.0000
  C   C280      1.0  0.02024  0.27558  0.86009  1.0000
  C   C281      1.0  0.03719  0.27002  0.84801  1.0000
  C   C282      1.0  0.03715  0.26667  0.83059  1.0000
  H   H477      1.0  0.05025  0.26872  0.85188  1.0000
  H   H478      1.0  0.05017  0.26313  0.82088  1.0000
  C   C283      1.0  0.17126  0.30498  0.91107  1.0000
  H   H479      1.0  0.08003  0.43289  0.70584  1.0000
  H   H480      1.0  0.13871  0.28183  0.93143  1.0000
  C   C284      1.0  0.18023  0.41027  0.95888  1.0000
  C   C285      1.0  0.06297  0.33996  0.81910  1.0000
  C   C286      1.0  0.16484  0.27386  0.91144  1.0000
  C   C287      1.0  0.18577  0.40877  0.81845  1.0000
  C   C288      1.0  0.03687  0.46856  0.88972  1.0000
  C   C289      1.0  0.22911  0.25496  0.71610  1.0000
  H   H481      1.0  0.13884  0.29615  0.90828  1.0000
  H   H482      1.0  0.08385  0.42825  0.95399  1.0000
  H   H483      1.0  0.11642  0.41930  0.92986  1.0000
  H   H484      1.0  0.09169  0.44466  0.92124  1.0000
  C   C290      1.0  0.00336  0.27289  0.83817  1.0000
  H   H485      1.0  0.08458  0.30445  0.81910  1.0000
  H   H486      1.0  0.03422  0.24984  0.76534  1.0000
  H   H487      1.0  0.99027  0.28059  0.86472  1.0000
  H   H488      1.0  0.03225  0.23977  0.88321  1.0000
  C   C291      1.0  0.20730  0.26222  0.89576  1.0000
  C   C292      1.0  0.00339  0.27670  0.85526  1.0000
  H   H489      1.0  0.01865  0.33018  0.81109  1.0000
  H   H490      1.0  0.06714  0.33238  0.80749  1.0000
  H   H491      1.0  0.18295  0.28116  0.87518  1.0000
  H   H492      1.0  0.07514  0.37664  0.95221  1.0000
  H   H493      1.0  0.06618  0.40267  0.92667  1.0000
  Fe  Fe42      1.0  0.25486  0.24969  0.63478  1.0000
  Fe  Fe43      1.0  0.03035  0.40847  0.82326  1.0000
  C   C293      1.0  0.11996  0.41695  0.95783  1.0000
  C   C294      1.0  0.17113  0.30140  0.93212  1.0000
  H   H494      1.0  0.15714  0.31296  0.90928  1.0000
  S   S93       1.0  0.99134  0.30324  0.76726  1.0000
  H   H495      1.0  0.09094  0.46928  0.70728  1.0000
  H   H496      1.0  0.11264  0.43306  0.72845  1.0000
  C   C295      1.0  0.17076  0.42714  0.81760  1.0000
  H   H497      1.0  0.32043  0.27312  0.53995  1.0000
  H   H498      1.0  0.30833  0.44173  0.50732  1.0000
  C   C296      1.0  0.17871  0.29358  0.88176  1.0000
  C   C297      1.0  0.09341  0.38986  0.89641  1.0000
  C   C298      1.0  0.06069  0.40236  0.89393  1.0000
  H   H499      1.0  0.06005  0.36333  0.91180  1.0000
  H   H500      1.0  0.15566  0.31871  0.87982  1.0000
  H   H501      1.0  0.16561  0.26798  0.85444  1.0000
  H   H502      1.0  0.03231  0.41042  0.91030  1.0000
  C   C299      1.0  0.04433  0.45673  0.87687  1.0000
  S   S94       1.0  0.21632  0.25807  0.69889  1.0000
  C   C300      1.0  0.14530  0.41325  0.80189  1.0000
  H   H503      1.0  0.01328  0.23532  0.87756  1.0000
  H   H504      1.0  0.09629  0.40155  0.77247  1.0000
  C   C301      1.0  0.09941  0.44360  0.72789  1.0000
  H   H505      1.0  0.17638  0.26222  0.64733  1.0000
  H   H506      1.0  0.13287  0.45332  0.88379  1.0000
  H   H507      1.0  0.30181  0.45608  0.74303  1.0000
  H   H508      1.0  0.09010  0.42065  0.89065  1.0000
  H   H509      1.0  0.07530  0.43167  0.76343  1.0000
  C   C302      1.0  0.18102  0.44589  0.78580  1.0000
  H   H510      1.0  0.20587  0.26804  0.73510  1.0000
  H   H511      1.0  0.06158  0.37408  0.87723  1.0000
  C   C303      1.0  0.19684  0.27845  0.90591  1.0000
  C   C304      1.0  0.03876  0.33136  0.87140  1.0000
  C   C305      1.0  0.03209  0.33037  0.83311  1.0000
  H   H512      1.0  0.07641  0.34018  0.82235  1.0000
  H   H513      1.0  0.04379  0.43498  0.73513  1.0000
  C   C306      1.0  0.16317  0.25728  0.83052  1.0000
  H   H514      1.0  0.10433  0.47495  0.81946  1.0000
  H   H515      1.0  0.07041  0.41664  0.72440  1.0000
  H   H516      1.0  0.06526  0.26167  0.73274  1.0000
  H   H517      1.0  0.18981  0.30173  0.87536  1.0000
  H   H518      1.0  0.10372  0.37774  0.90233  1.0000
  H   H519      1.0  0.18712  0.45278  0.79337  1.0000
  H   H520      1.0  0.12313  0.44135  0.77503  1.0000
  C   C307      1.0  0.07519  0.46188  0.87461  1.0000
  H   H521      1.0  0.10758  0.40110  0.74873  1.0000
  C   C308      1.0  0.29595  0.46702  0.73196  1.0000
  C   C309      1.0  0.05094  0.26408  0.74137  1.0000
  H   H522      1.0  0.08999  0.43917  0.78684  1.0000
  H   H523      1.0  0.16854  0.26528  0.92489  1.0000
  N   N21       1.0  0.25494  0.30595  0.68437  1.0000
  C   C310      1.0  0.26266  0.29489  0.70148  1.0000
  C   C311      1.0  0.23689  0.31886  0.69119  1.0000
  C   C312      1.0  0.26889  0.31743  0.67214  1.0000
  C   C313      1.0  0.25237  0.29239  0.67426  1.0000
  C   C314      1.0  0.28193  0.28154  0.69785  1.0000
  C   C315      1.0  0.22161  0.30909  0.70496  1.0000
  C   C316      1.0  0.26353  0.33082  0.65425  1.0000
  C   C317      1.0  0.23820  0.29979  0.66117  1.0000
  H   H524      1.0  0.13310  0.26058  0.81758  1.0000
  H   H525      1.0  0.25308  0.28588  0.71094  1.0000
  H   H526      1.0  0.23048  0.32807  0.67955  1.0000
  H   H527      1.0  0.23961  0.32872  0.69831  1.0000
  H   H528      1.0  0.27211  0.32601  0.68034  1.0000
  H   H529      1.0  0.28240  0.30820  0.66711  1.0000
  H   H530      1.0  0.26603  0.28644  0.66583  1.0000
  H   H531      1.0  0.24762  0.28021  0.68459  1.0000
  H   H532      1.0  0.28222  0.27156  0.68931  1.0000
  C   C318      1.0  0.18088  0.42825  0.96027  1.0000
  H   H533      1.0  0.11617  0.28131  0.83510  1.0000
  H   H534      1.0  0.20813  0.31943  0.70658  1.0000
  H   H535      1.0  0.21940  0.29750  0.69998  1.0000
  H   H536      1.0  0.22486  0.30366  0.71913  1.0000
  H   H537      1.0  0.25065  0.34159  0.65717  1.0000
  H   H538      1.0  0.26244  0.32308  0.64417  1.0000
  H   H539      1.0  0.27494  0.33849  0.64694  1.0000
  H   H540      1.0  0.24408  0.29393  0.64831  1.0000
  H   H541      1.0  0.23456  0.31514  0.65640  1.0000
  H   H542      1.0  0.22519  0.29442  0.66784  1.0000
  N   N22       1.0  0.05098  0.33023  0.83621  1.0000
  H   H543      1.0  0.02496  0.32861  0.87200  1.0000
  H   H544      1.0  0.20592  0.28890  0.90173  1.0000
  H   H545      1.0  0.11312  0.41107  0.71544  1.0000
  C   C319      1.0  0.00336  0.37694  0.78156  1.0000
  Fe  Fe44      1.0  0.05680  0.25980  0.93018  1.0000
  H   H546      1.0  0.06124  0.34341  0.85265  1.0000
  N   N23       1.0  0.16560  0.43683  0.79897  1.0000
  H   H547      1.0  0.19660  0.27256  0.92107  1.0000
  H   H548      1.0  0.19326  0.42917  0.76402  1.0000
  S   S95       1.0  0.08751  0.25836  0.91728  1.0000
  S   S96       1.0  0.26488  0.25392  0.75623  1.0000
  H   H549      1.0  0.13346  0.41364  0.96232  1.0000
  Fe  Fe45      1.0  0.05046  0.44048  0.80278  1.0000
  H   H550      1.0  0.27373  0.24005  0.72283  1.0000
  C   C320      1.0  0.06360  0.45314  0.86957  1.0000
  H   H551      1.0  0.17765  0.44015  0.94916  1.0000
  H   H552      1.0  0.06403  0.36573  0.79805  1.0000
  H   H553      1.0  0.04115  0.36094  0.80634  1.0000
  H   H554      1.0  0.29739  0.30055  0.63462  1.0000
  H   H555      1.0  0.20860  0.44132  0.76776  1.0000
  H   H556      1.0  0.19986  0.41161  0.81649  1.0000
  H   H557      1.0  0.04123  0.26211  0.73369  1.0000
  C   C321      1.0  0.15114  0.46855  0.80947  1.0000
  H   H558      1.0  0.06328  0.29837  0.81829  1.0000
  H   H559      1.0  0.10866  0.45378  0.96012  1.0000
  H   H560      1.0  0.14293  0.45859  0.78939  1.0000
  C   C322      1.0  0.18578  0.43105  0.97586  1.0000
  C   C323      1.0  0.12503  0.28071  0.84485  1.0000
  H   H561      1.0  0.04751  0.27898  0.74264  1.0000
  H   H562      1.0  0.18259  0.39954  0.83251  1.0000
  H   H563      1.0  0.02140  0.48064  0.83795  1.0000
  H   H564      1.0  0.05002  0.25916  0.77126  1.0000
  H   H565      1.0  0.26881  0.46457  0.75013  1.0000
  H   H566      1.0  0.15915  0.26972  0.81952  1.0000
  H   H567      1.0  0.99025  0.27341  0.83476  1.0000
  H   H568      1.0  0.29446  0.45900  0.72221  1.0000
  C   C324      1.0  0.99158  0.25446  0.95669  1.0000
  H   H569      1.0  0.13927  0.45425  0.91260  1.0000
  C   C325      1.0  0.14848  0.45222  0.80241  1.0000
  H   H570      1.0  0.22024  0.25509  0.90114  1.0000
  H   H571      1.0  0.08117  0.26321  0.75810  1.0000
  S   S97       1.0  0.26319  0.24947  0.66110  1.0000
  H   H572      1.0  0.13767  0.47887  0.81134  1.0000
  C   C326      1.0  0.12397  0.44693  0.89684  1.0000
  H   H573      1.0  0.31228  0.28951  0.56719  1.0000
  H   H574      1.0  0.03142  0.30758  0.82049  1.0000
  H   H575      1.0  0.11655  0.40311  0.95952  1.0000
  H   H576      1.0  0.05105  0.47672  0.81452  1.0000
  N   N24       1.0  0.11416  0.44759  0.93232  1.0000
  C   C327      1.0  0.12418  0.45579  0.91298  1.0000
  C   C328      1.0  0.11635  0.45819  0.94567  1.0000
  C   C329      1.0  0.09377  0.45112  0.93190  1.0000
  C   C330      1.0  0.12231  0.42688  0.93690  1.0000
  H   H577      1.0  0.13761  0.42422  0.93098  1.0000
  H   H578      1.0  0.14491  0.44244  0.94826  1.0000
  C   C331      1.0  0.08069  0.44377  0.95020  1.0000
  H   H579      1.0  0.18584  0.25123  0.84568  1.0000
  H   H580      1.0  0.13593  0.27275  0.91328  1.0000
  H   H581      1.0  0.10369  0.44909  0.69705  1.0000
  H   H582      1.0  0.11276  0.40755  0.89344  1.0000
  H   H583      1.0  0.08438  0.35714  0.90810  1.0000
  C   C332      1.0  0.04641  0.44479  0.74223  1.0000
  H   H584      1.0  0.17279  0.41304  0.78533  1.0000
  H   H585      1.0  0.09514  0.37782  0.93358  1.0000
  C   C333      1.0  0.06785  0.38814  0.92489  1.0000
  C   C334      1.0  0.09762  0.40784  0.89888  1.0000
  Fe  Fe46      1.0  0.03909  0.43313  0.84513  1.0000
  H   H586      1.0  0.09800  0.39443  0.72520  1.0000
  C   C335      1.0  0.22063  0.26172  0.73253  1.0000
  H   H587      1.0  0.09709  0.39029  0.88111  1.0000
  H   H588      1.0  0.05375  0.38483  0.93096  1.0000
  C   C336      1.0  0.08093  0.37480  0.93757  1.0000
  H   H589      1.0  0.08198  0.35987  0.93768  1.0000
  H   H590      1.0  0.07446  0.35080  0.88317  1.0000
  C   C337      1.0  0.07285  0.36793  0.90274  1.0000
  S   S98       1.0  0.01026  0.38902  0.82863  1.0000
  S   S99       1.0  0.02263  0.43958  0.82267  1.0000
  H   H591      1.0  0.09470  0.40887  0.91373  1.0000
  C   C338      1.0  0.07405  0.36567  0.88277  1.0000
  N   N25       1.0  0.07368  0.38709  0.90449  1.0000
  H   H592      1.0  0.14345  0.40361  0.79404  1.0000
  C   C339      1.0  0.08134  0.42273  0.75284  1.0000
  C   C340      1.0  0.08253  0.42362  0.71946  1.0000
  H   H593      1.0  0.15821  0.42424  0.82846  1.0000
  C   C341      1.0  0.05415  0.36024  0.81076  1.0000
  H   H594      1.0  0.06527  0.40337  0.87850  1.0000
  H   H595      1.0  0.06123  0.41635  0.89563  1.0000
  H   H596      1.0  0.08691  0.36921  0.87293  1.0000
  C   C342      1.0  0.14356  0.28196  0.91621  1.0000
  C   C343      1.0  0.25889  0.24601  0.72562  1.0000
  H   H597      1.0  0.13863  0.26133  0.86577  1.0000
  H   H598      1.0  0.09860  0.45202  0.73822  1.0000
  N   N26       1.0  0.17736  0.28777  0.90266  1.0000
  C   C344      1.0  0.10226  0.45653  0.70831  1.0000
  S   S100      1.0  0.02913  0.44685  0.87019  1.0000
  H   H599      1.0  0.06957  0.44368  0.86005  1.0000
  H   H600      1.0  0.16371  0.29016  0.94055  1.0000
  H   H601      1.0  0.18433  0.38108  0.97239  1.0000
  C   C345      1.0  0.23133  0.26071  0.74549  1.0000
  H   H602      1.0  0.03726  0.38711  0.90612  1.0000
  C   C346      1.0  0.03978  0.40141  0.90001  1.0000
  H   H603      1.0  0.22485  0.26633  0.75795  1.0000
  C   C347      1.0  0.09978  0.40791  0.71531  1.0000
  C   C348      1.0  0.13280  0.26038  0.85419  1.0000
  N   N27       1.0  0.08259  0.43474  0.73329  1.0000
  Fe  Fe47      1.0  0.99302  0.28476  0.79555  1.0000
  H   H604      1.0  0.06450  0.45850  0.71892  1.0000
  C   C349      1.0  0.04779  0.34083  0.85155  1.0000
  H   H605      1.0  0.11592  0.28821  0.85589  1.0000
  C   C350      1.0  0.18476  0.39500  0.97325  1.0000
  H   H606      1.0  0.07186  0.31055  0.85042  1.0000
  C   C351      1.0  0.11232  0.45325  0.77116  1.0000
  C   C352      1.0  0.09351  0.45198  0.77779  1.0000
  H   H607      1.0  0.09004  0.45925  0.86872  1.0000
  H   H608      1.0  0.13644  0.46199  0.95953  1.0000
  C   C353      1.0  0.16059  0.42391  0.78981  1.0000
  S   S101      1.0  0.14102  0.47021  0.75041  1.0000
  H   H609      1.0  0.16718  0.26371  0.90233  1.0000
  C   C354      1.0  0.09970  0.41055  0.75834  1.0000
  H   H610      1.0  0.04491  0.43876  0.75748  1.0000
  C   C355      1.0  0.07942  0.46689  0.77200  1.0000
  C   C356      1.0  0.01044  0.25574  0.95226  1.0000
  H   H611      1.0  0.01685  0.26139  0.93803  1.0000
  H   H612      1.0  0.08072  0.44986  0.96199  1.0000
  H   H613      1.0  0.07156  0.41318  0.75553  1.0000
  H   H614      1.0  0.02423  0.32194  0.84557  1.0000
  H   H615      1.0  0.05135  0.30211  0.85285  1.0000
  C   C357      1.0  0.19752  0.43324  0.77508  1.0000
  C   C358      1.0  0.07203  0.29902  0.82756  1.0000
  C   C359      1.0  0.29557  0.31460  0.60626  1.0000
  C   C360      1.0  0.03162  0.32274  0.81628  1.0000
  C   C361      1.0  0.06123  0.31046  0.84270  1.0000
  H   H616      1.0  0.10145  0.40598  0.70086  1.0000
  H   H617      1.0  0.17593  0.43662  0.82311  1.0000
  H   H618      1.0  0.16377  0.31440  0.93736  1.0000
  H   H619      1.0  0.03509  0.45756  0.74083  1.0000
  H   H620      1.0  0.14373  0.46617  0.93473  1.0000
  C   C362      1.0  0.11720  0.46968  0.75934  1.0000
  C   C363      1.0  0.04904  0.25131  0.76114  1.0000
  H   H621      1.0  0.06630  0.46095  0.74094  1.0000
  H   H622      1.0  0.15527  0.24712  0.72149  1.0000
  C   C364      1.0  0.06546  0.45051  0.73339  1.0000
  C   C365      1.0  0.02088  0.24989  0.96625  1.0000
  H   H623      1.0  0.17364  0.24752  0.82226  1.0000
  H   H624      1.0  0.28499  0.27302  0.71154  1.0000
  H   H625      1.0  0.31617  0.27424  0.59784  1.0000
  H   H626      1.0  0.14922  0.40446  0.81509  1.0000
  S   S102      1.0  0.23328  0.24655  0.84056  1.0000
  C   C366      1.0  0.31723  0.43285  0.49794  1.0000
  H   H627      1.0  0.08254  0.24675  0.78019  1.0000
  C   C367      1.0  0.17387  0.25674  0.66273  1.0000
  H   H628      1.0  0.12065  0.25364  0.86138  1.0000
  H   H629      1.0  0.16119  0.23571  0.66109  1.0000
  C   C368      1.0  0.08719  0.24871  0.76476  1.0000
  H   H630      1.0  0.18530  0.25929  0.66761  1.0000
  H   H631      1.0  0.12998  0.43165  0.89934  1.0000
  H   H632      1.0  0.29336  0.28927  0.69136  1.0000
  H   H633      1.0  0.08821  0.46640  0.92770  1.0000
  H   H634      1.0  0.16743  0.23579  0.87093  1.0000
  H   H635      1.0  0.16058  0.23591  0.80610  1.0000
  H   H636      1.0  0.10987  0.44970  0.89386  1.0000
  H   H637      1.0  0.00534  0.23892  0.90954  1.0000
  H   H638      1.0  0.31672  0.41552  0.56536  1.0000
  H   H639      1.0  0.11841  0.47115  0.90910  1.0000
  H   H640      1.0  0.31647  0.23894  0.60272  1.0000
  H   H641      1.0  0.25473  0.24095  0.70059  1.0000
  H   H642      1.0  0.10260  0.24720  0.76146  1.0000
  H   H643      1.0  0.11545  0.46145  0.70577  1.0000
  C   C369      1.0  0.27610  0.47590  0.74143  1.0000
  C   C370      1.0  0.13659  0.45696  0.94696  1.0000
  C   C371      1.0  0.15519  0.25100  0.70628  1.0000
  Fe  Fe48      1.0  0.22490  0.23565  0.81998  1.0000
  H   H644      1.0  0.30427  0.42336  0.58621  1.0000
  H   H645      1.0  0.31499  0.46745  0.75753  1.0000
  H   H646      1.0  0.05377  0.47754  0.83653  1.0000
  H   H647      1.0  0.15522  0.46377  0.82326  1.0000
  H   H648      1.0  0.30819  0.44044  0.56516  1.0000
  C   C372      1.0  0.31464  0.42673  0.57304  1.0000
  C   C373      1.0  0.06760  0.47417  0.88703  1.0000
  C   C374      1.0  0.99148  0.36694  0.82027  1.0000
  C   C375      1.0  0.04846  0.47727  0.89480  1.0000
  H   H649      1.0  0.07875  0.24271  0.85912  1.0000
  H   H650      1.0  0.16134  0.47634  0.79924  1.0000
  H   H651      1.0  0.17527  0.45721  0.77472  1.0000
  H   H652      1.0  0.08714  0.23720  0.74157  1.0000
  H   H653      1.0  0.18609  0.44501  0.97674  1.0000
  C   C376      1.0  0.08903  0.47876  0.82489  1.0000
  C   C377      1.0  0.31367  0.48277  0.75386  1.0000
  S   S103      1.0  0.31758  0.40478  0.52950  1.0000
  C   C378      1.0  0.17333  0.23584  0.66662  1.0000
  H   H654      1.0  0.14236  0.23763  0.69242  1.0000
  H   H655      1.0  0.32105  0.29742  0.53333  1.0000
  C   C379      1.0  0.08425  0.48334  0.76008  1.0000
  C   C380      1.0  0.15453  0.23373  0.69929  1.0000
  C   C381      1.0  0.08231  0.23406  0.75707  1.0000
  H   H656      1.0  0.04761  0.69403  0.44446  1.0000
  H   H657      1.0  0.28074  0.58894  0.37271  1.0000
  H   H658      1.0  0.00413  0.52890  0.03510  1.0000
  H   H659      1.0  0.03440  0.51120  0.05906  1.0000
  H   H660      1.0  0.20039  0.53752  0.27769  1.0000
  H   H661      1.0  0.00070  0.49498  0.20032  1.0000
  S   S104      1.0  0.21081  0.56815  0.32424  1.0000
  S   S105      1.0  0.27140  0.50801  0.40459  1.0000
  H   H662      1.0  0.23549  0.53586  0.35508  1.0000
  H   H663      1.0  0.99477  0.52571  0.08703  1.0000
  H   H664      1.0  0.02551  0.67129  0.41892  1.0000
  S   S106      1.0  0.14356  0.72635  0.46503  1.0000
  Fe  Fe49      1.0  0.29659  0.68622  0.08311  1.0000
  S   S107      1.0  0.27305  0.69200  0.10723  1.0000
  S   S108      1.0  0.30715  0.65802  0.07551  1.0000
  H   H665      1.0  0.20943  0.54194  0.22139  1.0000
  S   S109      1.0  0.16356  0.50929  0.98127  1.0000
  Fe  Fe50      1.0  0.29184  0.70578  0.11483  1.0000
  S   S110      1.0  0.29559  0.69912  0.14441  1.0000
  C   C382      1.0  0.02615  0.50118  0.17835  1.0000
  S   S111      1.0  0.31616  0.69736  0.09254  1.0000
  S   S112      1.0  0.20824  0.60025  0.28575  1.0000
  Fe  Fe51      1.0  0.25848  0.58059  0.10176  1.0000
  S   S113      1.0  0.24444  0.61049  0.10303  1.0000
  Fe  Fe52      1.0  0.16256  0.69100  0.22735  1.0000
  N   N28       1.0  0.23265  0.55503  0.21791  1.0000
  S   S114      1.0  0.14040  0.69396  0.25376  1.0000
  Fe  Fe53      1.0  0.18553  0.66092  0.20545  1.0000
  S   S115      1.0  0.20453  0.67946  0.18666  1.0000
  S   S116      1.0  0.19121  0.63057  0.20387  1.0000
  Fe  Fe54      1.0  0.20412  0.68890  0.21244  1.0000
  S   S117      1.0  0.23081  0.69088  0.21859  1.0000
  H   H666      1.0  0.02576  0.68682  0.39673  1.0000
  H   H667      1.0  0.05259  0.53075  0.13189  1.0000
  S   S118      1.0  0.18777  0.66810  0.23150  1.0000
  S   S119      1.0  0.15896  0.68209  0.20262  1.0000
  H   H668      1.0  0.04784  0.50139  0.98806  1.0000
  Fe  Fe55      1.0  0.13726  0.56819  0.18649  1.0000
  S   S120      1.0  0.13339  0.59979  0.17953  1.0000
  Fe  Fe56      1.0  0.25712  0.70620  0.30599  1.0000
  H   H669      1.0  0.30440  0.57867  0.19726  1.0000
  S   S121      1.0  0.26671  0.67560  0.30428  1.0000
  H   H670      1.0  0.23123  0.53579  0.19031  1.0000
  C   C383      1.0  0.00175  0.53062  0.18141  1.0000
  H   H671      1.0  0.08274  0.68310  0.40158  1.0000
  H   H672      1.0  0.04186  0.70475  0.41432  1.0000
  H   H673      1.0  0.20507  0.56583  0.21108  1.0000
  H   H674      1.0  0.01523  0.69555  0.41767  1.0000
  H   H675      1.0  0.06912  0.63856  0.40216  1.0000
  C   C384      1.0  0.14276  0.50382  0.98029  1.0000
  C   C385      1.0  0.18089  0.71538  0.26563  1.0000
  Fe  Fe57      1.0  0.21915  0.59602  0.31155  1.0000
  S   S122      1.0  0.21172  0.61948  0.32732  1.0000
  C   C386      1.0  0.25085  0.66064  0.31054  1.0000
  C   C387      1.0  0.25490  0.64559  0.30158  1.0000
  C   C388      1.0  0.24272  0.63320  0.30632  1.0000
  C   C389      1.0  0.22672  0.63541  0.32049  1.0000
  C   C390      1.0  0.22271  0.65039  0.32958  1.0000
  C   C391      1.0  0.23466  0.66312  0.32448  1.0000
  H   H676      1.0  0.26743  0.64361  0.29080  1.0000
  H   H677      1.0  0.24586  0.62185  0.29911  1.0000
  H   H678      1.0  0.21037  0.65214  0.34061  1.0000
  H   H679      1.0  0.23155  0.67463  0.33156  1.0000
  C   C392      1.0  0.23058  0.71000  0.22772  1.0000
  C   C393      1.0  0.24556  0.70946  0.23548  1.0000
  H   H680      1.0  0.14740  0.57294  0.98752  1.0000
  C   C394      1.0  0.20876  0.57683  0.23906  1.0000
  H   H681      1.0  0.04311  0.48623  0.04524  1.0000
  H   H682      1.0  0.24898  0.65516  0.14302  1.0000
  H   H683      1.0  0.25720  0.69759  0.23557  1.0000
  C   C395      1.0  0.11544  0.49037  0.99539  1.0000
  H   H684      1.0  0.19592  0.70223  0.29683  1.0000
  C   C396      1.0  0.02685  0.52268  0.04948  1.0000
  C   C397      1.0  0.17460  0.62263  0.19732  1.0000
  C   C398      1.0  0.17536  0.60336  0.20126  1.0000
  C   C399      1.0  0.16255  0.59631  0.19617  1.0000
  C   C400      1.0  0.14908  0.60851  0.18669  1.0000
  C   C401      1.0  0.14819  0.62789  0.18280  1.0000
  C   C402      1.0  0.16079  0.63498  0.18832  1.0000
  H   H685      1.0  0.18545  0.59391  0.20890  1.0000
  H   H686      1.0  0.16296  0.58145  0.19989  1.0000
  H   H687      1.0  0.13763  0.63743  0.17564  1.0000
  H   H688      1.0  0.15996  0.64991  0.18540  1.0000
  H   H689      1.0  0.29880  0.68240  0.19793  1.0000
  H   H690      1.0  0.03686  0.52873  0.03730  1.0000
  C   C403      1.0  0.29786  0.72560  0.21935  1.0000
  H   H691      1.0  0.17509  0.69056  0.26209  1.0000
  S   S123      1.0  0.02155  0.50192  0.10824  1.0000
  H   H692      1.0  0.02070  0.54526  0.18708  1.0000
  H   H693      1.0  0.31713  0.64379  0.22101  1.0000
  S   S124      1.0  0.27041  0.72492  0.28041  1.0000
  H   H694      1.0  0.22486  0.49827  0.10088  1.0000
  Fe  Fe58      1.0  0.17818  0.70136  0.18549  1.0000
  C   C404      1.0  0.28959  0.64507  0.08202  1.0000
  C   C405      1.0  0.27072  0.65405  0.08499  1.0000
  C   C406      1.0  0.25685  0.64342  0.09067  1.0000
  C   C407      1.0  0.26180  0.62382  0.09411  1.0000
  C   C408      1.0  0.28067  0.61490  0.09077  1.0000
  C   C409      1.0  0.29453  0.62554  0.08450  1.0000
  H   H695      1.0  0.26684  0.66918  0.08250  1.0000
  H   H696      1.0  0.24235  0.65038  0.09223  1.0000
  H   H697      1.0  0.28466  0.59980  0.09300  1.0000
  H   H698      1.0  0.30908  0.61859  0.08174  1.0000
  C   C410      1.0  0.30348  0.71693  0.14880  1.0000
  H   H699      1.0  0.23542  0.70214  0.17771  1.0000
  H   H700      1.0  0.15853  0.54864  0.98811  1.0000
  H   H701      1.0  0.02246  0.48462  0.20698  1.0000
  H   H702      1.0  0.13516  0.49625  0.14029  1.0000
  H   H703      1.0  0.25640  0.72279  0.25074  1.0000
  H   H704      1.0  0.30116  0.71772  0.01808  1.0000
  C   C411      1.0  0.08661  0.49234  0.20453  1.0000
  C   C412      1.0  0.30364  0.55865  0.22350  1.0000
  H   H705      1.0  0.25766  0.55865  0.37648  1.0000
  C   C413      1.0  0.23370  0.57667  0.36663  1.0000
  H   H706      1.0  0.28067  0.67957  0.18841  1.0000
  H   H707      1.0  0.25774  0.49173  0.09572  1.0000
  H   H708      1.0  0.10999  0.49723  0.11407  1.0000
  C   C414      1.0  0.29693  0.73296  0.01250  1.0000
  C   C415      1.0  0.25139  0.52341  0.37684  1.0000
  H   H709      1.0  0.23951  0.52628  0.38808  1.0000
  C   C416      1.0  0.03863  0.49464  0.00059  1.0000
  H   H710      1.0  0.21004  0.53735  0.05470  1.0000
  H   H711      1.0  0.06777  0.71350  0.41373  1.0000
  H   H712      1.0  0.27009  0.51909  0.23112  1.0000
  C   C417      1.0  0.31290  0.63006  0.22534  1.0000
  H   H713      1.0  0.04504  0.50933  0.01780  1.0000
  H   H714      1.0  0.29505  0.58744  0.35046  1.0000
  C   C418      1.0  0.24509  0.72376  0.24421  1.0000
  H   H715      1.0  0.05942  0.66214  0.39208  1.0000
  C   C419      1.0  0.22816  0.73040  0.42865  1.0000
  C   C420      1.0  0.23896  0.50083  0.03619  1.0000
  C   C421      1.0  0.04082  0.52336  0.13793  1.0000
  H   H716      1.0  0.03253  0.52647  0.12697  1.0000
  C   C422      1.0  0.02782  0.72002  0.46831  1.0000
  H   H717      1.0  0.31548  0.66184  0.11958  1.0000
  C   C423      1.0  0.24525  0.53577  0.22089  1.0000
  C   C424      1.0  0.12581  0.71755  0.27869  1.0000
  C   C425      1.0  0.19554  0.66195  0.28424  1.0000
  C   C426      1.0  0.25560  0.50179  0.04048  1.0000
  C   C427      1.0  0.01069  0.53609  0.19475  1.0000
  C   C428      1.0  0.03343  0.67141  0.45407  1.0000
  H   H718      1.0  0.12525  0.56183  0.97996  1.0000
  C   C429      1.0  0.07811  0.70178  0.41987  1.0000
  H   H719      1.0  0.21849  0.58922  0.19662  1.0000
  H   H720      1.0  0.20027  0.65336  0.29719  1.0000
  N   N29       1.0  0.01903  0.50062  0.03301  1.0000
  H   H721      1.0  0.10265  0.71577  0.43968  1.0000
  C   C430      1.0  0.29527  0.56100  0.37042  1.0000
  C   C431      1.0  0.20830  0.71316  0.13864  1.0000
  H   H722      1.0  0.16842  0.66860  0.13499  1.0000
  C   C432      1.0  0.25248  0.61511  0.35693  1.0000
  H   H723      1.0  0.27221  0.60569  0.33335  1.0000
  H   H724      1.0  0.25005  0.60038  0.33697  1.0000
  C   C433      1.0  0.06873  0.65346  0.40168  1.0000
  H   H725      1.0  0.25863  0.62772  0.35046  1.0000
  H   H726      1.0  0.06209  0.67194  0.45168  1.0000
  H   H727      1.0  0.09210  0.70485  0.41282  1.0000
  C   C434      1.0  0.13168  0.49518  0.99645  1.0000
  H   H728      1.0  0.99035  0.52375  0.19038  1.0000
  C   C435      1.0  0.01195  0.51634  0.04356  1.0000
  S   S125      1.0  0.22806  0.72342  0.30597  1.0000
  H   H729      1.0  0.02691  0.49277  0.99555  1.0000
  C   C436      1.0  0.29351  0.55388  0.24178  1.0000
  H   H730      1.0  0.08319  0.65563  0.39575  1.0000
  H   H731      1.0  0.20820  0.66067  0.27277  1.0000
  C   C437      1.0  0.22282  0.52745  0.05075  1.0000
  S   S126      1.0  0.17923  0.71240  0.20988  1.0000
  H   H732      1.0  0.11872  0.48589  0.08262  1.0000
  C   C438      1.0  0.23326  0.58822  0.19656  1.0000
  H   H733      1.0  0.26924  0.56233  0.26251  1.0000
  Fe  Fe59      1.0  0.30041  0.49967  0.41091  1.0000
  C   C439      1.0  0.27677  0.56585  0.24822  1.0000
  C   C440      1.0  0.21626  0.55310  0.21136  1.0000
  H   H734      1.0  0.22993  0.69265  0.28772  1.0000
  N   N30       1.0  0.18812  0.68213  0.28604  1.0000
  H   H735      1.0  0.30193  0.55204  0.35998  1.0000
  H   H736      1.0  0.16726  0.67451  0.15682  1.0000
  Fe  Fe60      1.0  0.17781  0.48928  0.00375  1.0000
  H   H737      1.0  0.99261  0.63563  0.27136  1.0000
  H   H738      1.0  0.20973  0.51331  0.03814  1.0000
  C   C441      1.0  0.00294  0.49609  0.02797  1.0000
  H   H739      1.0  0.14566  0.55564  0.24749  1.0000
  H   H740      1.0  0.29881  0.54116  0.25111  1.0000
  H   H741      1.0  0.30232  0.57053  0.32786  1.0000
  H   H742      1.0  0.23757  0.56531  0.23991  1.0000
  H   H743      1.0  0.99108  0.49183  0.17472  1.0000
  H   H744      1.0  0.19065  0.50043  0.11205  1.0000
  S   S127      1.0  0.28781  0.71302  0.06329  1.0000
  H   H745      1.0  0.20391  0.67868  0.30707  1.0000
  H   H746      1.0  0.23709  0.52516  0.22997  1.0000
  H   H747      1.0  0.15827  0.68271  0.29327  1.0000
  C   C442      1.0  0.22228  0.71545  0.12229  1.0000
  N   N31       1.0  0.18233  0.58394  0.12450  1.0000
  C   C443      1.0  0.19283  0.56668  0.13574  1.0000
  C   C444      1.0  0.16878  0.57762  0.11732  1.0000
  C   C445      1.0  0.17188  0.59713  0.13753  1.0000
  C   C446      1.0  0.19649  0.59263  0.10888  1.0000
  C   C447      1.0  0.20474  0.57008  0.14773  1.0000
  C   C448      1.0  0.17763  0.56378  0.10404  1.0000
  C   C449      1.0  0.15480  0.61189  0.13190  1.0000
  C   C450      1.0  0.18902  0.60963  0.09441  1.0000
  H   H748      1.0  0.18302  0.55802  0.14547  1.0000
  H   H749      1.0  0.20246  0.55746  0.12644  1.0000
  H   H750      1.0  0.15968  0.58955  0.10973  1.0000
  H   H751      1.0  0.15894  0.57081  0.12932  1.0000
  H   H752      1.0  0.16633  0.58904  0.15162  1.0000
  H   H753      1.0  0.18147  0.60477  0.13985  1.0000
  H   H754      1.0  0.20598  0.59752  0.11460  1.0000
  H   H755      1.0  0.20621  0.58211  0.10102  1.0000
  H   H756      1.0  0.19591  0.57625  0.15976  1.0000
  H   H757      1.0  0.21301  0.55632  0.15362  1.0000
  H   H758      1.0  0.21490  0.57886  0.13949  1.0000
  H   H759      1.0  0.18487  0.55011  0.11124  1.0000
  H   H760      1.0  0.16635  0.56080  0.09916  1.0000
  H   H761      1.0  0.18734  0.56960  0.09139  1.0000
  H   H762      1.0  0.15004  0.62183  0.14153  1.0000
  H   H763      1.0  0.14288  0.60520  0.13369  1.0000
  H   H764      1.0  0.15773  0.62025  0.11754  1.0000
  H   H765      1.0  0.18686  0.62289  0.09912  1.0000
  H   H766      1.0  0.17613  0.60869  0.09087  1.0000
  H   H767      1.0  0.19948  0.61021  0.08095  1.0000
  H   H768      1.0  0.23722  0.61998  0.35754  1.0000
  C   C451      1.0  0.18605  0.69399  0.26698  1.0000
  H   H769      1.0  0.18942  0.64326  0.27017  1.0000
  C   C452      1.0  0.01623  0.73058  0.43403  1.0000
  H   H770      1.0  0.99987  0.50542  0.01456  1.0000
  H   H771      1.0  0.21020  0.59006  0.22885  1.0000
  H   H772      1.0  0.22063  0.69798  0.26731  1.0000
  S   S128      1.0  0.17201  0.72083  0.15876  1.0000
  H   H773      1.0  0.30650  0.52629  0.12714  1.0000
  H   H774      1.0  0.23326  0.49564  0.07772  1.0000
  C   C453      1.0  0.13536  0.71576  0.26041  1.0000
  H   H775      1.0  0.23406  0.59804  0.20483  1.0000
  C   C454      1.0  0.07491  0.49722  0.17110  1.0000
  H   H776      1.0  0.28752  0.56054  0.17406  1.0000
  H   H777      1.0  0.02224  0.72515  0.38933  1.0000
  H   H778      1.0  0.99728  0.56104  0.00183  1.0000
  C   C455      1.0  0.00601  0.72006  0.44945  1.0000
  H   H779      1.0  0.23976  0.59325  0.18169  1.0000
  H   H780      1.0  0.22536  0.56063  0.18065  1.0000
  C   C456      1.0  0.31557  0.64945  0.13127  1.0000
  H   H781      1.0  0.03462  0.49213  0.16840  1.0000
  S   S129      1.0  0.08958  0.52902  0.19855  1.0000
  H   H782      1.0  0.29785  0.50375  0.36950  1.0000
  C   C457      1.0  0.28181  0.51563  0.34782  1.0000
  C   C458      1.0  0.06147  0.65722  0.42170  1.0000
  C   C459      1.0  0.18174  0.65225  0.28042  1.0000
  H   H783      1.0  0.99953  0.54415  0.20417  1.0000
  C   C460      1.0  0.22124  0.68803  0.28084  1.0000
  C   C461      1.0  0.29119  0.67208  0.19710  1.0000
  N   N32       1.0  0.27904  0.64367  0.22055  1.0000
  C   C462      1.0  0.27118  0.63767  0.24124  1.0000
  C   C463      1.0  0.29723  0.63003  0.21588  1.0000
  C   C464      1.0  0.26517  0.64266  0.20989  1.0000
  C   C465      1.0  0.28168  0.66344  0.21703  1.0000
  C   C466      1.0  0.25108  0.64783  0.24873  1.0000
  H   H784      1.0  0.28259  0.53807  0.18562  1.0000
  C   C467      1.0  0.27244  0.64123  0.18912  1.0000
  C   C468      1.0  0.04961  0.72808  0.34570  1.0000
  H   H785      1.0  0.27126  0.62238  0.24499  1.0000
  H   H786      1.0  0.27996  0.63975  0.24987  1.0000
  H   H787      1.0  0.01771  0.52360  0.20382  1.0000
  H   H788      1.0  0.29487  0.61547  0.21963  1.0000
  H   H789      1.0  0.25878  0.63022  0.21676  1.0000
  H   H790      1.0  0.25331  0.65502  0.21027  1.0000
  H   H791      1.0  0.26797  0.67306  0.21994  1.0000
  H   H792      1.0  0.28919  0.66504  0.22713  1.0000
  H   H793      1.0  0.24067  0.64579  0.24197  1.0000
  H   H794      1.0  0.24698  0.64179  0.26390  1.0000
  H   H795      1.0  0.25007  0.66298  0.24740  1.0000
  C   C469      1.0  0.29407  0.54549  0.17819  1.0000
  H   H796      1.0  0.02538  0.52147  0.00771  1.0000
  H   H797      1.0  0.12356  0.49049  0.17424  1.0000
  H   H798      1.0  0.26036  0.64186  0.18312  1.0000
  H   H799      1.0  0.28214  0.62762  0.18758  1.0000
  H   H800      1.0  0.27915  0.65283  0.18045  1.0000
  H   H801      1.0  0.11465  0.73034  0.38801  1.0000
  H   H802      1.0  0.30608  0.64094  0.13044  1.0000
  H   H803      1.0  0.22116  0.72882  0.18859  1.0000
  N   N33       1.0  0.13654  0.62628  0.25555  1.0000
  C   C470      1.0  0.15305  0.61704  0.26476  1.0000
  C   C471      1.0  0.11922  0.62694  0.27097  1.0000
  C   C472      1.0  0.13887  0.64591  0.24541  1.0000
  C   C473      1.0  0.13661  0.61485  0.24196  1.0000
  C   C474      1.0  0.17251  0.61645  0.25171  1.0000
  C   C475      1.0  0.11519  0.60776  0.28245  1.0000
  C   C476      1.0  0.12099  0.66061  0.24185  1.0000
  C   C477      1.0  0.11985  0.62039  0.23231  1.0000
  H   H804      1.0  0.15273  0.62406  0.27610  1.0000
  H   H805      1.0  0.15264  0.60221  0.27164  1.0000
  H   H806      1.0  0.10645  0.63461  0.26559  1.0000
  H   H807      1.0  0.12003  0.63504  0.28098  1.0000
  H   H808      1.0  0.14536  0.65202  0.25337  1.0000
  H   H809      1.0  0.14870  0.64569  0.23157  1.0000
  H   H810      1.0  0.14897  0.61564  0.23034  1.0000
  H   H811      1.0  0.13866  0.59960  0.24829  1.0000
  H   H812      1.0  0.17482  0.60782  0.24124  1.0000
  H   H813      1.0  0.17509  0.63061  0.24464  1.0000
  H   H814      1.0  0.18328  0.60967  0.26021  1.0000
  H   H815      1.0  0.10151  0.61008  0.29240  1.0000
  H   H816      1.0  0.11411  0.59881  0.27347  1.0000
  H   H817      1.0  0.12572  0.60011  0.29108  1.0000
  H   H818      1.0  0.12499  0.67358  0.23250  1.0000
  H   H819      1.0  0.11241  0.66471  0.25507  1.0000
  H   H820      1.0  0.11240  0.65599  0.23496  1.0000
  H   H821      1.0  0.12198  0.63158  0.21954  1.0000
  H   H822      1.0  0.10627  0.62469  0.24155  1.0000
  H   H823      1.0  0.11853  0.60792  0.22799  1.0000
  H   H824      1.0  0.23146  0.73342  0.45584  1.0000
  H   H825      1.0  0.25158  0.56208  0.19124  1.0000
  S   S130      1.0  0.16570  0.54968  0.18593  1.0000
  H   H826      1.0  0.08779  0.67191  0.42404  1.0000
  H   H827      1.0  0.02142  0.54513  0.15053  1.0000
  C   C478      1.0  0.01177  0.71501  0.46666  1.0000
  C   C479      1.0  0.12383  0.49094  0.13798  1.0000
  C   C480      1.0  0.27312  0.56779  0.34099  1.0000
  Fe  Fe61      1.0  0.98950  0.72166  0.37878  1.0000
  H   H828      1.0  0.26862  0.51585  0.05349  1.0000
  C   C481      1.0  0.16846  0.67177  0.31902  1.0000
  C   C482      1.0  0.98957  0.51321  0.09452  1.0000
  C   C483      1.0  0.08658  0.50948  0.19172  1.0000
  H   H829      1.0  0.25507  0.57006  0.20947  1.0000
  H   H830      1.0  0.25132  0.58062  0.38279  1.0000
  H   H831      1.0  0.21168  0.70346  0.15112  1.0000
  H   H832      1.0  0.01973  0.53395  0.05741  1.0000
  H   H833      1.0  0.17709  0.50593  0.09457  1.0000
  H   H834      1.0  0.31046  0.50104  0.13499  1.0000
  C   C484      1.0  0.25321  0.57390  0.37082  1.0000
  H   H835      1.0  0.15383  0.67437  0.32711  1.0000
  C   C485      1.0  0.22619  0.56091  0.23655  1.0000
  H   H836      1.0  0.25869  0.69576  0.16551  1.0000
  H   H837      1.0  0.20772  0.54697  0.18887  1.0000
  C   C486      1.0  0.05108  0.67908  0.44338  1.0000
  C   C487      1.0  0.02722  0.68550  0.41129  1.0000
  H   H838      1.0  0.05330  0.69306  0.39593  1.0000
  C   C488      1.0  0.30191  0.50566  0.17110  1.0000
  H   H839      1.0  0.25743  0.53652  0.24424  1.0000
  H   H840      1.0  0.29511  0.54051  0.15139  1.0000
  H   H841      1.0  0.30185  0.66187  0.18972  1.0000
  H   H842      1.0  0.99966  0.52756  0.14596  1.0000
  C   C489      1.0  0.25580  0.51539  0.05009  1.0000
  C   C490      1.0  0.22941  0.51878  0.13448  1.0000
  C   C491      1.0  0.20160  0.51412  0.16690  1.0000
  H   H843      1.0  0.16468  0.69919  0.30165  1.0000
  H   H844      1.0  0.17634  0.64249  0.29331  1.0000
  H   H845      1.0  0.29157  0.56081  0.31544  1.0000
  C   C492      1.0  0.19159  0.50167  0.09699  1.0000
  N   N34       1.0  0.20568  0.65541  0.13422  1.0000
  C   C493      1.0  0.22628  0.65507  0.13066  1.0000
  C   C494      1.0  0.20179  0.65158  0.11718  1.0000
  C   C495      1.0  0.19999  0.64065  0.15103  1.0000
  C   C496      1.0  0.19480  0.67431  0.13791  1.0000
  C   C497      1.0  0.23349  0.65734  0.14700  1.0000
  C   C498      1.0  0.20137  0.66804  0.10002  1.0000
  C   C499      1.0  0.21149  0.62052  0.15082  1.0000
  C   C500      1.0  0.17329  0.67735  0.14154  1.0000
  H   H846      1.0  0.23478  0.64180  0.12654  1.0000
  H   H847      1.0  0.23022  0.66644  0.11862  1.0000
  H   H848      1.0  0.18833  0.64695  0.12046  1.0000
  H   H849      1.0  0.21245  0.63961  0.11235  1.0000
  H   H850      1.0  0.20044  0.64431  0.16417  1.0000
  H   H851      1.0  0.18514  0.64006  0.15263  1.0000
  H   H852      1.0  0.19771  0.67685  0.15054  1.0000
  H   H853      1.0  0.19942  0.68589  0.12650  1.0000
  H   H854      1.0  0.23008  0.64694  0.16008  1.0000
  H   H855      1.0  0.22294  0.54878  0.24800  1.0000
  H   H856      1.0  0.22833  0.67172  0.14962  1.0000
  H   H857      1.0  0.18865  0.67921  0.10234  1.0000
  H   H858      1.0  0.21389  0.67425  0.09624  1.0000
  H   H859      1.0  0.20100  0.66286  0.08771  1.0000
  H   H860      1.0  0.20514  0.61078  0.16318  1.0000
  H   H861      1.0  0.22609  0.61910  0.15195  1.0000
  H   H862      1.0  0.21152  0.61581  0.13814  1.0000
  S   S131      1.0  0.31748  0.52129  0.40536  1.0000
  H   H863      1.0  0.07630  0.70165  0.43494  1.0000
  H   H864      1.0  0.22008  0.72248  0.42440  1.0000
  C   C501      1.0  0.26085  0.60034  0.34450  1.0000
  C   C502      1.0  0.18747  0.53161  0.25822  1.0000
  H   H865      1.0  0.20404  0.72612  0.22179  1.0000
  H   H866      1.0  0.31486  0.54791  0.15264  1.0000
  H   H867      1.0  0.23624  0.70723  0.12219  1.0000
  C   C503      1.0  0.28476  0.58052  0.36171  1.0000
  H   H868      1.0  0.31618  0.56603  0.11908  1.0000
  C   C504      1.0  0.26899  0.51448  0.38102  1.0000
  C   C505      1.0  0.19003  0.72353  0.13876  1.0000
  N   N35       1.0  0.26797  0.58070  0.35452  1.0000
  H   H869      1.0  0.25956  0.72701  0.14732  1.0000
  C   C506      1.0  0.08070  0.51185  0.17494  1.0000
  C   C507      1.0  0.26196  0.53376  0.22985  1.0000
  C   C508      1.0  0.03205  0.50744  0.01500  1.0000
  C   C509      1.0  0.24908  0.52888  0.35818  1.0000
  C   C510      1.0  0.30529  0.53827  0.16036  1.0000
  C   C511      1.0  0.21139  0.51871  0.13318  1.0000
  C   C512      1.0  0.03825  0.73015  0.45271  1.0000
  H   H870      1.0  0.02109  0.67888  0.44794  1.0000
  N   N36       1.0  0.01509  0.51883  0.16822  1.0000
  H   H871      1.0  0.22474  0.71240  0.45639  1.0000
  C   C513      1.0  0.12286  0.49889  0.11720  1.0000
  H   H872      1.0  0.19587  0.57262  0.23898  1.0000
  H   H873      1.0  0.00171  0.51258  0.05664  1.0000
  H   H874      1.0  0.22678  0.59167  0.36337  1.0000
  H   H875      1.0  0.16739  0.69216  0.13550  1.0000
  S   S132      1.0  0.27499  0.57157  0.07521  1.0000
  H   H876      1.0  0.16741  0.71988  0.27502  1.0000
  S   S133      1.0  0.26265  0.72024  0.32620  1.0000
  S   S134      1.0  0.27952  0.52815  0.09983  1.0000
  H   H877      1.0  0.99835  0.61160  0.28195  1.0000
  H   H878      1.0  0.20814  0.52104  0.11958  1.0000
  H   H879      1.0  0.17247  0.65667  0.31865  1.0000
  C   C514      1.0  0.15772  0.55184  0.25382  1.0000
  H   H880      1.0  0.26091  0.56823  0.33528  1.0000
  H   H881      1.0  0.04866  0.65151  0.42750  1.0000
  H   H882      1.0  0.25474  0.61034  0.37142  1.0000
  C   C515      1.0  0.02880  0.53052  0.15560  1.0000
  C   C516      1.0  0.23175  0.48756  0.09231  1.0000
  N   N37       1.0  0.05838  0.67734  0.42320  1.0000
  C   C517      1.0  0.23933  0.52824  0.05535  1.0000
  H   H883      1.0  0.30674  0.56277  0.37594  1.0000
  H   H884      1.0  0.30321  0.63240  0.20067  1.0000
  C   C518      1.0  0.23335  0.51739  0.15190  1.0000
  Fe  Fe62      1.0  0.29403  0.55226  0.09396  1.0000
  S   S135      1.0  0.23810  0.54488  0.06852  1.0000
  H   H885      1.0  0.22279  0.51231  0.18177  1.0000
  H   H886      1.0  0.30304  0.54470  0.18789  1.0000
  C   C519      1.0  0.28899  0.57162  0.32385  1.0000
  H   H887      1.0  0.07153  0.64805  0.43042  1.0000
  C   C520      1.0  0.00464  0.51454  0.15596  1.0000
  Fe  Fe63      1.0  0.23978  0.55610  0.30948  1.0000
  H   H888      1.0  0.27171  0.54283  0.22112  1.0000
  H   H889      1.0  0.27428  0.59921  0.20831  1.0000
  S   S136      1.0  0.12917  0.55247  0.16958  1.0000
  H   H890      1.0  0.19900  0.69086  0.25621  1.0000
  H   H891      1.0  0.03880  0.53186  0.16338  1.0000
  C   C521      1.0  0.24848  0.70739  0.17133  1.0000
  H   H892      1.0  0.28511  0.58539  0.31452  1.0000
  C   C522      1.0  0.18859  0.54170  0.27094  1.0000
  H   H893      1.0  0.07049  0.49918  0.15817  1.0000
  H   H894      1.0  0.20660  0.57997  0.25309  1.0000
  S   S137      1.0  0.17478  0.56947  0.29171  1.0000
  H   H895      1.0  0.03683  0.50451  0.18386  1.0000
  H   H896      1.0  0.24009  0.52060  0.12188  1.0000
  H   H897      1.0  0.29359  0.50821  0.18501  1.0000
  C   C523      1.0  0.19733  0.51699  0.14934  1.0000
  C   C524      1.0  0.17412  0.55671  0.27542  1.0000
  Fe  Fe64      1.0  0.20242  0.57133  0.29679  1.0000
  H   H898      1.0  0.16993  0.66195  0.27460  1.0000
  S   S138      1.0  0.26222  0.53197  0.31993  1.0000
  Fe  Fe65      1.0  0.23681  0.58563  0.27377  1.0000
  H   H899      1.0  0.23410  0.57003  0.35509  1.0000
  H   H900      1.0  0.19848  0.51968  0.25524  1.0000
  H   H901      1.0  0.12278  0.72411  0.43869  1.0000
  C   C525      1.0  0.24384  0.56820  0.20368  1.0000
  C   C526      1.0  0.04574  0.69066  0.41086  1.0000
  C   C527      1.0  0.28424  0.51067  0.36643  1.0000
  Fe  Fe66      1.0  0.15622  0.53216  0.17213  1.0000
  S   S139      1.0  0.12384  0.55250  0.21418  1.0000
  S   S140      1.0  0.24852  0.58381  0.29853  1.0000
  H   H902      1.0  0.01409  0.50477  0.14714  1.0000
  C   C528      1.0  0.15857  0.56152  0.26703  1.0000
  H   H903      1.0  0.14700  0.57257  0.27098  1.0000
  H   H904      1.0  0.19876  0.51322  0.08872  1.0000
  S   S141      1.0  0.24113  0.55924  0.10914  1.0000
  S   S142      1.0  0.27848  0.56303  0.11984  1.0000
  C   C529      1.0  0.29677  0.57509  0.21147  1.0000
  C   C530      1.0  0.17209  0.53667  0.24952  1.0000
  C   C531      1.0  0.99989  0.49927  0.10631  1.0000
  S   S143      1.0  0.30426  0.48822  0.44063  1.0000
  Fe  Fe67      1.0  0.15220  0.53309  0.21294  1.0000
  H   H905      1.0  0.32011  0.51514  0.19127  1.0000
  C   C532      1.0  0.21561  0.72549  0.22779  1.0000
  C   C533      1.0  0.07729  0.68264  0.41684  1.0000
  N   N38       1.0  0.31585  0.51816  0.16325  1.0000
  Fe  Fe68      1.0  0.26564  0.71996  0.08839  1.0000
  H   H906      1.0  0.27714  0.55302  0.34828  1.0000
  H   H907      1.0  0.12108  0.70566  0.28854  1.0000
  H   H908      1.0  0.08022  0.52519  0.16513  1.0000
  H   H909      1.0  0.19084  0.51238  0.17949  1.0000
  H   H910      1.0  0.25140  0.53101  0.20746  1.0000
  C   C534      1.0  0.21970  0.51407  0.16820  1.0000
  H   H911      1.0  0.26836  0.49189  0.03647  1.0000
  S   S144      1.0  0.18472  0.49746  0.02715  1.0000
  S   S145      1.0  0.17416  0.52050  0.14735  1.0000
  H   H912      1.0  0.22458  0.56992  0.37927  1.0000
  H   H913      1.0  0.20848  0.73038  0.17169  1.0000
  S   S146      1.0  0.01553  0.71819  0.35623  1.0000
  C   C535      1.0  0.26429  0.52495  0.34360  1.0000
  C   C536      1.0  0.22259  0.51376  0.04140  1.0000
  C   C537      1.0  0.16934  0.68460  0.29932  1.0000
  H   H914      1.0  0.29363  0.51257  0.33660  1.0000
  Fe  Fe69      1.0  0.25874  0.54856  0.08368  1.0000
  C   C538      1.0  0.01535  0.48861  0.19497  1.0000
  H   H915      1.0  0.12231  0.51420  0.11401  1.0000
  H   H916      1.0  0.04687  0.50814  0.14089  1.0000
  Fe  Fe70      1.0  0.11799  0.53488  0.19713  1.0000
  H   H917      1.0  0.22864  0.67385  0.27847  1.0000
  Fe  Fe71      1.0  0.26281  0.54046  0.12448  1.0000
  S   S147      1.0  0.17110  0.52315  0.23406  1.0000
  H   H918      1.0  0.28613  0.55349  0.38240  1.0000
  C   C539      1.0  0.27979  0.58675  0.21774  1.0000
  S   S148      1.0  0.14500  0.51372  0.19886  1.0000
  S   S149      1.0  0.25414  0.52275  0.15282  1.0000
  S   S150      1.0  0.23065  0.55689  0.28317  1.0000
  C   C540      1.0  0.26996  0.58231  0.23619  1.0000
  H   H919      1.0  0.12167  0.71397  0.41996  1.0000
  S   S151      1.0  0.24911  0.59733  0.24396  1.0000
  C   C541      1.0  0.24553  0.72462  0.15530  1.0000
  H   H920      1.0  0.02983  0.67399  0.46851  1.0000
  H   H921      1.0  0.29112  0.50910  0.16250  1.0000
  H   H922      1.0  0.20236  0.48692  0.07475  1.0000
  H   H923      1.0  0.17720  0.67489  0.32697  1.0000
  C   C542      1.0  0.20167  0.68805  0.29354  1.0000
  C   C543      1.0  0.22069  0.54888  0.19166  1.0000
  H   H924      1.0  0.13876  0.72315  0.37904  1.0000
  H   H925      1.0  0.99440  0.54381  0.17333  1.0000
  H   H926      1.0  0.19201  0.72065  0.26831  1.0000
  C   C544      1.0  0.31631  0.71229  0.16040  1.0000
  H   H927      1.0  0.05008  0.72587  0.33202  1.0000
  C   C545      1.0  0.11361  0.72300  0.43002  1.0000
  H   H928      1.0  0.25412  0.71000  0.18223  1.0000
  Fe  Fe72      1.0  0.30579  0.72484  0.07450  1.0000
  C   C546      1.0  0.03419  0.72514  0.36027  1.0000
  H   H929      1.0  0.30916  0.62592  0.24080  1.0000
  H   H930      1.0  0.03557  0.65607  0.45563  1.0000
  H   H931      1.0  0.13540  0.49257  0.00984  1.0000
  H   H932      1.0  0.09056  0.49049  0.21774  1.0000
  H   H933      1.0  0.23992  0.71978  0.14579  1.0000
  H   H934      1.0  0.01509  0.48543  0.07279  1.0000
  H   H935      1.0  0.11073  0.49789  0.14645  1.0000
  C   C547      1.0  0.22266  0.72766  0.45016  1.0000
  H   H936      1.0  0.29568  0.71512  0.21269  1.0000
  C   C548      1.0  0.99209  0.55113  0.99760  1.0000
  C   C549      1.0  0.03375  0.72792  0.37791  1.0000
  H   H937      1.0  0.10692  0.48371  0.00793  1.0000
  H   H938      1.0  0.17916  0.72243  0.25116  1.0000
  H   H939      1.0  0.24298  0.72290  0.42536  1.0000
  C   C550      1.0  0.00272  0.54289  0.98239  1.0000
  C   C551      1.0  0.31711  0.51335  0.13032  1.0000
  H   H940      1.0  0.29188  0.72172  0.23454  1.0000
  S   S152      1.0  0.23581  0.73325  0.08620  1.0000
  H   H941      1.0  0.30961  0.65481  0.14441  1.0000
  H   H942      1.0  0.14810  0.73027  0.23353  1.0000
  H   H943      1.0  0.13538  0.49272  0.10759  1.0000
  H   H944      1.0  0.31317  0.72413  0.21703  1.0000
  C   C552      1.0  0.31013  0.48434  0.17430  1.0000
  H   H945      1.0  0.31220  0.73013  0.26786  1.0000
  C   C553      1.0  0.21826  0.72870  0.10628  1.0000
  C   C554      1.0  0.14122  0.73127  0.24774  1.0000
  H   H946      1.0  0.25620  0.72889  0.39501  1.0000
  Fe  Fe73      1.0  0.07312  0.73320  0.47728  1.0000
  H   H947      1.0  0.32134  0.69776  0.16649  1.0000
  C   C555      1.0  0.15348  0.56215  0.97886  1.0000
  Fe  Fe74      1.0  0.07035  0.50224  0.91521  1.0000
  S   S153      1.0  0.09226  0.51173  0.92312  1.0000
  H   H948      1.0  0.28625  0.50177  0.71104  1.0000
  Fe  Fe75      1.0  0.03884  0.52039  0.94409  1.0000
  S   S154      1.0  0.05820  0.53195  0.95369  1.0000
  S   S155      1.0  0.00841  0.52005  0.95727  1.0000
  Fe  Fe76      1.0  0.07169  0.53907  0.92310  1.0000
  S   S156      1.0  0.08048  0.56651  0.90844  1.0000
  Fe  Fe77      1.0  0.07716  0.50374  0.95278  1.0000
  C   C556      1.0  0.29914  0.66824  0.77030  1.0000
  S   S157      1.0  0.05042  0.53017  0.91332  1.0000
  H   H949      1.0  0.14464  0.72280  0.63992  1.0000
  H   H950      1.0  0.22981  0.64294  0.69582  1.0000
  C   C557      1.0  0.22484  0.66558  0.86245  1.0000
  H   H951      1.0  0.23991  0.57879  0.66476  1.0000
  C   C558      1.0  0.24885  0.63551  0.61200  1.0000
  H   H952      1.0  0.21705  0.52681  0.67318  1.0000
  Fe  Fe78      1.0  0.08692  0.71637  0.51393  1.0000
  C   C559      1.0  0.25141  0.61112  0.83382  1.0000
  S   S158      1.0  0.08820  0.69566  0.54145  1.0000
  H   H953      1.0  0.25248  0.56119  0.87069  1.0000
  H   H954      1.0  0.09554  0.56111  0.94740  1.0000
  H   H955      1.0  0.27070  0.65092  0.77197  1.0000
  H   H956      1.0  0.21771  0.67850  0.67651  1.0000
  H   H957      1.0  0.28324  0.69019  0.75144  1.0000
  H   H958      1.0  0.26532  0.62512  0.55985  1.0000
  H   H959      1.0  0.24619  0.58778  0.72233  1.0000
  Fe  Fe79      1.0  0.17358  0.65330  0.58885  1.0000
  S   S159      1.0  0.14936  0.64978  0.61299  1.0000
  S   S160      1.0  0.16949  0.66672  0.55927  1.0000
  Fe  Fe80      1.0  0.20277  0.63464  0.61357  1.0000
  S   S161      1.0  0.18049  0.63005  0.63954  1.0000
  H   H960      1.0  0.24441  0.59288  0.75888  1.0000
  Fe  Fe81      1.0  0.16645  0.62114  0.62179  1.0000
  S   S162      1.0  0.15549  0.59461  0.63007  1.0000
  Fe  Fe82      1.0  0.16576  0.65911  0.62811  1.0000
  S   S163      1.0  0.18968  0.62372  0.59643  1.0000
  S   S164      1.0  0.18910  0.66462  0.60345  1.0000
  Fe  Fe83      1.0  0.17274  0.63621  0.83834  1.0000
  S   S165      1.0  0.19083  0.61593  0.85726  1.0000
  S   S166      1.0  0.16161  0.66623  0.84118  1.0000
  Fe  Fe84      1.0  0.17479  0.60758  0.81613  1.0000
  S   S167      1.0  0.19376  0.58517  0.83251  1.0000
  S   S168      1.0  0.16443  0.60511  0.79186  1.0000
  Fe  Fe85      1.0  0.17414  0.59520  0.85759  1.0000
  S   S169      1.0  0.16579  0.57246  0.88248  1.0000
  Fe  Fe86      1.0  0.20854  0.60775  0.83064  1.0000
  S   S170      1.0  0.23968  0.60448  0.82030  1.0000
  S   S171      1.0  0.15428  0.61636  0.84115  1.0000
  S   S172      1.0  0.19142  0.62924  0.81180  1.0000
  Fe  Fe87      1.0  0.14947  0.49806  0.74465  1.0000
  S   S173      1.0  0.13090  0.52202  0.75728  1.0000
  H   H961      1.0  0.10127  0.71264  0.62175  1.0000
  Fe  Fe88      1.0  0.18307  0.51698  0.73082  1.0000
  S   S174      1.0  0.16730  0.54212  0.74263  1.0000
  S   S175      1.0  0.21278  0.51758  0.71536  1.0000
  Fe  Fe89      1.0  0.15598  0.52171  0.76760  1.0000
  S   S176      1.0  0.15477  0.52357  0.79687  1.0000
  Fe  Fe90      1.0  0.14388  0.54021  0.73090  1.0000
  S   S177      1.0  0.12840  0.56815  0.71750  1.0000
  S   S178      1.0  0.17388  0.49656  0.75693  1.0000
  S   S179      1.0  0.16041  0.51626  0.71708  1.0000
  C   C560      1.0  0.16151  0.58247  0.79350  1.0000
  C   C561      1.0  0.16999  0.56715  0.80561  1.0000
  C   C562      1.0  0.16816  0.54902  0.80641  1.0000
  C   C563      1.0  0.15748  0.54620  0.79536  1.0000
  C   C564      1.0  0.14902  0.56147  0.78314  1.0000
  C   C565      1.0  0.15109  0.57960  0.78216  1.0000
  H   H962      1.0  0.17820  0.56912  0.81421  1.0000
  H   H963      1.0  0.17507  0.53720  0.81556  1.0000
  H   H964      1.0  0.14072  0.55935  0.77455  1.0000
  H   H965      1.0  0.14456  0.59139  0.77268  1.0000
  H   H966      1.0  0.20862  0.56120  0.77922  1.0000
  S   S180      1.0  0.30673  0.69960  0.80118  1.0000
  C   C566      1.0  0.16330  0.68340  0.82030  1.0000
  C   C567      1.0  0.17739  0.68038  0.80455  1.0000
  H   H967      1.0  0.18778  0.66755  0.80517  1.0000
  C   C568      1.0  0.14759  0.58747  0.65432  1.0000
  C   C569      1.0  0.14655  0.56867  0.66197  1.0000
  C   C570      1.0  0.14111  0.56252  0.68143  1.0000
  C   C571      1.0  0.13604  0.57532  0.69320  1.0000
  C   C572      1.0  0.13665  0.59421  0.68547  1.0000
  C   C573      1.0  0.14269  0.60023  0.66609  1.0000
  H   H968      1.0  0.15026  0.55878  0.65289  1.0000
  H   H969      1.0  0.14042  0.54799  0.68730  1.0000
  H   H970      1.0  0.13258  0.60417  0.69453  1.0000
  H   H971      1.0  0.14329  0.61480  0.66026  1.0000
  H   H972      1.0  0.16194  0.64804  0.67151  1.0000
  C   C574      1.0  0.11078  0.68881  0.54639  1.0000
  C   C575      1.0  0.12669  0.68881  0.53192  1.0000
  C   C576      1.0  0.14460  0.68208  0.53606  1.0000
  C   C577      1.0  0.14678  0.67576  0.55468  1.0000
  C   C578      1.0  0.13087  0.67659  0.56915  1.0000
  C   C579      1.0  0.11293  0.68266  0.56502  1.0000
  H   H973      1.0  0.12520  0.69347  0.51748  1.0000
  H   H974      1.0  0.15680  0.68163  0.52474  1.0000
  H   H975      1.0  0.13234  0.67247  0.58352  1.0000
  H   H976      1.0  0.10068  0.68289  0.57628  1.0000
  H   H977      1.0  0.16506  0.57710  0.93970  1.0000
  H   H978      1.0  0.29051  0.70396  0.66946  1.0000
  C   C580      1.0  0.12120  0.68585  0.78905  1.0000
  C   C581      1.0  0.28408  0.64181  0.77492  1.0000
  H   H979      1.0  0.14121  0.54443  0.96949  1.0000
  H   H980      1.0  0.28019  0.50345  0.87858  1.0000
  C   C582      1.0  0.24271  0.64773  0.68714  1.0000
  H   H981      1.0  0.28073  0.60499  0.56955  1.0000
  Fe  Fe91      1.0  0.19592  0.69350  0.71403  1.0000
  C   C583      1.0  0.28030  0.61799  0.55855  1.0000
  H   H982      1.0  0.05483  0.49573  0.85312  1.0000
  N   N39       1.0  0.23302  0.67825  0.82659  1.0000
  C   C584      1.0  0.27288  0.66530  0.65353  1.0000
  H   H983      1.0  0.05752  0.53209  0.77045  1.0000
  H   H984      1.0  0.23410  0.61862  0.68017  1.0000
  S   S181      1.0  0.09652  0.70921  0.48541  1.0000
  Fe  Fe92      1.0  0.31169  0.55863  0.76485  1.0000
  H   H985      1.0  0.22277  0.65524  0.79777  1.0000
  H   H986      1.0  0.23082  0.66057  0.60028  1.0000
  C   C585      1.0  0.25079  0.52081  0.75175  1.0000
  C   C586      1.0  0.10430  0.56766  0.90099  1.0000
  C   C587      1.0  0.11848  0.55218  0.90548  1.0000
  C   C588      1.0  0.13731  0.55375  0.89958  1.0000
  C   C589      1.0  0.14210  0.57075  0.88911  1.0000
  C   C590      1.0  0.12793  0.58614  0.88449  1.0000
  C   C591      1.0  0.10911  0.58459  0.89043  1.0000
  H   H987      1.0  0.11497  0.53916  0.91384  1.0000
  H   H988      1.0  0.14820  0.54173  0.90310  1.0000
  H   H989      1.0  0.13140  0.59936  0.87662  1.0000
  H   H990      1.0  0.09822  0.59664  0.88694  1.0000
  C   C592      1.0  0.12389  0.56476  0.94327  1.0000
  H   H991      1.0  0.29608  0.52941  0.86038  1.0000
  C   C593      1.0  0.31014  0.63126  0.67326  1.0000
  H   H992      1.0  0.25809  0.68374  0.84686  1.0000
  C   C594      1.0  0.27062  0.62239  0.85463  1.0000
  H   H993      1.0  0.25621  0.65789  0.63906  1.0000
  H   H994      1.0  0.20943  0.66860  0.82379  1.0000
  H   H995      1.0  0.21141  0.71868  0.79835  1.0000
  C   C595      1.0  0.26978  0.61348  0.82636  1.0000
  H   H996      1.0  0.29353  0.62068  0.83091  1.0000
  S   S182      1.0  0.08220  0.48617  0.89177  1.0000
  H   H997      1.0  0.24542  0.64669  0.80387  1.0000
  H   H998      1.0  0.31106  0.63577  0.65836  1.0000
  H   H999      1.0  0.21447  0.68294  0.64402  1.0000
  H   H1000     1.0  0.20505  0.53523  0.65381  1.0000
  C   C596      1.0  0.22250  0.68211  0.84557  1.0000
  S   S183      1.0  0.15250  0.68183  0.64426  1.0000
  H   H1001     1.0  0.26375  0.69594  0.82261  1.0000
  H   H1002     1.0  0.23023  0.54746  0.67829  1.0000
  H   H1003     1.0  0.22770  0.62396  0.76582  1.0000
  N   N40       1.0  0.20543  0.56645  0.67021  1.0000
  H   H1004     1.0  0.26945  0.52893  0.72566  1.0000
  H   H1005     1.0  0.23840  0.67054  0.79186  1.0000
  H   H1006     1.0  0.20554  0.61916  0.76715  1.0000
  H   H1007     1.0  0.20819  0.51151  0.75561  1.0000
  C   C597      1.0  0.11183  0.72053  0.62138  1.0000
  H   H1008     1.0  0.28333  0.63692  0.57373  1.0000
  H   H1009     1.0  0.25759  0.66788  0.69103  1.0000
  S   S184      1.0  0.09012  0.48736  0.97726  1.0000
  H   H1010     1.0  0.11813  0.70999  0.64843  1.0000
  C   C598      1.0  0.22711  0.51915  0.72949  1.0000
  H   H1011     1.0  0.24879  0.52711  0.70601  1.0000
  C   C599      1.0  0.23349  0.51583  0.76011  1.0000
  H   H1012     1.0  0.23190  0.60711  0.74177  1.0000
  C   C600      1.0  0.23225  0.57485  0.67936  1.0000
  H   H1013     1.0  0.23838  0.57593  0.78890  1.0000
  H   H1014     1.0  0.22883  0.61169  0.85800  1.0000
  S   S185      1.0  0.23230  0.62128  0.61790  1.0000
  C   C601      1.0  0.21486  0.57327  0.77814  1.0000
  N   N41       1.0  0.11938  0.52986  0.85546  1.0000
  C   C602      1.0  0.13634  0.53765  0.84445  1.0000
  C   C603      1.0  0.11513  0.51859  0.84395  1.0000
  C   C604      1.0  0.12277  0.51727  0.87385  1.0000
  C   C605      1.0  0.10339  0.54599  0.85948  1.0000
  C   C606      1.0  0.14457  0.54748  0.85484  1.0000
  C   C607      1.0  0.10661  0.53008  0.82695  1.0000
  C   C608      1.0  0.13977  0.50074  0.87251  1.0000
  C   C609      1.0  0.08459  0.54070  0.87031  1.0000
  H   H1015     1.0  0.14781  0.52651  0.83907  1.0000
  H   H1016     1.0  0.13304  0.54818  0.83176  1.0000
  H   H1017     1.0  0.10566  0.50912  0.85269  1.0000
  H   H1018     1.0  0.12809  0.50896  0.83830  1.0000
  H   H1019     1.0  0.12427  0.52540  0.88344  1.0000
  H   H1020     1.0  0.11042  0.51101  0.88140  1.0000
  H   H1021     1.0  0.10668  0.55392  0.86822  1.0000
  H   H1022     1.0  0.10120  0.55675  0.84655  1.0000
  H   H1023     1.0  0.14932  0.53798  0.86734  1.0000
  H   H1024     1.0  0.15711  0.55225  0.84543  1.0000
  H   H1025     1.0  0.13467  0.56023  0.85865  1.0000
  H   H1026     1.0  0.09217  0.53791  0.83136  1.0000
  H   H1027     1.0  0.11530  0.53991  0.81751  1.0000
  H   H1028     1.0  0.10591  0.52035  0.81858  1.0000
  H   H1029     1.0  0.13810  0.49090  0.86480  1.0000
  H   H1030     1.0  0.14094  0.49272  0.88689  1.0000
  H   H1031     1.0  0.15308  0.50549  0.86601  1.0000
  H   H1032     1.0  0.08367  0.53831  0.88559  1.0000
  H   H1033     1.0  0.08232  0.52805  0.86731  1.0000
  H   H1034     1.0  0.07288  0.55228  0.86639  1.0000
  C   C610      1.0  0.27406  0.54173  0.83157  1.0000
  H   H1035     1.0  0.29326  0.55890  0.87077  1.0000
  H   H1036     1.0  0.27606  0.53587  0.87772  1.0000
  H   H1037     1.0  0.29932  0.55657  0.83655  1.0000
  N   N42       1.0  0.27273  0.54830  0.84914  1.0000
  H   H1038     1.0  0.17021  0.54197  0.94836  1.0000
  C   C611      1.0  0.06431  0.52548  0.78261  1.0000
  H   H1039     1.0  0.29489  0.61121  0.77866  1.0000
  H   H1040     1.0  0.08843  0.50462  0.80465  1.0000
  H   H1041     1.0  0.26870  0.68006  0.77311  1.0000
  H   H1042     1.0  0.31180  0.59457  0.54340  1.0000
  H   H1043     1.0  0.27955  0.57498  0.83362  1.0000
  H   H1044     1.0  0.21932  0.65367  0.86174  1.0000
  H   H1045     1.0  0.08314  0.48636  0.79758  1.0000
  H   H1046     1.0  0.25113  0.65073  0.71138  1.0000
  N   N43       1.0  0.30063  0.65039  0.76412  1.0000
  H   H1047     1.0  0.22413  0.55705  0.85939  1.0000
  H   H1048     1.0  0.30829  0.58605  0.81943  1.0000
  H   H1049     1.0  0.07878  0.51856  0.77684  1.0000
  H   H1050     1.0  0.22677  0.65072  0.83248  1.0000
  H   H1051     1.0  0.28065  0.64864  0.73249  1.0000
  H   H1052     1.0  0.31024  0.64086  0.73802  1.0000
  H   H1053     1.0  0.28311  0.50649  0.85391  1.0000
  H   H1054     1.0  0.15043  0.59798  0.96220  1.0000
  S   S186      1.0  0.17182  0.71803  0.71647  1.0000
  C   C612      1.0  0.30005  0.49322  0.70570  1.0000
  C   C613      1.0  0.05305  0.51130  0.79633  1.0000
  C   C614      1.0  0.30273  0.65394  0.74312  1.0000
  H   H1055     1.0  0.28242  0.69583  0.77300  1.0000
  C   C615      1.0  0.20284  0.59124  0.75017  1.0000
  C   C616      1.0  0.23087  0.56523  0.78890  1.0000
  C   C617      1.0  0.19262  0.57700  0.74802  1.0000
  H   H1056     1.0  0.19242  0.60027  0.75919  1.0000
  H   H1057     1.0  0.20584  0.60076  0.73625  1.0000
  C   C618      1.0  0.16303  0.67731  0.66336  1.0000
  H   H1058     1.0  0.18984  0.54762  0.69162  1.0000
  H   H1059     1.0  0.24096  0.55335  0.78343  1.0000
  H   H1060     1.0  0.20096  0.56866  0.73744  1.0000
  H   H1061     1.0  0.17949  0.58476  0.74325  1.0000
  H   H1062     1.0  0.18853  0.56729  0.76141  1.0000
  H   H1063     1.0  0.27008  0.61306  0.62272  1.0000
  C   C619      1.0  0.17540  0.65564  0.68932  1.0000
  H   H1064     1.0  0.21318  0.65037  0.67096  1.0000
  H   H1065     1.0  0.22637  0.65216  0.64760  1.0000
  C   C620      1.0  0.17748  0.68826  0.68218  1.0000
  H   H1066     1.0  0.28963  0.64362  0.54896  1.0000
  H   H1067     1.0  0.25426  0.68030  0.59283  1.0000
  C   C621      1.0  0.22031  0.56046  0.68168  1.0000
  C   C622      1.0  0.25243  0.61945  0.86233  1.0000
  H   H1068     1.0  0.22756  0.55624  0.74972  1.0000
  C   C623      1.0  0.25312  0.55775  0.85710  1.0000
  C   C624      1.0  0.23903  0.57595  0.72590  1.0000
  C   C625      1.0  0.12057  0.50388  0.96219  1.0000
  C   C626      1.0  0.24447  0.65446  0.60355  1.0000
  N   N44       1.0  0.12090  0.62028  0.57564  1.0000
  C   C627      1.0  0.13799  0.60572  0.57993  1.0000
  C   C628      1.0  0.10514  0.61053  0.57847  1.0000
  C   C629      1.0  0.11507  0.63399  0.58845  1.0000
  C   C630      1.0  0.12552  0.63098  0.55569  1.0000
  C   C631      1.0  0.15481  0.61337  0.58017  1.0000
  C   C632      1.0  0.10841  0.59661  0.56567  1.0000
  C   C633      1.0  0.11073  0.62555  0.60965  1.0000
  C   C634      1.0  0.10863  0.64323  0.54731  1.0000
  H   H1069     1.0  0.13464  0.59594  0.59362  1.0000
  H   H1070     1.0  0.14324  0.59668  0.56940  1.0000
  H   H1071     1.0  0.09185  0.62087  0.57684  1.0000
  H   H1072     1.0  0.10229  0.60221  0.59304  1.0000
  H   H1073     1.0  0.12597  0.64213  0.58596  1.0000
  H   H1074     1.0  0.10239  0.64465  0.58544  1.0000
  H   H1075     1.0  0.13505  0.64042  0.55441  1.0000
  H   H1076     1.0  0.13323  0.62109  0.54628  1.0000
  H   H1077     1.0  0.15177  0.62058  0.59192  1.0000
  H   H1078     1.0  0.16677  0.60143  0.58244  1.0000
  H   H1079     1.0  0.15949  0.62289  0.56680  1.0000
  H   H1080     1.0  0.09537  0.59147  0.56809  1.0000
  H   H1081     1.0  0.11183  0.60306  0.55059  1.0000
  H   H1082     1.0  0.11950  0.58412  0.56907  1.0000
  H   H1083     1.0  0.09792  0.61974  0.61391  1.0000
  H   H1084     1.0  0.10808  0.63688  0.61743  1.0000
  H   H1085     1.0  0.12256  0.61475  0.61434  1.0000
  H   H1086     1.0  0.11341  0.65482  0.53610  1.0000
  H   H1087     1.0  0.09701  0.64986  0.55742  1.0000
  H   H1088     1.0  0.10345  0.63534  0.54003  1.0000
  N   N45       1.0  0.05952  0.50184  0.81447  1.0000
  H   H1089     1.0  0.28896  0.53619  0.82537  1.0000
  H   H1090     1.0  0.30722  0.61395  0.72672  1.0000
  C   C635      1.0  0.31277  0.60712  0.57814  1.0000
  C   C636      1.0  0.05583  0.51657  0.82586  1.0000
  H   H1091     1.0  0.11703  0.67262  0.79733  1.0000
  H   H1092     1.0  0.30124  0.66568  0.55468  1.0000
  H   H1093     1.0  0.27773  0.66112  0.66684  1.0000
  C   C637      1.0  0.05754  0.50986  0.84659  1.0000
  C   C638      1.0  0.28459  0.62235  0.77167  1.0000
  C   C639      1.0  0.30790  0.61899  0.71186  1.0000
  C   C640      1.0  0.26572  0.72538  0.71175  1.0000
  H   H1094     1.0  0.26712  0.52981  0.83441  1.0000
  H   H1095     1.0  0.10674  0.49754  0.74475  1.0000
  H   H1096     1.0  0.31154  0.67450  0.76310  1.0000
  C   C641      1.0  0.29415  0.61702  0.70379  1.0000
  H   H1097     1.0  0.04171  0.52583  0.82563  1.0000
  H   H1098     1.0  0.26681  0.54977  0.80428  1.0000
  H   H1099     1.0  0.15894  0.54260  0.92985  1.0000
  H   H1100     1.0  0.20018  0.70458  0.81900  1.0000
  C   C642      1.0  0.28466  0.72212  0.71230  1.0000
  C   C643      1.0  0.10377  0.56556  0.95499  1.0000
  H   H1101     1.0  0.16920  0.71055  0.52573  1.0000
  H   H1102     1.0  0.30411  0.72495  0.76570  1.0000
  H   H1103     1.0  0.26748  0.68065  0.65008  1.0000
  H   H1104     1.0  0.28508  0.62096  0.67815  1.0000
  H   H1105     1.0  0.07145  0.51038  0.84830  1.0000
  H   H1106     1.0  0.32093  0.65658  0.53738  1.0000
  H   H1107     1.0  0.04682  0.51921  0.85511  1.0000
  C   C644      1.0  0.19274  0.58484  0.67347  1.0000
  C   C645      1.0  0.21475  0.56887  0.64975  1.0000
  C   C646      1.0  0.18292  0.58543  0.69402  1.0000
  C   C647      1.0  0.20163  0.57399  0.63585  1.0000
  C   C648      1.0  0.16644  0.65921  0.67437  1.0000
  H   H1108     1.0  0.18147  0.58868  0.66542  1.0000
  H   H1109     1.0  0.22248  0.58043  0.64550  1.0000
  H   H1110     1.0  0.17375  0.57512  0.69995  1.0000
  H   H1111     1.0  0.17373  0.59951  0.69453  1.0000
  H   H1112     1.0  0.19297  0.58320  0.70307  1.0000
  H   H1113     1.0  0.19700  0.58944  0.63172  1.0000
  H   H1114     1.0  0.18908  0.56783  0.64136  1.0000
  H   H1115     1.0  0.20908  0.56839  0.62308  1.0000
  Fe  Fe93      1.0  0.28699  0.53919  0.75376  1.0000
  H   H1116     1.0  0.12608  0.71645  0.55428  1.0000
  H   H1117     1.0  0.09546  0.72308  0.64908  1.0000
  H   H1118     1.0  0.24710  0.62098  0.65612  1.0000
  S   S187      1.0  0.31655  0.53011  0.75797  1.0000
  H   H1119     1.0  0.24680  0.56358  0.75230  1.0000
  C   C649      1.0  0.24661  0.65993  0.69856  1.0000
  C   C650      1.0  0.22592  0.68772  0.64676  1.0000
  H   H1120     1.0  0.23819  0.68675  0.63495  1.0000
  H   H1121     1.0  0.31162  0.66441  0.73592  1.0000
  H   H1122     1.0  0.22298  0.62029  0.66155  1.0000
  H   H1123     1.0  0.10868  0.69734  0.79101  1.0000
  C   C651      1.0  0.27933  0.61915  0.83670  1.0000
  H   H1124     1.0  0.03826  0.51905  0.79904  1.0000
  H   H1125     1.0  0.02057  0.49966  0.81827  1.0000
  H   H1126     1.0  0.06461  0.53695  0.78902  1.0000
  H   H1127     1.0  0.18925  0.69178  0.77598  1.0000
  C   C652      1.0  0.16849  0.69182  0.66733  1.0000
  C   C653      1.0  0.24442  0.52412  0.72110  1.0000
  C   C654      1.0  0.15037  0.70050  0.81950  1.0000
  H   H1128     1.0  0.17965  0.55130  0.92448  1.0000
  C   C655      1.0  0.27553  0.51311  0.86603  1.0000
  H   H1129     1.0  0.25391  0.63481  0.68748  1.0000
  H   H1130     1.0  0.19427  0.52285  0.67584  1.0000
  C   C656      1.0  0.27548  0.65793  0.60364  1.0000
  H   H1131     1.0  0.29675  0.57996  0.85428  1.0000
  C   C657      1.0  0.23092  0.67708  0.66581  1.0000
  H   H1132     1.0  0.15886  0.71277  0.54931  1.0000
  C   C658      1.0  0.16425  0.72067  0.53519  1.0000
  H   H1133     1.0  0.29902  0.66524  0.78556  1.0000
  H   H1134     1.0  0.12458  0.71083  0.67471  1.0000
  H   H1135     1.0  0.21414  0.55658  0.69689  1.0000
  H   H1136     1.0  0.20378  0.58282  0.78617  1.0000
  H   H1137     1.0  0.09650  0.57992  0.95691  1.0000
  N   N46       1.0  0.14350  0.66965  0.76277  1.0000
  C   C659      1.0  0.16007  0.67030  0.76984  1.0000
  C   C660      1.0  0.12800  0.68583  0.76793  1.0000
  C   C661      1.0  0.14933  0.67189  0.74166  1.0000
  C   C662      1.0  0.13831  0.65092  0.77182  1.0000
  C   C663      1.0  0.17783  0.65514  0.76560  1.0000
  H   H1138     1.0  0.28546  0.66217  0.64242  1.0000
  C   C664      1.0  0.13423  0.68188  0.73000  1.0000
  C   C665      1.0  0.12011  0.64828  0.76859  1.0000
  H   H1139     1.0  0.16394  0.68423  0.76389  1.0000
  H   H1140     1.0  0.15672  0.66859  0.78532  1.0000
  H   H1141     1.0  0.11541  0.68660  0.76271  1.0000
  H   H1142     1.0  0.13249  0.69937  0.76103  1.0000
  H   H1143     1.0  0.16034  0.68034  0.73588  1.0000
  H   H1144     1.0  0.15588  0.65808  0.73767  1.0000
  H   H1145     1.0  0.14947  0.63939  0.76673  1.0000
  H   H1146     1.0  0.13732  0.64786  0.78724  1.0000
  C   C666      1.0  0.02748  0.49309  0.83031  1.0000
  H   H1147     1.0  0.17590  0.64117  0.77412  1.0000
  H   H1148     1.0  0.18223  0.65449  0.75062  1.0000
  C   C667      1.0  0.21205  0.70414  0.80676  1.0000
  Fe  Fe94      1.0  0.30736  0.64234  0.85134  1.0000
  C   C668      1.0  0.23116  0.69657  0.81244  1.0000
  H   H1149     1.0  0.12152  0.67599  0.73484  1.0000
  H   H1150     1.0  0.14010  0.68048  0.71521  1.0000
  H   H1151     1.0  0.13033  0.69713  0.72989  1.0000
  C   C669      1.0  0.16480  0.71093  0.78689  1.0000
  H   H1152     1.0  0.11790  0.63407  0.77632  1.0000
  H   H1153     1.0  0.12099  0.64884  0.75364  1.0000
  H   H1154     1.0  0.06548  0.52639  0.81932  1.0000
  C   C670      1.0  0.31787  0.63671  0.76948  1.0000
  H   H1155     1.0  0.21021  0.69569  0.79773  1.0000
  S   S188      1.0  0.30915  0.67107  0.85249  1.0000
  S   S189      1.0  0.29463  0.55195  0.72338  1.0000
  C   C671      1.0  0.29523  0.62320  0.68451  1.0000
  C   C672      1.0  0.28707  0.57011  0.86001  1.0000
  S   S190      1.0  0.31413  0.56435  0.79199  1.0000
  H   H1156     1.0  0.11643  0.50720  0.94892  1.0000
  Fe  Fe95      1.0  0.31967  0.66251  0.60652  1.0000
  H   H1157     1.0  0.31598  0.63216  0.78502  1.0000
  H   H1158     1.0  0.22924  0.51251  0.77523  1.0000
  S   S191      1.0  0.27666  0.60524  0.71754  1.0000
  H   H1159     1.0  0.12267  0.57304  0.92894  1.0000
  H   H1160     1.0  0.27071  0.61864  0.77804  1.0000
  C   C673      1.0  0.32082  0.58857  0.80936  1.0000
  C   C674      1.0  0.26376  0.68203  0.83219  1.0000
  H   H1161     1.0  0.27631  0.48469  0.75094  1.0000
  H   H1162     1.0  0.23380  0.70781  0.81777  1.0000
  N   N47       1.0  0.31145  0.62368  0.56189  1.0000
  H   H1163     1.0  0.24879  0.57172  0.84820  1.0000
  H   H1164     1.0  0.01598  0.54650  0.97494  1.0000
  H   H1165     1.0  0.23563  0.53833  0.87547  1.0000
  H   H1166     1.0  0.18953  0.65837  0.76957  1.0000
  H   H1167     1.0  0.22643  0.69404  0.84852  1.0000
  H   H1168     1.0  0.26606  0.63912  0.65550  1.0000
  C   C675      1.0  0.23749  0.54686  0.86097  1.0000
  H   H1169     1.0  0.21661  0.67036  0.87546  1.0000
  H   H1170     1.0  0.25550  0.65598  0.83549  1.0000
  H   H1171     1.0  0.14068  0.72717  0.80219  1.0000
  H   H1172     1.0  0.22486  0.55959  0.80377  1.0000
  H   H1173     1.0  0.24567  0.62173  0.87628  1.0000
  H   H1174     1.0  0.17808  0.64165  0.69782  1.0000
  S   S192      1.0  0.19313  0.66572  0.71100  1.0000
  H   H1175     1.0  0.22580  0.55637  0.64675  1.0000
  S   S193      1.0  0.26547  0.52129  0.76605  1.0000
  C   C676      1.0  0.18101  0.67018  0.69312  1.0000
  H   H1176     1.0  0.24201  0.69570  0.79934  1.0000
  C   C677      1.0  0.22155  0.51528  0.74901  1.0000
  H   H1177     1.0  0.24913  0.56450  0.71970  1.0000
  C   C678      1.0  0.23349  0.56884  0.74725  1.0000
  C   C679      1.0  0.20336  0.53318  0.66918  1.0000
  C   C680      1.0  0.26665  0.62773  0.61613  1.0000
  N   N48       1.0  0.13690  0.57163  0.95067  1.0000
  H   H1178     1.0  0.22376  0.58758  0.68446  1.0000
  H   H1179     1.0  0.20722  0.68663  0.84595  1.0000
  H   H1180     1.0  0.18042  0.55691  0.67152  1.0000
  C   C681      1.0  0.21991  0.61255  0.76920  1.0000
  H   H1181     1.0  0.21953  0.60594  0.78419  1.0000
  H   H1182     1.0  0.27364  0.57826  0.86663  1.0000
  N   N49       1.0  0.22031  0.58298  0.75798  1.0000
  H   H1183     1.0  0.28728  0.67024  0.72154  1.0000
  H   H1184     1.0  0.20037  0.59652  0.66791  1.0000
  C   C682      1.0  0.24282  0.61390  0.85192  1.0000
  H   H1185     1.0  0.24304  0.56842  0.68795  1.0000
  H   H1186     1.0  0.13957  0.70306  0.83170  1.0000
  S   S194      1.0  0.28168  0.63093  0.86732  1.0000
  C   C683      1.0  0.22999  0.59856  0.75631  1.0000
  C   C684      1.0  0.25614  0.52515  0.73222  1.0000
  H   H1187     1.0  0.05327  0.50070  0.78842  1.0000
  C   C685      1.0  0.19394  0.55157  0.67607  1.0000
  H   H1188     1.0  0.27674  0.61066  0.81266  1.0000
  C   C686      1.0  0.25779  0.66560  0.59930  1.0000
  C   C687      1.0  0.31717  0.71477  0.76398  1.0000
  H   H1189     1.0  0.28499  0.61481  0.54436  1.0000
  C   C688      1.0  0.22761  0.64705  0.66253  1.0000
  C   C689      1.0  0.13700  0.50844  0.96320  1.0000
  H   H1190     1.0  0.22692  0.58005  0.71907  1.0000
  C   C690      1.0  0.23354  0.62550  0.66540  1.0000
  H   H1191     1.0  0.14550  0.51515  0.95067  1.0000
  C   C691      1.0  0.28494  0.56250  0.84381  1.0000
  N   N50       1.0  0.24031  0.65669  0.66726  1.0000
  H   H1192     1.0  0.29909  0.70887  0.64482  1.0000
  H   H1193     1.0  0.23953  0.66064  0.86418  1.0000
  C   C692      1.0  0.27993  0.63893  0.61206  1.0000
  C   C693      1.0  0.17826  0.69420  0.78796  1.0000
  H   H1194     1.0  0.31174  0.64125  0.58028  1.0000
  S   S195      1.0  0.28150  0.56629  0.76285  1.0000
  H   H1195     1.0  0.27244  0.66835  0.74404  1.0000
  H   H1196     1.0  0.30882  0.59505  0.57563  1.0000
  H   H1197     1.0  0.28770  0.62200  0.75662  1.0000
  H   H1198     1.0  0.31209  0.71137  0.66086  1.0000
  Fe  Fe96      1.0  0.22388  0.71396  0.71735  1.0000
  C   C694      1.0  0.12824  0.59181  0.95203  1.0000
  Fe  Fe97      1.0  0.29176  0.57830  0.73282  1.0000
  H   H1199     1.0  0.23959  0.68506  0.66899  1.0000
  C   C695      1.0  0.29115  0.63145  0.56091  1.0000
  C   C696      1.0  0.23354  0.65893  0.80281  1.0000
  C   C697      1.0  0.29809  0.71346  0.65787  1.0000
  S   S196      1.0  0.29127  0.67273  0.59896  1.0000
  S   S197      1.0  0.20629  0.69516  0.73833  1.0000
  H   H1200     1.0  0.28272  0.64028  0.79026  1.0000
  H   H1201     1.0  0.16634  0.70571  0.65860  1.0000
  H   H1202     1.0  0.26038  0.51399  0.86819  1.0000
  C   C698      1.0  0.26561  0.55656  0.81600  1.0000
  H   H1203     1.0  0.12936  0.54992  0.94195  1.0000
  Fe  Fe98      1.0  0.18396  0.72126  0.73922  1.0000
  S   S198      1.0  0.21521  0.71021  0.69282  1.0000
  S   S199      1.0  0.16430  0.72778  0.76583  1.0000
  C   C699      1.0  0.25871  0.65408  0.65348  1.0000
  C   C700      1.0  0.08016  0.49345  0.80952  1.0000
  C   C701      1.0  0.28049  0.53222  0.86364  1.0000
  C   C702      1.0  0.25345  0.67017  0.82638  1.0000
  H   H1204     1.0  0.18207  0.69949  0.68480  1.0000
  H   H1205     1.0  0.23365  0.66992  0.70335  1.0000
  H   H1206     1.0  0.10343  0.55565  0.96875  1.0000
  H   H1207     1.0  0.12113  0.59924  0.94013  1.0000
  C   C703      1.0  0.28456  0.66057  0.73539  1.0000
  H   H1208     1.0  0.29213  0.70804  0.71705  1.0000
  S   S200      1.0  0.31484  0.64774  0.82014  1.0000
  H   H1209     1.0  0.29804  0.50409  0.73546  1.0000
  H   H1210     1.0  0.02392  0.50268  0.84014  1.0000
  H   H1211     1.0  0.32044  0.62363  0.76423  1.0000
  C   C704      1.0  0.11010  0.72326  0.64129  1.0000
  H   H1212     1.0  0.29346  0.63294  0.61564  1.0000
  H   H1213     1.0  0.30288  0.51687  0.68218  1.0000
  H   H1214     1.0  0.30259  0.61067  0.59096  1.0000
  C   C705      1.0  0.28225  0.68422  0.76664  1.0000
  H   H1215     1.0  0.11710  0.59257  0.96495  1.0000
  H   H1216     1.0  0.25057  0.56235  0.82086  1.0000
  H   H1217     1.0  0.15024  0.60776  0.93765  1.0000
  H   H1218     1.0  0.07343  0.49488  0.75541  1.0000
  C   C706      1.0  0.15529  0.57031  0.93664  1.0000
  C   C707      1.0  0.31144  0.50740  0.69218  1.0000
  H   H1219     1.0  0.22060  0.70281  0.64716  1.0000
  H   H1220     1.0  0.26119  0.66801  0.81215  1.0000
  H   H1221     1.0  0.13175  0.68887  0.79491  1.0000
  H   H1222     1.0  0.23957  0.53786  0.85093  1.0000
  H   H1223     1.0  0.27322  0.56815  0.81005  1.0000
  C   C708      1.0  0.15102  0.71416  0.80282  1.0000
  Fe  Fe99      1.0  0.31928  0.67516  0.82150  1.0000
  H   H1224     1.0  0.15304  0.57815  0.92242  1.0000
  C   C709      1.0  0.16638  0.55031  0.93497  1.0000
  H   H1225     1.0  0.27860  0.67468  0.83138  1.0000
  H   H1226     1.0  0.10772  0.65846  0.77408  1.0000
  S   S201      1.0  0.25454  0.70639  0.71816  1.0000
  H   H1227     1.0  0.12592  0.71233  0.61621  1.0000
  C   C710      1.0  0.22490  0.66421  0.82212  1.0000
  C   C711      1.0  0.99593  0.53036  0.97659  1.0000
  H   H1228     1.0  0.03229  0.71576  0.48152  1.0000
  H   H1229     1.0  0.29729  0.48483  0.69702  1.0000
  S   S202      1.0  0.05712  0.49158  0.94507  1.0000
  C   C712      1.0  0.10309  0.48487  0.75406  1.0000
  C   C713      1.0  0.13872  0.55953  0.96969  1.0000
  H   H1230     1.0  0.11123  0.72414  0.57451  1.0000
  H   H1231     1.0  0.17563  0.72434  0.47927  1.0000
  H   H1232     1.0  0.30201  0.48889  0.76440  1.0000
  C   C714      1.0  0.14144  0.60428  0.95185  1.0000
  H   H1233     1.0  0.31497  0.51643  0.69954  1.0000
  H   H1234     1.0  0.16621  0.56557  0.96882  1.0000
  C   C715      1.0  0.31062  0.49253  0.73383  1.0000
  C   C716      1.0  0.11793  0.72906  0.55969  1.0000
  H   H1235     1.0  0.17662  0.72569  0.53542  1.0000
  H   H1236     1.0  0.13292  0.61780  0.95532  1.0000
  H   H1237     1.0  0.11821  0.72606  0.69085  1.0000
  H   H1238     1.0  0.13864  0.73070  0.52474  1.0000
  H   H1239     1.0  0.31720  0.62885  0.53149  1.0000
  C   C717      1.0  0.12418  0.72520  0.67596  1.0000
  H   H1240     1.0  0.13865  0.72743  0.67292  1.0000
  H   H1241     1.0  0.26749  0.48417  0.73106  1.0000
  H   H1242     1.0  0.04247  0.48670  0.90441  1.0000
  C   C718      1.0  0.04878  0.48652  0.82398  1.0000
  Fe  Fe100     1.0  0.11328  0.73122  0.47912  1.0000
  H   H1243     1.0  0.08711  0.48402  0.83768  1.0000
  C   C719      1.0  0.31601  0.65792  0.55221  1.0000
  C   C720      1.0  0.31856  0.63874  0.56595  1.0000
  C   C721      1.0  0.10996  0.49453  0.97826  1.0000
  H   H1244     1.0  0.31354  0.72911  0.60503  1.0000
  H   H1245     1.0  0.00391  0.70695  0.47871  1.0000
  C   C722      1.0  0.28674  0.73368  0.65731  1.0000
  H   H1246     1.0  0.31946  0.73349  0.97650  1.0000
  Fe  Fe101     1.0  0.17568  0.81256  0.44654  1.0000
  S   S203      1.0  0.19760  0.82917  0.43110  1.0000
  H   H1247     1.0  0.99219  0.77262  0.41533  1.0000
  Fe  Fe102     1.0  0.14897  0.83348  0.42071  1.0000
  S   S204      1.0  0.16839  0.85233  0.40342  1.0000
  S   S205      1.0  0.12119  0.83376  0.41507  1.0000
  Fe  Fe103     1.0  0.19052  0.82569  0.40517  1.0000
  S   S206      1.0  0.21248  0.81732  0.38022  1.0000
  Fe  Fe104     1.0  0.17346  0.85402  0.43104  1.0000
  S   S207      1.0  0.17047  0.88150  0.43983  1.0000
  S   S208      1.0  0.17072  0.80692  0.42092  1.0000
  S   S209      1.0  0.15189  0.83730  0.44811  1.0000
  S   S210      1.0  0.08097  0.74645  0.37001  1.0000
  N   N51       1.0  0.11703  0.75498  0.40787  1.0000
  C   C723      1.0  0.12011  0.88831  0.32789  1.0000
  H   H1248     1.0  0.05060  0.88790  0.35170  1.0000
  C   C724      1.0  0.08345  0.85836  0.33655  1.0000
  C   C725      1.0  0.15325  0.74388  0.46750  1.0000
  C   C726      1.0  0.31292  0.77488  0.04996  1.0000
  H   H1249     1.0  0.28675  0.78310  0.24471  1.0000
  H   H1250     1.0  0.99931  0.96944  0.38676  1.0000
  S   S211      1.0  0.24574  0.76043  0.29984  1.0000
  Fe  Fe105     1.0  0.10789  0.80177  0.33212  1.0000
  S   S212      1.0  0.11767  0.77131  0.33106  1.0000
  S   S213      1.0  0.12765  0.81743  0.33572  1.0000
  Fe  Fe106     1.0  0.07107  0.80512  0.32150  1.0000
  S   S214      1.0  0.07787  0.77504  0.31882  1.0000
  S   S215      1.0  0.04361  0.82344  0.31536  1.0000
  Fe  Fe107     1.0  0.08818  0.76933  0.34537  1.0000
  H   H1251     1.0  0.25283  0.78345  0.41044  1.0000
  Fe  Fe108     1.0  0.10682  0.77939  0.30459  1.0000
  S   S216      1.0  0.12551  0.77176  0.27787  1.0000
  S   S217      1.0  0.07932  0.79910  0.34920  1.0000
  S   S218      1.0  0.09905  0.81018  0.30462  1.0000
  H   H1252     1.0  0.22484  0.76415  0.38906  1.0000
  H   H1253     1.0  0.16692  0.78766  0.26895  1.0000
  H   H1254     1.0  0.28719  0.73944  0.13185  1.0000
  H   H1255     1.0  0.26270  0.78278  0.24576  1.0000
  C   C727      1.0  0.00701  0.86916  0.33110  1.0000
  C   C728      1.0  0.08987  0.78388  0.40635  1.0000
  H   H1256     1.0  0.14447  0.80160  0.27570  1.0000
  C   C729      1.0  0.21081  0.88030  0.46716  1.0000
  C   C730      1.0  0.03876  0.84410  0.34191  1.0000
  C   C731      1.0  0.12858  0.75012  0.27160  1.0000
  H   H1257     1.0  0.12974  0.78916  0.40202  1.0000
  C   C732      1.0  0.31317  0.79393  0.04204  1.0000
  H   H1258     1.0  0.24558  0.74352  0.11996  1.0000
  C   C733      1.0  0.03240  0.84198  0.32705  1.0000
  C   C734      1.0  0.18545  0.90646  0.47352  1.0000
  H   H1259     1.0  0.16224  0.91050  0.46039  1.0000
  H   H1260     1.0  0.05089  0.83443  0.34621  1.0000
  C   C735      1.0  0.01635  0.85437  0.32184  1.0000
  H   H1261     1.0  0.17671  0.76241  0.42614  1.0000
  H   H1262     1.0  0.20439  0.77572  0.41426  1.0000
  C   C736      1.0  0.27644  0.77415  0.24842  1.0000
  H   H1263     1.0  0.11535  0.77962  0.38526  1.0000
  H   H1264     1.0  0.22775  0.79021  0.41822  1.0000
  H   H1265     1.0  0.28415  0.73828  0.02245  1.0000
  H   H1266     1.0  0.25024  0.76374  0.12505  1.0000
  C   C737      1.0  0.22616  0.79287  0.35628  1.0000
  C   C738      1.0  0.09264  0.87142  0.35850  1.0000
  C   C739      1.0  0.04191  0.78542  0.39441  1.0000
  H   H1267     1.0  0.20705  0.86371  0.44960  1.0000
  H   H1268     1.0  0.00499  0.83440  0.37500  1.0000
  H   H1269     1.0  0.18374  0.79582  0.38607  1.0000
  H   H1270     1.0  0.25614  0.75641  0.15337  1.0000
  N   N52       1.0  0.09030  0.87451  0.33862  1.0000
  S   S219      1.0  0.29839  0.75269  0.29703  1.0000
  C   C740      1.0  0.18340  0.88646  0.45372  1.0000
  H   H1271     1.0  0.11147  0.90274  0.32692  1.0000
  H   H1272     1.0  0.04018  0.74347  0.42367  1.0000
  H   H1273     1.0  0.23826  0.77228  0.33895  1.0000
  C   C741      1.0  0.19030  0.75286  0.42207  1.0000
  C   C742      1.0  0.13307  0.74467  0.39533  1.0000
  H   H1274     1.0  0.25962  0.93323  0.44582  1.0000
  C   C743      1.0  0.12322  0.82864  0.39324  1.0000
  C   C744      1.0  0.10788  0.82475  0.38909  1.0000
  C   C745      1.0  0.10937  0.82040  0.37176  1.0000
  C   C746      1.0  0.12600  0.82065  0.35827  1.0000
  C   C747      1.0  0.14129  0.82461  0.36240  1.0000
  C   C748      1.0  0.14000  0.82832  0.37995  1.0000
  H   H1275     1.0  0.09486  0.82511  0.39934  1.0000
  H   H1276     1.0  0.09747  0.81751  0.36862  1.0000
  H   H1277     1.0  0.15420  0.82484  0.35202  1.0000
  H   H1278     1.0  0.15193  0.83124  0.38306  1.0000
  H   H1279     1.0  0.03485  0.77223  0.33480  1.0000
  C   C749      1.0  0.23905  0.75971  0.42195  1.0000
  C   C750      1.0  0.10608  0.77087  0.39574  1.0000
  C   C751      1.0  0.10948  0.87431  0.32608  1.0000
  H   H1280     1.0  0.28225  0.77466  0.17962  1.0000
  C   C752      1.0  0.18004  0.78606  0.32078  1.0000
  N   N53       1.0  0.01762  0.79405  0.37348  1.0000
  Fe  Fe109     1.0  0.23451  0.73922  0.32409  1.0000
  H   H1281     1.0  0.29736  0.78801  0.18281  1.0000
  C   C753      1.0  0.24402  0.75390  0.16504  1.0000
  H   H1282     1.0  0.99494  0.87894  0.32670  1.0000
  C   C754      1.0  0.20278  0.75536  0.18270  1.0000
  H   H1283     1.0  0.07481  0.84805  0.31650  1.0000
  C   C755      1.0  0.13714  0.77662  0.41057  1.0000
  H   H1284     1.0  0.31831  0.75041  0.22043  1.0000
  C   C756      1.0  0.19568  0.79071  0.37593  1.0000
  C   C757      1.0  0.16955  0.77185  0.47043  1.0000
  C   C758      1.0  0.02940  0.85883  0.35121  1.0000
  N   N54       1.0  0.25982  0.93700  0.47329  1.0000
  H   H1285     1.0  0.28177  0.90123  0.46197  1.0000
  H   H1286     1.0  0.23546  0.76046  0.43700  1.0000
  H   H1287     1.0  0.23585  0.76833  0.16599  1.0000
  H   H1288     1.0  0.05301  0.88670  0.32774  1.0000
  C   C759      1.0  0.31700  0.74510  0.15538  1.0000
  N   N55       1.0  0.17818  0.78195  0.30294  1.0000
  H   H1289     1.0  0.19554  0.76469  0.17162  1.0000
  C   C760      1.0  0.25775  0.95801  0.46775  1.0000
  H   H1290     1.0  0.20964  0.76337  0.18821  1.0000
  N   N56       1.0  0.28967  0.76153  0.21751  1.0000
  C   C761      1.0  0.15341  0.77677  0.46310  1.0000
  H   H1291     1.0  0.11348  0.76829  0.43112  1.0000
  C   C762      1.0  0.02863  0.80081  0.38335  1.0000
  H   H1292     1.0  0.09429  0.74918  0.43133  1.0000
  H   H1293     1.0  0.07820  0.87163  0.30803  1.0000
  C   C763      1.0  0.02320  0.77818  0.34542  1.0000
  C   C764      1.0  0.22997  0.73905  0.24467  1.0000
  H   H1294     1.0  0.14715  0.79137  0.45857  1.0000
  C   C765      1.0  0.05645  0.89388  0.33701  1.0000
  H   H1295     1.0  0.03437  0.86044  0.36272  1.0000
  S   S220      1.0  0.00297  0.89032  0.35715  1.0000
  C   C766      1.0  0.17576  0.90194  0.46235  1.0000
  H   H1296     1.0  0.06469  0.88133  0.37480  1.0000
  H   H1297     1.0  0.25100  0.74299  0.37330  1.0000
  H   H1298     1.0  0.12533  0.88374  0.34112  1.0000
  C   C767      1.0  0.23921  0.78014  0.41121  1.0000
  H   H1299     1.0  0.08002  0.86433  0.38793  1.0000
  H   H1300     1.0  0.14203  0.75440  0.38601  1.0000
  H   H1301     1.0  0.01406  0.78986  0.33757  1.0000
  H   H1302     1.0  0.28723  0.93286  0.45511  1.0000
  H   H1303     1.0  0.27452  0.76863  0.26378  1.0000
  C   C768      1.0  0.28812  0.74533  0.21024  1.0000
  C   C769      1.0  0.22630  0.77741  0.34915  1.0000
  H   H1304     1.0  0.20368  0.75198  0.23631  1.0000
  H   H1305     1.0  0.13361  0.75028  0.42867  1.0000
  H   H1306     1.0  0.04105  0.77229  0.36469  1.0000
  H   H1307     1.0  0.27026  0.75095  0.24223  1.0000
  H   H1308     1.0  0.23807  0.78262  0.39646  1.0000
  C   C770      1.0  0.15933  0.79884  0.27672  1.0000
  H   H1309     1.0  0.17076  0.76427  0.34456  1.0000
  H   H1310     1.0  0.20507  0.80658  0.29660  1.0000
  H   H1311     1.0  0.13263  0.88877  0.31629  1.0000
  H   H1312     1.0  0.30428  0.79305  0.21364  1.0000
  H   H1313     1.0  0.22154  0.74110  0.39474  1.0000
  H   H1314     1.0  0.26261  0.77688  0.21197  1.0000
  H   H1315     1.0  0.19486  0.78367  0.27442  1.0000
  H   H1316     1.0  0.10868  0.87748  0.31105  1.0000
  H   H1317     1.0  0.23805  0.79952  0.35151  1.0000
  C   C771      1.0  0.17792  0.76140  0.30675  1.0000
  C   C772      1.0  0.28029  0.92770  0.46986  1.0000
  S   S221      1.0  0.09105  0.75472  0.46898  1.0000
  C   C773      1.0  0.17730  0.75363  0.29014  1.0000
  C   C774      1.0  0.07551  0.86826  0.37432  1.0000
  H   H1318     1.0  0.19433  0.77968  0.32352  1.0000
  H   H1319     1.0  0.09975  0.76535  0.38717  1.0000
  H   H1320     1.0  0.19037  0.75277  0.31246  1.0000
  H   H1321     1.0  0.16549  0.75810  0.31765  1.0000
  H   H1322     1.0  0.23165  0.76609  0.11369  1.0000
  N   N57       1.0  0.22575  0.75041  0.41783  1.0000
  H   H1323     1.0  0.21432  0.74775  0.14128  1.0000
  H   H1324     1.0  0.14086  0.78162  0.42137  1.0000
  H   H1325     1.0  0.09688  0.88355  0.36067  1.0000
  H   H1326     1.0  0.18905  0.75582  0.27807  1.0000
  H   H1327     1.0  0.16369  0.75934  0.28580  1.0000
  H   H1328     1.0  0.17845  0.73825  0.29480  1.0000
  C   C775      1.0  0.99337  0.78542  0.40412  1.0000
  C   C776      1.0  0.20094  0.87556  0.45629  1.0000
  H   H1329     1.0  0.16388  0.81218  0.26946  1.0000
  H   H1330     1.0  0.01212  0.81697  0.35003  1.0000
  C   C777      1.0  0.19929  0.80541  0.28502  1.0000
  H   H1331     1.0  0.26640  0.73625  0.17925  1.0000
  H   H1332     1.0  0.20338  0.76382  0.43780  1.0000
  C   C778      1.0  0.23918  0.75690  0.12467  1.0000
  C   C779      1.0  0.28310  0.78504  0.18713  1.0000
  H   H1333     1.0  0.14271  0.76017  0.24345  1.0000
  C   C780      1.0  0.28266  0.75747  0.23848  1.0000
  H   H1334     1.0  0.25909  0.75302  0.38765  1.0000
  C   C781      1.0  0.27727  0.77887  0.20859  1.0000
  H   H1335     1.0  0.04830  0.79211  0.40183  1.0000
  H   H1336     1.0  0.26387  0.96228  0.45255  1.0000
  C   C782      1.0  0.01365  0.87153  0.34570  1.0000
  C   C783      1.0  0.12485  0.76206  0.42043  1.0000
  H   H1337     1.0  0.29890  0.76436  0.13791  1.0000
  H   H1338     1.0  0.27340  0.79827  0.18233  1.0000
  C   C784      1.0  0.30374  0.74984  0.14421  1.0000
  C   C785      1.0  0.10410  0.74237  0.42010  1.0000
  C   C786      1.0  0.07764  0.89329  0.33307  1.0000
  H   H1339     1.0  0.01200  0.73463  0.42075  1.0000
  H   H1340     1.0  0.15047  0.77054  0.40189  1.0000
  H   H1341     1.0  0.99829  0.77596  0.37888  1.0000
  S   S222      1.0  0.18042  0.78922  0.47127  1.0000
  H   H1342     1.0  0.11865  0.86005  0.32866  1.0000
  H   H1343     1.0  0.07918  0.77623  0.41583  1.0000
  C   C787      1.0  0.14501  0.76277  0.46203  1.0000
  H   H1344     1.0  0.18666  0.81664  0.28354  1.0000
  H   H1345     1.0  0.15747  0.80796  0.30158  1.0000
  H   H1346     1.0  0.20797  0.77538  0.29195  1.0000
  C   C788      1.0  0.99483  0.82664  0.37413  1.0000
  H   H1347     1.0  0.29988  0.77067  0.05724  1.0000
  H   H1348     1.0  0.06904  0.85817  0.34467  1.0000
  C   C789      1.0  0.21102  0.79939  0.36996  1.0000
  C   C790      1.0  0.19532  0.78572  0.28823  1.0000
  S   S223      1.0  0.22880  0.75629  0.25674  1.0000
  C   C791      1.0  0.00700  0.77974  0.38645  1.0000
  H   H1349     1.0  0.05360  0.77774  0.38517  1.0000
  C   C792      1.0  0.25026  0.74329  0.38810  1.0000
  C   C793      1.0  0.21544  0.74017  0.23599  1.0000
  H   H1350     1.0  0.04781  0.73645  0.39447  1.0000
  H   H1351     1.0  0.30030  0.80441  0.04332  1.0000
  C   C794      1.0  0.03150  0.78482  0.35848  1.0000
  H   H1352     1.0  0.03709  0.81052  0.37307  1.0000
  H   H1353     1.0  0.21006  0.80781  0.27195  1.0000
  H   H1354     1.0  0.29416  0.74695  0.19496  1.0000
  H   H1355     1.0  0.09201  0.84479  0.34253  1.0000
  H   H1356     1.0  0.19129  0.75148  0.40762  1.0000
  C   C795      1.0  0.16023  0.79412  0.29767  1.0000
  C   C796      1.0  0.08366  0.85771  0.31628  1.0000
  H   H1357     1.0  0.10423  0.85917  0.36137  1.0000
  H   H1358     1.0  0.08158  0.89913  0.31777  1.0000
  H   H1359     1.0  0.06959  0.85657  0.37380  1.0000
  H   H1360     1.0  0.28143  0.96151  0.47766  1.0000
  H   H1361     1.0  0.99337  0.80542  0.36080  1.0000
  C   C797      1.0  0.25239  0.74542  0.18266  1.0000
  C   C798      1.0  0.20310  0.89573  0.47587  1.0000
  C   C799      1.0  0.17731  0.75298  0.47668  1.0000
  C   C800      1.0  0.20616  0.76140  0.42333  1.0000
  H   H1362     1.0  0.09802  0.85205  0.30897  1.0000
  C   C801      1.0  0.25119  0.93117  0.46043  1.0000
  C   C802      1.0  0.22503  0.75408  0.14351  1.0000
  H   H1363     1.0  0.13232  0.76663  0.45672  1.0000
  C   C803      1.0  0.16605  0.77941  0.33872  1.0000
  H   H1364     1.0  0.21760  0.76839  0.14569  1.0000
  H   H1365     1.0  0.18424  0.76819  0.37409  1.0000
  H   H1366     1.0  0.01947  0.80923  0.39354  1.0000
  H   H1367     1.0  0.04063  0.79447  0.34934  1.0000
  H   H1368     1.0  0.03439  0.77542  0.40529  1.0000
  H   H1369     1.0  0.01563  0.76679  0.35304  1.0000
  C   C804      1.0  0.21132  0.76827  0.35574  1.0000
  C   C805      1.0  0.31481  0.77993  0.21606  1.0000
  C   C806      1.0  0.31733  0.75223  0.27759  1.0000
  C   C807      1.0  0.13802  0.74828  0.25337  1.0000
  C   C808      1.0  0.19593  0.77511  0.36899  1.0000
  H   H1370     1.0  0.07936  0.90384  0.33998  1.0000
  H   H1371     1.0  0.17837  0.80140  0.31953  1.0000
  H   H1372     1.0  0.19671  0.74922  0.09407  1.0000
  H   H1373     1.0  0.04881  0.90870  0.33403  1.0000
  H   H1374     1.0  0.27316  0.74487  0.21212  1.0000
  H   H1375     1.0  0.27629  0.79119  0.21437  1.0000
  H   H1376     1.0  0.01132  0.85271  0.31039  1.0000
  H   H1377     1.0  0.29341  0.74703  0.24545  1.0000
  H   H1378     1.0  0.31410  0.74198  0.02559  1.0000
  H   H1379     1.0  0.14810  0.78776  0.30573  1.0000
  H   H1380     1.0  0.09486  0.79118  0.41438  1.0000
  H   H1381     1.0  0.25362  0.75129  0.42002  1.0000
  H   H1382     1.0  0.17179  0.74442  0.12252  1.0000
  H   H1383     1.0  0.24339  0.73755  0.19428  1.0000
  H   H1384     1.0  0.07613  0.73648  0.33738  1.0000
  C   C809      1.0  0.31212  0.74360  0.01117  1.0000
  S   S224      1.0  0.21168  0.74784  0.34837  1.0000
  C   C810      1.0  0.30995  0.76282  0.21251  1.0000
  H   H1385     1.0  0.19170  0.75037  0.19442  1.0000
  H   H1386     1.0  0.29960  0.90057  0.47361  1.0000
  S   S225      1.0  0.05973  0.73510  0.45296  1.0000
  H   H1387     1.0  0.99809  0.79458  0.41026  1.0000
  C   C811      1.0  0.00457  0.81036  0.36390  1.0000
  H   H1388     1.0  0.08277  0.79485  0.39603  1.0000
  N   N58       1.0  0.23297  0.74254  0.16035  1.0000
  H   H1389     1.0  0.22521  0.93368  0.45197  1.0000
  H   H1390     1.0  0.25104  0.91593  0.46480  1.0000
  C   C812      1.0  0.23087  0.94123  0.45925  1.0000
  C   C813      1.0  0.22967  0.75010  0.39731  1.0000
  H   H1391     1.0  0.31736  0.77713  0.23044  1.0000
  C   C814      1.0  0.06428  0.73422  0.34870  1.0000
  H   H1392     1.0  0.16526  0.78722  0.34953  1.0000
  H   H1393     1.0  0.31631  0.76185  0.19770  1.0000
  H   H1394     1.0  0.25380  0.75698  0.18831  1.0000
  H   H1395     1.0  0.01654  0.76614  0.39080  1.0000
  Fe  Fe110     1.0  0.27350  0.74039  0.30033  1.0000
  H   H1396     1.0  0.99379  0.95454  0.43795  1.0000
  H   H1397     1.0  0.15179  0.78191  0.33627  1.0000
  C   C815      1.0  0.29718  0.73572  0.14072  1.0000
  C   C816      1.0  0.16939  0.73897  0.47483  1.0000
  Fe  Fe111     1.0  0.24178  0.74314  0.28191  1.0000
  H   H1398     1.0  0.09473  0.74010  0.41218  1.0000
  C   C817      1.0  0.21662  0.73826  0.17598  1.0000
  H   H1399     1.0  0.22172  0.94113  0.47328  1.0000
  C   C818      1.0  0.19997  0.73901  0.10642  1.0000
  C   C819      1.0  0.18590  0.73634  0.12255  1.0000
  H   H1400     1.0  0.23000  0.95581  0.45098  1.0000
  C   C820      1.0  0.06364  0.73725  0.36632  1.0000
  H   H1401     1.0  0.24273  0.96517  0.46979  1.0000
  H   H1402     1.0  0.30601  0.75879  0.00688  1.0000
  H   H1403     1.0  0.22448  0.87196  0.46882  1.0000
  C   C821      1.0  0.03223  0.73554  0.43569  1.0000
  H   H1404     1.0  0.12609  0.74570  0.36860  1.0000
  H   H1405     1.0  0.11502  0.73605  0.29838  1.0000
  C   C822      1.0  0.28453  0.90609  0.47340  1.0000
  H   H1406     1.0  0.15562  0.86650  0.47771  1.0000
  H   H1407     1.0  0.18977  0.73914  0.43187  1.0000
  C   C823      1.0  0.12771  0.73560  0.38200  1.0000
  C   C824      1.0  0.32100  0.74005  0.26530  1.0000
  H   H1408     1.0  0.29294  0.73535  0.99886  1.0000
  C   C825      1.0  0.12239  0.73473  0.28430  1.0000
  S   S226      1.0  0.28289  0.73441  0.09774  1.0000
  H   H1409     1.0  0.26446  0.98232  0.47238  1.0000
  C   C826      1.0  0.04845  0.73391  0.38094  1.0000
  H   H1410     1.0  0.17177  0.83104  0.47776  1.0000
  H   H1411     1.0  0.20776  0.73374  0.45500  1.0000
  H   H1412     1.0  0.14279  0.73391  0.40345  1.0000
  H   H1413     1.0  0.28803  0.93142  0.47837  1.0000
  C   C827      1.0  0.11064  0.91270  0.59023  1.0000
  H   H1414     1.0  0.19548  0.82325  0.50761  1.0000
  S   S227      1.0  0.07583  0.78686  0.50512  1.0000
  S   S228      1.0  0.18055  0.89886  0.57998  1.0000
  Fe  Fe112     1.0  0.10366  0.81341  0.62525  1.0000
  S   S229      1.0  0.07623  0.81880  0.61647  1.0000
  S   S230      1.0  0.10721  0.79969  0.65491  1.0000
  Fe  Fe113     1.0  0.12394  0.82836  0.58594  1.0000
  S   S231      1.0  0.09885  0.83360  0.57353  1.0000
  S   S232      1.0  0.15143  0.83334  0.56718  1.0000
  Fe  Fe114     1.0  0.08324  0.84601  0.59862  1.0000
  S   S233      1.0  0.06749  0.87594  0.59082  1.0000
  Fe  Fe115     1.0  0.09390  0.80621  0.59215  1.0000
  S   S234      1.0  0.08643  0.78187  0.58627  1.0000
  S   S235      1.0  0.10869  0.84197  0.61022  1.0000
  S   S236      1.0  0.12078  0.79953  0.60177  1.0000
  H   H1415     1.0  0.14652  0.77825  0.50762  1.0000
  H   H1416     1.0  0.28192  0.77002  0.66118  1.0000
  H   H1417     1.0  0.19053  0.85754  0.51001  1.0000
  Fe  Fe116     1.0  0.19193  0.73519  0.69697  1.0000
  H   H1418     1.0  0.13381  0.89711  0.56118  1.0000
  S   S237      1.0  0.18728  0.75505  0.66954  1.0000
  C   C828      1.0  0.12664  0.90766  0.55068  1.0000
  C   C829      1.0  0.26625  0.96707  0.47858  1.0000
  H   H1419     1.0  0.06692  0.86614  0.53203  1.0000
  H   H1420     1.0  0.18028  0.86847  0.64275  1.0000
  H   H1421     1.0  0.27641  0.89974  0.48699  1.0000
  H   H1422     1.0  0.31107  0.74845  0.66474  1.0000
  H   H1423     1.0  0.19036  0.84693  0.62172  1.0000
  H   H1424     1.0  0.01739  0.88057  0.54113  1.0000
  S   S238      1.0  0.20232  0.74061  0.71995  1.0000
  H   H1425     1.0  0.16586  0.85509  0.62587  1.0000
  H   H1426     1.0  0.05308  0.94283  0.57580  1.0000
  C   C830      1.0  0.22755  0.98022  0.54348  1.0000
  H   H1427     1.0  0.11454  0.75863  0.52908  1.0000
  H   H1428     1.0  0.25803  0.77261  0.69514  1.0000
  H   H1429     1.0  0.10652  0.73593  0.55200  1.0000
  N   N59       1.0  0.17467  0.82558  0.63758  1.0000
  H   H1430     1.0  0.01447  0.83867  0.54744  1.0000
  N   N60       1.0  0.15809  0.84343  0.50195  1.0000
  H   H1431     1.0  0.27204  0.93598  0.50522  1.0000
  C   C831      1.0  0.17575  0.86431  0.50935  1.0000
  H   H1432     1.0  0.19098  0.84616  0.65449  1.0000
  H   H1433     1.0  0.11141  0.76999  0.63481  1.0000
  H   H1434     1.0  0.12311  0.79075  0.50834  1.0000
  H   H1435     1.0  0.10222  0.95105  0.55499  1.0000
  H   H1436     1.0  0.13437  0.82931  0.63858  1.0000
  H   H1437     1.0  0.03962  0.81838  0.60742  1.0000
  H   H1438     1.0  0.18972  0.74919  0.48248  1.0000
  H   H1439     1.0  0.32094  0.97164  0.64019  1.0000
  H   H1440     1.0  0.15665  0.80805  0.65704  1.0000
  N   N61       1.0  0.03191  0.84406  0.56310  1.0000
  H   H1441     1.0  0.99832  0.88633  0.55973  1.0000
  H   H1442     1.0  0.16024  0.73982  0.61166  1.0000
  H   H1443     1.0  0.16567  0.85430  0.65961  1.0000
  C   C832      1.0  0.18969  0.81936  0.49753  1.0000
  H   H1444     1.0  0.12817  0.90074  0.53897  1.0000
  H   H1445     1.0  0.05433  0.82302  0.57412  1.0000
  C   C833      1.0  0.28444  0.75527  0.70034  1.0000
  C   C834      1.0  0.17732  0.84551  0.63248  1.0000
  H   H1446     1.0  0.09976  0.92389  0.54652  1.0000
  H   H1447     1.0  0.16387  0.75011  0.55058  1.0000
  N   N62       1.0  0.29569  0.74921  0.64416  1.0000
  S   S239      1.0  0.22481  0.97024  0.52573  1.0000
  C   C835      1.0  0.03256  0.81250  0.55545  1.0000
  H   H1448     1.0  0.25439  0.76149  0.65774  1.0000
  C   C836      1.0  0.17166  0.82112  0.62043  1.0000
  H   H1449     1.0  0.00743  0.85730  0.58116  1.0000
  H   H1450     1.0  0.20135  0.81282  0.60630  1.0000
  C   C837      1.0  0.01837  0.86124  0.56868  1.0000
  H   H1451     1.0  0.99897  0.86743  0.54948  1.0000
  C   C838      1.0  0.24971  0.93122  0.49328  1.0000
  S   S240      1.0  0.19360  0.95179  0.50393  1.0000
  H   H1452     1.0  0.01906  0.83550  0.60351  1.0000
  C   C839      1.0  0.00372  0.89527  0.60062  1.0000
  S   S241      1.0  0.10550  0.73658  0.50803  1.0000
  H   H1453     1.0  0.13947  0.73821  0.60601  1.0000
  H   H1454     1.0  0.15056  0.85563  0.52660  1.0000
  Fe  Fe117     1.0  0.16729  0.94760  0.52507  1.0000
  S   S242      1.0  0.29620  0.77392  0.69152  1.0000
  C   C840      1.0  0.18799  0.82194  0.60318  1.0000
  C   C841      1.0  0.12918  0.78602  0.65882  1.0000
  C   C842      1.0  0.14434  0.78315  0.64392  1.0000
  C   C843      1.0  0.16194  0.77302  0.64742  1.0000
  C   C844      1.0  0.16450  0.76557  0.66584  1.0000
  C   C845      1.0  0.14919  0.76779  0.68075  1.0000
  C   C846      1.0  0.13160  0.77806  0.67724  1.0000
  H   H1455     1.0  0.14269  0.78915  0.62970  1.0000
  H   H1456     1.0  0.17372  0.77123  0.63583  1.0000
  H   H1457     1.0  0.15103  0.76215  0.69501  1.0000
  H   H1458     1.0  0.11992  0.78015  0.68886  1.0000
  C   C847      1.0  0.04291  0.88310  0.59537  1.0000
  C   C848      1.0  0.03131  0.87115  0.60696  1.0000
  C   C849      1.0  0.01175  0.87722  0.60949  1.0000
  C   C850      1.0  0.19195  0.81192  0.64305  1.0000
  C   C851      1.0  0.01536  0.90730  0.58937  1.0000
  C   C852      1.0  0.03487  0.90121  0.58672  1.0000
  H   H1459     1.0  0.03737  0.85727  0.61390  1.0000
  C   C853      1.0  0.29847  0.74802  0.62395  1.0000
  H   H1460     1.0  0.00930  0.92121  0.58245  1.0000
  H   H1461     1.0  0.04375  0.91051  0.57774  1.0000
  H   H1462     1.0  0.14109  0.73414  0.56746  1.0000
  H   H1463     1.0  0.10659  0.91984  0.60227  1.0000
  H   H1464     1.0  0.13395  0.91947  0.54481  1.0000
  H   H1465     1.0  0.05669  0.83668  0.54221  1.0000
  C   C854      1.0  0.13746  0.73768  0.63599  1.0000
  H   H1466     1.0  0.20670  0.96852  0.56543  1.0000
  C   C855      1.0  0.17298  0.88034  0.57659  1.0000
  C   C856      1.0  0.15776  0.87406  0.58926  1.0000
  C   C857      1.0  0.15100  0.85984  0.58627  1.0000
  C   C858      1.0  0.15970  0.85140  0.57094  1.0000
  C   C859      1.0  0.17536  0.85730  0.55858  1.0000
  C   C860      1.0  0.18179  0.87201  0.56118  1.0000
  H   H1467     1.0  0.15094  0.88051  0.60117  1.0000
  H   H1468     1.0  0.13927  0.85527  0.59605  1.0000
  H   H1469     1.0  0.18257  0.85053  0.54699  1.0000
  H   H1470     1.0  0.19373  0.87672  0.55142  1.0000
  C   C861      1.0  0.07778  0.78593  0.52790  1.0000
  C   C862      1.0  0.07580  0.76984  0.54184  1.0000
  C   C863      1.0  0.07800  0.76899  0.55988  1.0000
  C   C864      1.0  0.08238  0.78410  0.56397  1.0000
  C   C865      1.0  0.08415  0.80031  0.55010  1.0000
  C   C866      1.0  0.08178  0.80124  0.53207  1.0000
  H   H1471     1.0  0.07263  0.75802  0.53870  1.0000
  H   H1472     1.0  0.07654  0.75645  0.57060  1.0000
  H   H1473     1.0  0.08764  0.81197  0.55312  1.0000
  H   H1474     1.0  0.08340  0.81364  0.52121  1.0000
  H   H1475     1.0  0.19386  0.79833  0.63887  1.0000
  H   H1476     1.0  0.07505  0.91428  0.58402  1.0000
  H   H1477     1.0  0.17937  0.91841  0.48006  1.0000
  C   C867      1.0  0.08501  0.76239  0.63894  1.0000
  C   C868      1.0  0.13059  0.74229  0.55887  1.0000
  H   H1478     1.0  0.27336  0.73372  0.65388  1.0000
  H   H1479     1.0  0.08024  0.76441  0.65358  1.0000
  H   H1480     1.0  0.26151  0.76636  0.63232  1.0000
  C   C869      1.0  0.14776  0.82770  0.51090  1.0000
  C   C870      1.0  0.16318  0.84976  0.51686  1.0000
  C   C871      1.0  0.12776  0.83310  0.52219  1.0000
  C   C872      1.0  0.13200  0.77640  0.51045  1.0000
  H   H1481     1.0  0.15549  0.81672  0.52077  1.0000
  H   H1482     1.0  0.17052  0.83752  0.52598  1.0000
  H   H1483     1.0  0.12738  0.84000  0.53355  1.0000
  H   H1484     1.0  0.11816  0.84197  0.51296  1.0000
  H   H1485     1.0  0.12219  0.82021  0.52896  1.0000
  H   H1486     1.0  0.18337  0.84698  0.48071  1.0000
  H   H1487     1.0  0.14147  0.88424  0.50183  1.0000
  H   H1488     1.0  0.31026  0.97387  0.68108  1.0000
  H   H1489     1.0  0.11460  0.88559  0.60939  1.0000
  H   H1490     1.0  0.01471  0.96631  0.58297  1.0000
  S   S243      1.0  0.17449  0.91638  0.52940  1.0000
  C   C873      1.0  0.28259  0.76761  0.64711  1.0000
  H   H1491     1.0  0.20481  0.81732  0.63545  1.0000
  H   H1492     1.0  0.18371  0.80672  0.50417  1.0000
  C   C874      1.0  0.11206  0.74054  0.66351  1.0000
  H   H1493     1.0  0.07012  0.95700  0.56908  1.0000
  S   S244      1.0  0.13757  0.96083  0.52291  1.0000
  H   H1494     1.0  0.07930  0.77578  0.62996  1.0000
  H   H1495     1.0  0.09159  0.89337  0.60487  1.0000
  S   S245      1.0  0.21563  0.91901  0.53351  1.0000
  H   H1496     1.0  0.04022  0.80400  0.56651  1.0000
  H   H1497     1.0  0.18955  0.81810  0.67094  1.0000
  H   H1498     1.0  0.14679  0.82063  0.50007  1.0000
  H   H1499     1.0  0.17142  0.87479  0.51840  1.0000
  Fe  Fe118     1.0  0.18742  0.91791  0.55210  1.0000
  Fe  Fe119     1.0  0.20547  0.95043  0.52886  1.0000
  S   S246      1.0  0.21607  0.90146  0.48917  1.0000
  H   H1500     1.0  0.07089  0.94046  0.55525  1.0000
  C   C875      1.0  0.19256  0.80610  0.66410  1.0000
  C   C876      1.0  0.14916  0.73687  0.52752  1.0000
  C   C877      1.0  0.26226  0.76993  0.64534  1.0000
  H   H1501     1.0  0.17490  0.87217  0.49496  1.0000
  C   C878      1.0  0.21668  0.97747  0.56167  1.0000
  H   H1502     1.0  0.28784  0.77964  0.63694  1.0000
  H   H1503     1.0  0.15890  0.82631  0.66607  1.0000
  H   H1504     1.0  0.13996  0.78967  0.54050  1.0000
  H   H1505     1.0  0.12608  0.91133  0.58575  1.0000
  H   H1506     1.0  0.13844  0.84975  0.64399  1.0000
  H   H1507     1.0  0.04761  0.87760  0.54718  1.0000
  H   H1508     1.0  0.00925  0.82908  0.57169  1.0000
  H   H1509     1.0  0.04034  0.97293  0.59348  1.0000
  H   H1510     1.0  0.09965  0.97010  0.57530  1.0000
  H   H1511     1.0  0.16857  0.80691  0.62378  1.0000
  C   C879      1.0  0.01967  0.97917  0.57659  1.0000
  C   C880      1.0  0.10564  0.91449  0.55855  1.0000
  H   H1512     1.0  0.07607  0.93052  0.59630  1.0000
  H   H1513     1.0  0.11707  0.77560  0.53929  1.0000
  C   C881      1.0  0.15462  0.76020  0.54151  1.0000
  C   C882      1.0  0.02110  0.83165  0.55967  1.0000
  Fe  Fe120     1.0  0.20173  0.92023  0.51017  1.0000
  C   C883      1.0  0.05683  0.86379  0.54561  1.0000
  H   H1514     1.0  0.18989  0.83651  0.59695  1.0000
  C   C884      1.0  0.10649  0.75816  0.63288  1.0000
  H   H1515     1.0  0.10969  0.75930  0.61752  1.0000
  N   N63       1.0  0.13995  0.75117  0.53954  1.0000
  H   H1516     1.0  0.28310  0.73594  0.67188  1.0000
  H   H1517     1.0  0.02290  0.80420  0.55449  1.0000
  S   S247      1.0  0.06175  0.73851  0.50664  1.0000
  C   C885      1.0  0.17555  0.83583  0.48870  1.0000
  H   H1518     1.0  0.07886  0.75149  0.63695  1.0000
  C   C886      1.0  0.14716  0.77785  0.55003  1.0000
  H   H1519     1.0  0.12422  0.88412  0.48990  1.0000
  C   C887      1.0  0.08006  0.92738  0.58204  1.0000
  C   C888      1.0  0.31361  0.74880  0.64949  1.0000
  H   H1520     1.0  0.20674  0.79784  0.66571  1.0000
  C   C889      1.0  0.10657  0.89288  0.59826  1.0000
  H   H1521     1.0  0.13083  0.76926  0.49987  1.0000
  H   H1522     1.0  0.11338  0.75425  0.66530  1.0000
  H   H1523     1.0  0.23635  0.94151  0.49641  1.0000
  H   H1524     1.0  0.00277  0.86792  0.61832  1.0000
  H   H1525     1.0  0.25497  0.78480  0.64501  1.0000
  C   C890      1.0  0.03417  0.98286  0.58244  1.0000
  H   H1526     1.0  0.18270  0.79675  0.67186  1.0000
  H   H1527     1.0  0.12166  0.75324  0.56665  1.0000
  H   H1528     1.0  0.11093  0.88418  0.58753  1.0000
  H   H1529     1.0  0.13762  0.77522  0.56390  1.0000
  C   C891      1.0  0.14657  0.85921  0.49003  1.0000
  H   H1530     1.0  0.31843  0.75728  0.97527  1.0000
  H   H1531     1.0  0.29900  0.76212  0.61471  1.0000
  C   C892      1.0  0.03049  0.82503  0.59714  1.0000
  C   C893      1.0  0.15770  0.82302  0.65305  1.0000
  C   C894      1.0  0.04594  0.84928  0.54541  1.0000
  C   C895      1.0  0.10286  0.95508  0.58230  1.0000
  H   H1532     1.0  0.12776  0.83276  0.66187  1.0000
  C   C896      1.0  0.26048  0.92852  0.50891  1.0000
  H   H1533     1.0  0.99425  0.97515  0.64205  1.0000
  H   H1534     1.0  0.15909  0.78244  0.55209  1.0000
  Fe  Fe121     1.0  0.08147  0.75818  0.49870  1.0000
  C   C897      1.0  0.17857  0.85376  0.64851  1.0000
  H   H1535     1.0  0.12288  0.94004  0.56287  1.0000
  C   C898      1.0  0.13866  0.83455  0.64881  1.0000
  H   H1536     1.0  0.15608  0.74364  0.51341  1.0000
  H   H1537     1.0  0.28634  0.74382  0.62175  1.0000
  C   C899      1.0  0.12524  0.76544  0.53038  1.0000
  H   H1538     1.0  0.30854  0.73445  0.70723  1.0000
  C   C900      1.0  0.13343  0.87508  0.49949  1.0000
  H   H1539     1.0  0.16425  0.76391  0.52784  1.0000
  H   H1540     1.0  0.04854  0.84397  0.58242  1.0000
  H   H1541     1.0  0.04245  0.81418  0.54170  1.0000
  H   H1542     1.0  0.31725  0.77577  0.76329  1.0000
  H   H1543     1.0  0.15933  0.83089  0.61553  1.0000
  C   C901      1.0  0.29399  0.73705  0.70667  1.0000
  H   H1544     1.0  0.09043  0.95293  0.59350  1.0000
  H   H1545     1.0  0.12321  0.97133  0.48379  1.0000
  H   H1546     1.0  0.25866  0.96594  0.49340  1.0000
  C   C902      1.0  0.06809  0.94285  0.56964  1.0000
  H   H1547     1.0  0.26563  0.91339  0.51441  1.0000
  H   H1548     1.0  0.25064  0.93384  0.52103  1.0000
  H   H1549     1.0  0.24559  0.91763  0.49527  1.0000
  H   H1550     1.0  0.24154  0.74622  0.70513  1.0000
  H   H1551     1.0  0.13816  0.85357  0.48363  1.0000
  C   C903      1.0  0.04226  0.83411  0.57866  1.0000
  H   H1552     1.0  0.09899  0.90214  0.56238  1.0000
  C   C904      1.0  0.25612  0.74361  0.70563  1.0000
  H   H1553     1.0  0.02472  0.81373  0.59541  1.0000
  S   S248      1.0  0.17814  0.94905  0.54936  1.0000
  C   C905      1.0  0.26547  0.75853  0.69997  1.0000
  C   C906      1.0  0.10742  0.94260  0.56776  1.0000
  H   H1554     1.0  0.14731  0.97576  0.57052  1.0000
  H   H1555     1.0  0.14306  0.74573  0.64283  1.0000
  H   H1556     1.0  0.18460  0.81696  0.59215  1.0000
  C   C907      1.0  0.14476  0.74427  0.61481  1.0000
  H   H1557     1.0  0.11494  0.95264  0.58896  1.0000
  N   N64       1.0  0.10094  0.92431  0.57467  1.0000
  H   H1558     1.0  0.02564  0.86984  0.57295  1.0000
  H   H1559     1.0  0.06511  0.85880  0.55671  1.0000
  H   H1560     1.0  0.06439  0.97772  0.51812  1.0000
  H   H1561     1.0  0.09727  0.73955  0.66999  1.0000
  N   N65       1.0  0.11656  0.73984  0.64297  1.0000
  H   H1562     1.0  0.28161  0.97423  0.84177  1.0000
  H   H1563     1.0  0.31551  0.77837  0.64429  1.0000
  H   H1564     1.0  0.12433  0.87002  0.51292  1.0000
  H   H1565     1.0  0.03919  0.85464  0.53308  1.0000
  H   H1566     1.0  0.09060  0.97662  0.49505  1.0000
  H   H1567     1.0  0.14146  0.75978  0.61064  1.0000
  H   H1568     1.0  0.20167  0.81531  0.48619  1.0000
  C   C908      1.0  0.31644  0.73480  0.61583  1.0000
  C   C909      1.0  0.00783  0.87443  0.55369  1.0000
  H   H1569     1.0  0.25061  0.98214  0.83639  1.0000
  H   H1570     1.0  0.10866  0.73375  0.61113  1.0000
  H   H1571     1.0  0.64554  0.08317  0.30161  1.0000
  H   H1572     1.0  0.64464  0.06794  0.33365  1.0000
  Fe  Fe122     1.0  0.59558  0.03390  0.01966  1.0000
  S   S249      1.0  0.57107  0.05681  0.02654  1.0000
  S   S250      1.0  0.60154  0.00448  0.03661  1.0000
  H   H1573     1.0  0.59331  0.99530  0.98743  1.0000
  Fe  Fe123     1.0  0.59194  0.07554  0.01659  1.0000
  S   S251      1.0  0.58952  0.09553  0.03542  1.0000
  H   H1574     1.0  0.59004  0.04607  0.19276  1.0000
  S   S252      1.0  0.61667  0.05199  0.01178  1.0000
  H   H1575     1.0  0.63836  0.21014  0.13250  1.0000
  C   C910      1.0  0.59960  0.02793  0.11145  1.0000
  C   C911      1.0  0.63535  0.15592  0.20266  1.0000
  H   H1576     1.0  0.61455  0.03147  0.21125  1.0000
  C   C912      1.0  0.64217  0.05971  0.32469  1.0000
  C   C913      1.0  0.64097  0.19709  0.30000  1.0000
  H   H1577     1.0  0.62804  0.08602  0.27973  1.0000
  H   H1578     1.0  0.65332  0.12140  0.21834  1.0000
  H   H1579     1.0  0.50552  0.00868  0.13390  1.0000
  C   C914      1.0  0.64435  0.02923  0.28185  1.0000
  H   H1580     1.0  0.64949  0.04501  0.32925  1.0000
  C   C915      1.0  0.61850  0.05953  0.08585  1.0000
  S   S253      1.0  0.63417  0.22527  0.39527  1.0000
  H   H1581     1.0  0.63867  0.18791  0.29193  1.0000
  H   H1582     1.0  0.64968  0.03402  0.18289  1.0000
  C   C916      1.0  0.61516  0.02597  0.09380  1.0000
  C   C917      1.0  0.64146  0.09516  0.04186  1.0000
  H   H1583     1.0  0.64232  0.15752  0.28160  1.0000
  C   C918      1.0  0.64528  0.15964  0.36144  1.0000
  H   H1584     1.0  0.63609  0.00922  0.06394  1.0000
  H   H1585     1.0  0.61457  0.15001  0.16019  1.0000
  H   H1586     1.0  0.62535  0.17508  0.46732  1.0000
  H   H1587     1.0  0.65210  0.05482  0.15013  1.0000
  H   H1588     1.0  0.62489  0.99810  0.15555  1.0000
  C   C919      1.0  0.55787  0.01007  0.00483  1.0000
  C   C920      1.0  0.62116  0.14890  0.45124  1.0000
  Fe  Fe124     1.0  0.60309  0.22933  0.40550  1.0000
  S   S254      1.0  0.64863  0.17791  0.11579  1.0000
  H   H1589     1.0  0.63653  0.03604  0.30888  1.0000
  H   H1590     1.0  0.61500  0.00694  0.21859  1.0000
  H   H1591     1.0  0.64358  0.17438  0.17441  1.0000
  H   H1592     1.0  0.54435  0.01702  0.98200  1.0000
  H   H1593     1.0  0.63441  0.16450  0.35343  1.0000
  H   H1594     1.0  0.60885  0.02863  0.15562  1.0000
  Fe  Fe125     1.0  0.63482  0.19645  0.41335  1.0000
  S   S255      1.0  0.60356  0.19960  0.42167  1.0000
  C   C921      1.0  0.65236  0.16594  0.25190  1.0000
  C   C922      1.0  0.65038  0.06765  0.30403  1.0000
  H   H1595     1.0  0.59892  0.09691  0.19205  1.0000
  C   C923      1.0  0.62391  0.15354  0.16724  1.0000
  H   H1596     1.0  0.57164  0.06282  0.06979  1.0000
  C   C924      1.0  0.61726  0.05031  0.17446  1.0000
  C   C925      1.0  0.62790  0.13733  0.18391  1.0000
  C   C926      1.0  0.59571  0.05427  0.17891  1.0000
  H   H1597     1.0  0.63304  0.06804  0.10233  1.0000
  H   H1598     1.0  0.64350  0.01451  0.28894  1.0000
  C   C927      1.0  0.65205  0.14680  0.45662  1.0000
  H   H1599     1.0  0.65303  0.09198  0.25782  1.0000
  H   H1600     1.0  0.54832  0.23340  0.42148  1.0000
  H   H1601     1.0  0.61886  0.13159  0.23168  1.0000
  C   C928      1.0  0.50276  0.99785  0.14685  1.0000
  C   C929      1.0  0.59978  0.15591  0.45640  1.0000
  C   C930      1.0  0.61861  0.08103  0.20933  1.0000
  C   C931      1.0  0.63468  0.03872  0.06435  1.0000
  C   C932      1.0  0.65202  0.15357  0.26926  1.0000
  H   H1602     1.0  0.61637  0.16676  0.17191  1.0000
  H   H1603     1.0  0.61024  0.05455  0.30715  1.0000
  H   H1604     1.0  0.60814  0.08033  0.22222  1.0000
  S   S256      1.0  0.63333  0.13460  0.10859  1.0000
  S   S257      1.0  0.59206  0.03769  0.99046  1.0000
  H   H1605     1.0  0.57164  0.00623  0.00877  1.0000
  H   H1606     1.0  0.65462  0.13385  0.43264  1.0000
  C   C933      1.0  0.63721  0.07209  0.20961  1.0000
  H   H1607     1.0  0.62740  0.03912  0.14221  1.0000
  H   H1608     1.0  0.52929  0.98939  0.11831  1.0000
  H   H1609     1.0  0.55041  0.02331  0.00962  1.0000
  C   C934      1.0  0.64398  0.16781  0.37653  1.0000
  C   C935      1.0  0.62826  0.07074  0.28371  1.0000
  C   C936      1.0  0.65061  0.20115  0.13730  1.0000
  Fe  Fe126     1.0  0.60542  0.21082  0.44567  1.0000
  H   H1610     1.0  0.62681  0.18587  0.19126  1.0000
  S   S258      1.0  0.63678  0.20524  0.43877  1.0000
  H   H1611     1.0  0.53066  0.19837  0.47019  1.0000
  H   H1612     1.0  0.63705  0.05147  0.05331  1.0000
  C   C937      1.0  0.64774  0.02891  0.17117  1.0000
  H   H1613     1.0  0.62139  0.06077  0.16158  1.0000
  H   H1614     1.0  0.59296  0.14702  0.46902  1.0000
  H   H1615     1.0  0.56220  0.23064  0.43807  1.0000
  H   H1616     1.0  0.56782  0.98740  0.04322  1.0000
  H   H1617     1.0  0.59361  0.15591  0.44462  1.0000
  Fe  Fe127     1.0  0.56890  0.06214  0.99638  1.0000
  H   H1618     1.0  0.54953  0.99939  0.01274  1.0000
  H   H1619     1.0  0.60504  0.01652  0.18891  1.0000
  H   H1620     1.0  0.62739  0.00199  0.18634  1.0000
  N   N66       1.0  0.63207  0.14578  0.46627  1.0000
  H   H1621     1.0  0.59036  0.06931  0.17957  1.0000
  H   H1622     1.0  0.59004  0.05189  0.16788  1.0000
  H   H1623     1.0  0.63217  0.17889  0.38010  1.0000
  H   H1624     1.0  0.51504  0.99358  0.15349  1.0000
  S   S259      1.0  0.58762  0.08309  0.98677  1.0000
  H   H1625     1.0  0.56471  0.19750  0.45901  1.0000
  C   C938      1.0  0.60829  0.09897  0.04316  1.0000
  C   C939      1.0  0.60431  0.10885  0.05759  1.0000
  C   C940      1.0  0.61881  0.11175  0.06425  1.0000
  C   C941      1.0  0.63750  0.10509  0.05626  1.0000
  C   C942      1.0  0.63949  0.17453  0.18947  1.0000
  C   C943      1.0  0.62696  0.09197  0.03544  1.0000
  H   H1626     1.0  0.58992  0.11437  0.06363  1.0000
  H   H1627     1.0  0.61555  0.11952  0.07523  1.0000
  S   S260      1.0  0.54021  0.06444  0.99059  1.0000
  H   H1628     1.0  0.63026  0.08446  0.02426  1.0000
  C   C944      1.0  0.57497  0.99652  0.09893  1.0000
  H   H1629     1.0  0.65340  0.22072  0.15217  1.0000
  H   H1630     1.0  0.63134  0.03587  0.27656  1.0000
  C   C945      1.0  0.59131  0.00190  0.06056  1.0000
  C   C946      1.0  0.57463  0.01385  0.06700  1.0000
  C   C947      1.0  0.56652  0.01124  0.08620  1.0000
  S   S261      1.0  0.63917  0.18885  0.25059  1.0000
  H   H1631     1.0  0.59838  0.07186  0.29140  1.0000
  H   H1632     1.0  0.56787  0.02501  0.05720  1.0000
  H   H1633     1.0  0.55364  0.02053  0.09116  1.0000
  C   C948      1.0  0.59977  0.98725  0.07333  1.0000
  C   C949      1.0  0.63391  0.00855  0.14919  1.0000
  C   C950      1.0  0.61017  0.06885  0.29860  1.0000
  C   C951      1.0  0.61341  0.09039  0.19232  1.0000
  S   S262      1.0  0.61978  0.10161  0.15453  1.0000
  H   H1634     1.0  0.62682  0.06756  0.27066  1.0000
  H   H1635     1.0  0.63656  0.15580  0.15638  1.0000
  H   H1636     1.0  0.63655  0.11569  0.47020  1.0000
  H   H1637     1.0  0.63653  0.01449  0.20886  1.0000
  C   C952      1.0  0.62687  0.09108  0.17563  1.0000
  N   N67       1.0  0.64646  0.06001  0.28924  1.0000
  H   H1638     1.0  0.65281  0.16115  0.44802  1.0000
  H   H1639     1.0  0.60708  0.07894  0.30788  1.0000
  C   C953      1.0  0.61990  0.01630  0.18831  1.0000
  H   H1640     1.0  0.60488  0.05753  0.05429  1.0000
  H   H1641     1.0  0.59711  0.03672  0.06667  1.0000
  C   C954      1.0  0.60083  0.04917  0.06869  1.0000
  N   N68       1.0  0.64171  0.13855  0.19446  1.0000
  H   H1642     1.0  0.65411  0.17296  0.31799  1.0000
  C   C955      1.0  0.65077  0.07303  0.19295  1.0000
  H   H1643     1.0  0.62149  0.05403  0.18576  1.0000
  C   C956      1.0  0.58254  0.06116  0.07779  1.0000
  C   C957      1.0  0.62167  0.01765  0.20774  1.0000
  H   H1644     1.0  0.51284  0.98677  0.10684  1.0000
  H   H1645     1.0  0.59706  0.04130  0.11591  1.0000
  H   H1646     1.0  0.58421  0.07554  0.07685  1.0000
  H   H1647     1.0  0.62006  0.07179  0.07408  1.0000
  N   N69       1.0  0.62723  0.03075  0.17209  1.0000
  H   H1648     1.0  0.50856  0.05751  0.98142  1.0000
  C   C958      1.0  0.55910  0.01346  0.98352  1.0000
  H   H1649     1.0  0.60381  0.01693  0.12347  1.0000
  C   C959      1.0  0.64562  0.08275  0.17592  1.0000
  H   H1650     1.0  0.60559  0.06467  0.09565  1.0000
  S   S263      1.0  0.59172  0.20406  0.47634  1.0000
  N   N70       1.0  0.61695  0.04334  0.07865  1.0000
  H   H1651     1.0  0.64867  0.02193  0.04331  1.0000
  H   H1652     1.0  0.57711  0.05480  0.09246  1.0000
  C   C960      1.0  0.55758  0.20096  0.47245  1.0000
  H   H1653     1.0  0.63518  0.04317  0.10705  1.0000
  H   H1654     1.0  0.59612  0.17062  0.45824  1.0000
  H   H1655     1.0  0.62862  0.01915  0.09836  1.0000
  H   H1656     1.0  0.48731  0.98707  0.13346  1.0000
  H   H1657     1.0  0.62697  0.06054  0.32753  1.0000
  C   C961      1.0  0.62460  0.16131  0.47705  1.0000
  C   C962      1.0  0.64301  0.12146  0.21026  1.0000
  H   H1658     1.0  0.63260  0.12419  0.17845  1.0000
  H   H1659     1.0  0.62002  0.15829  0.20851  1.0000
  H   H1660     1.0  0.61397  0.13671  0.19323  1.0000
  H   H1661     1.0  0.61423  0.11629  0.21931  1.0000
  H   H1662     1.0  0.58633  0.02587  0.10953  1.0000
  H   H1663     1.0  0.64817  0.10837  0.20464  1.0000
  H   H1664     1.0  0.61240  0.01502  0.08817  1.0000
  C   C963      1.0  0.59160  0.98454  0.09246  1.0000
  H   H1665     1.0  0.62610  0.15951  0.43879  1.0000
  H   H1666     1.0  0.62770  0.20022  0.31031  1.0000
  H   H1667     1.0  0.64712  0.03405  0.07086  1.0000
  H   H1668     1.0  0.64345  0.21051  0.29055  1.0000
  C   C964      1.0  0.63561  0.02311  0.05426  1.0000
  S   S264      1.0  0.64763  0.22717  0.20426  1.0000
  Fe  Fe128     1.0  0.61101  0.05791  0.98292  1.0000
  C   C965      1.0  0.63480  0.05596  0.09579  1.0000
  Fe  Fe129     1.0  0.64276  0.11166  0.13179  1.0000
  C   C966      1.0  0.62486  0.11927  0.22505  1.0000
  S   S265      1.0  0.56462  0.99297  0.12284  1.0000
  S   S266      1.0  0.64316  0.05980  0.23091  1.0000
  H   H1669     1.0  0.63722  0.01019  0.13373  1.0000
  C   C967      1.0  0.64704  0.03927  0.29589  1.0000
  H   H1670     1.0  0.64192  0.15383  0.21480  1.0000
  H   H1671     1.0  0.64843  0.05529  0.08569  1.0000
  H   H1672     1.0  0.49075  0.00465  0.15658  1.0000
  H   H1673     1.0  0.62362  0.13585  0.44597  1.0000
  H   H1674     1.0  0.65045  0.17906  0.19341  1.0000
  H   H1675     1.0  0.62819  0.10693  0.23637  1.0000
  H   H1676     1.0  0.64745  0.00265  0.15355  1.0000
  H   H1677     1.0  0.62391  0.02620  0.04702  1.0000
  C   C968      1.0  0.62397  0.02770  0.15444  1.0000
  S   S267      1.0  0.63000  0.08438  0.73280  1.0000
  S   S268      1.0  0.64294  0.07148  0.69251  1.0000
  H   H1678     1.0  0.59474  0.01033  0.96507  1.0000
  H   H1679     1.0  0.50936  0.99902  0.86248  1.0000
  Fe  Fe130     1.0  0.62625  0.06140  0.72121  1.0000
  S   S269      1.0  0.59756  0.05461  0.72779  1.0000
  C   C969      1.0  0.56757  0.20467  0.48365  1.0000
  H   H1680     1.0  0.47388  0.19602  0.48641  1.0000
  N   N71       1.0  0.34738  0.17820  0.70272  1.0000
  H   H1681     1.0  0.44904  0.13280  0.54938  1.0000
  H   H1682     1.0  0.60954  0.16251  0.48356  1.0000
  H   H1683     1.0  0.33922  0.18929  0.67578  1.0000
  Fe  Fe131     1.0  0.50430  0.04910  0.90483  1.0000
  S   S270      1.0  0.50552  0.02417  0.89337  1.0000
  S   S271      1.0  0.52945  0.04819  0.91624  1.0000
  Fe  Fe132     1.0  0.47257  0.07287  0.88527  1.0000
  S   S272      1.0  0.47202  0.04999  0.87200  1.0000
  S   S273      1.0  0.45427  0.10128  0.87745  1.0000
  Fe  Fe133     1.0  0.47411  0.03165  0.90026  1.0000
  S   S274      1.0  0.45765  0.00871  0.91255  1.0000
  Fe  Fe134     1.0  0.50303  0.04462  0.86636  1.0000
  S   S275      1.0  0.52200  0.03950  0.83920  1.0000
  S   S276      1.0  0.47285  0.05499  0.91424  1.0000
  S   S277      1.0  0.50369  0.06915  0.87708  1.0000
  S   S278      1.0  0.63460  0.05398  0.95801  1.0000
  H   H1684     1.0  0.60465  0.13533  0.49752  1.0000
  Fe  Fe135     1.0  0.34630  0.11556  0.80384  1.0000
  S   S279      1.0  0.60421  0.01028  0.91637  1.0000
  H   H1685     1.0  0.33938  0.07929  0.87339  1.0000
  C   C970      1.0  0.45379  0.12509  0.91562  1.0000
  S   S280      1.0  0.48304  0.20721  0.55784  1.0000
  C   C971      1.0  0.34462  0.01677  0.64187  1.0000
  Fe  Fe136     1.0  0.45300  0.22159  0.55786  1.0000
  S   S281      1.0  0.42595  0.21111  0.56975  1.0000
  H   H1686     1.0  0.65350  0.02379  0.93836  1.0000
  S   S282      1.0  0.32921  0.15226  0.61231  1.0000
  H   H1687     1.0  0.44277  0.11985  0.91255  1.0000
  Fe  Fe137     1.0  0.38333  0.11073  0.81414  1.0000
  S   S283      1.0  0.35522  0.12946  0.82162  1.0000
  S   S284      1.0  0.39763  0.08927  0.83578  1.0000
  Fe  Fe138     1.0  0.38118  0.11758  0.77299  1.0000
  S   S285      1.0  0.35295  0.13650  0.77727  1.0000
  S   S286      1.0  0.39708  0.11007  0.74534  1.0000
  Fe  Fe139     1.0  0.36443  0.14884  0.79445  1.0000
  S   S287      1.0  0.35659  0.18031  0.78682  1.0000
  C   C972      1.0  0.35454  0.18554  0.71559  1.0000
  C   C973      1.0  0.36599  0.04236  0.59414  1.0000
  S   S288      1.0  0.39360  0.13128  0.78833  1.0000
  S   S289      1.0  0.37351  0.09551  0.79807  1.0000
  Fe  Fe140     1.0  0.37215  0.08914  0.62364  1.0000
  S   S290      1.0  0.34589  0.10278  0.64082  1.0000
  S   S291      1.0  0.37458  0.06195  0.61491  1.0000
  Fe  Fe141     1.0  0.39320  0.11876  0.62313  1.0000
  S   S292      1.0  0.36838  0.13478  0.64022  1.0000
  S   S293      1.0  0.42093  0.12802  0.61413  1.0000
  Fe  Fe142     1.0  0.36405  0.10680  0.65794  1.0000
  S   S294      1.0  0.35139  0.10363  0.68908  1.0000
  Fe  Fe143     1.0  0.35229  0.12945  0.62198  1.0000
  H   H1688     1.0  0.32676  0.14229  0.65217  1.0000
  S   S295      1.0  0.39022  0.09074  0.64236  1.0000
  S   S296      1.0  0.37738  0.11577  0.60317  1.0000
  C   C974      1.0  0.61352  0.12305  0.49196  1.0000
  C   C975      1.0  0.35895  0.05669  0.60425  1.0000
  C   C976      1.0  0.33970  0.06465  0.60714  1.0000
  H   H1689     1.0  0.64364  0.11306  0.77067  1.0000
  C   C977      1.0  0.33483  0.04310  0.59056  1.0000
  H   H1690     1.0  0.60595  0.99159  0.76295  1.0000
  H   H1691     1.0  0.54422  0.04099  0.87503  1.0000
  H   H1692     1.0  0.33408  0.07563  0.61503  1.0000
  C   C978      1.0  0.64418  0.10761  0.80072  1.0000
  H   H1693     1.0  0.47737  0.14799  0.51461  1.0000
  H   H1694     1.0  0.34449  0.07147  0.79731  1.0000
  H   H1695     1.0  0.34443  0.19800  0.72004  1.0000
  C   C979      1.0  0.55383  0.06364  0.85457  1.0000
  H   H1696     1.0  0.54734  0.01467  0.89686  1.0000
  H   H1697     1.0  0.44987  0.19930  0.49772  1.0000
  H   H1698     1.0  0.36520  0.99272  0.65359  1.0000
  C   C980      1.0  0.38423  0.10895  0.72954  1.0000
  C   C981      1.0  0.39355  0.10621  0.71150  1.0000
  C   C982      1.0  0.38362  0.10476  0.69884  1.0000
  C   C983      1.0  0.36434  0.10581  0.70429  1.0000
  C   C984      1.0  0.35504  0.10861  0.72231  1.0000
  C   C985      1.0  0.36491  0.11036  0.73483  1.0000
  H   H1699     1.0  0.40852  0.10515  0.70729  1.0000
  H   H1700     1.0  0.39092  0.10264  0.68495  1.0000
  H   H1701     1.0  0.65053  0.06164  0.64871  1.0000
  H   H1702     1.0  0.35763  0.11255  0.74866  1.0000
  Fe  Fe144     1.0  0.65314  0.23280  0.75875  1.0000
  H   H1703     1.0  0.56440  0.06370  0.95374  1.0000
  H   H1704     1.0  0.37367  0.01384  0.64267  1.0000
  H   H1705     1.0  0.45615  0.08994  0.94239  1.0000
  C   C986      1.0  0.33603  0.06062  0.80103  1.0000
  H   H1706     1.0  0.34451  0.17447  0.82725  1.0000
  H   H1707     1.0  0.36821  0.14098  0.67941  1.0000
  C   C987      1.0  0.42443  0.18855  0.58372  1.0000
  C   C988      1.0  0.43995  0.17602  0.58974  1.0000
  C   C989      1.0  0.43861  0.15759  0.59933  1.0000
  C   C990      1.0  0.42168  0.15165  0.60328  1.0000
  C   C991      1.0  0.40596  0.16442  0.59793  1.0000
  C   C992      1.0  0.40735  0.18280  0.58819  1.0000
  H   H1708     1.0  0.45305  0.18044  0.58683  1.0000
  H   H1709     1.0  0.45076  0.14784  0.60364  1.0000
  H   H1710     1.0  0.39285  0.16000  0.60094  1.0000
  H   H1711     1.0  0.39524  0.19244  0.58370  1.0000
  H   H1712     1.0  0.34152  0.02458  0.65328  1.0000
  H   H1713     1.0  0.49016  0.15458  0.56113  1.0000
  C   C993      1.0  0.63439  0.16009  0.49290  1.0000
  N   N72       1.0  0.64914  0.12522  0.80204  1.0000
  C   C994      1.0  0.48715  0.15984  0.54684  1.0000
  C   C995      1.0  0.34158  0.04353  0.87270  1.0000
  H   H1714     1.0  0.35373  0.09398  0.85647  1.0000
  H   H1715     1.0  0.32756  0.99220  0.78991  1.0000
  S   S297      1.0  0.63834  0.17669  0.74667  1.0000
  H   H1716     1.0  0.56449  0.04463  0.82765  1.0000
  H   H1717     1.0  0.49394  0.17200  0.54020  1.0000
  H   H1718     1.0  0.48400  0.99166  0.85368  1.0000
  C   C996      1.0  0.62710  0.04289  0.94460  1.0000
  C   C997      1.0  0.63924  0.02825  0.93654  1.0000
  C   C998      1.0  0.63256  0.01851  0.92713  1.0000
  C   C999      1.0  0.61374  0.02338  0.92593  1.0000
  C   C1000     1.0  0.62194  0.15360  0.79438  1.0000
  H   H1719     1.0  0.60836  0.16104  0.80159  1.0000
  Fe  Fe145     1.0  0.64875  0.20353  0.73962  1.0000
  H   H1720     1.0  0.64180  0.00687  0.92142  1.0000
  H   H1721     1.0  0.37557  0.16578  0.69014  1.0000
  C   C1001     1.0  0.43701  0.09918  0.86689  1.0000
  C   C1002     1.0  0.43020  0.11372  0.85287  1.0000
  C   C1003     1.0  0.41757  0.11123  0.84347  1.0000
  C   C1004     1.0  0.41171  0.09421  0.84820  1.0000
  C   C1005     1.0  0.41800  0.08005  0.86267  1.0000
  C   C1006     1.0  0.43052  0.08254  0.87200  1.0000
  H   H1722     1.0  0.43509  0.12670  0.84894  1.0000
  H   H1723     1.0  0.41273  0.12227  0.83234  1.0000
  H   H1724     1.0  0.41336  0.06696  0.86656  1.0000
  H   H1725     1.0  0.43511  0.07155  0.88326  1.0000
  C   C1007     1.0  0.53135  0.05377  0.93682  1.0000
  C   C1008     1.0  0.54834  0.05750  0.93725  1.0000
  H   H1726     1.0  0.56440  0.02656  0.97679  1.0000
  N   N73       1.0  0.35833  0.04886  0.85823  1.0000
  H   H1727     1.0  0.35388  0.07981  0.76554  1.0000
  C   C1009     1.0  0.51692  0.05395  0.95275  1.0000
  H   H1728     1.0  0.55939  0.05772  0.92483  1.0000
  C   C1010     1.0  0.35832  0.17208  0.73402  1.0000
  H   H1729     1.0  0.34017  0.10940  0.72660  1.0000
  H   H1730     1.0  0.50388  0.05075  0.95271  1.0000
  H   H1731     1.0  0.58615  0.02745  0.82376  1.0000
  H   H1732     1.0  0.49371  0.14863  0.53879  1.0000
  C   C1011     1.0  0.57106  0.02958  0.83051  1.0000
  H   H1733     1.0  0.38773  0.04673  0.85719  1.0000
  C   C1012     1.0  0.50083  0.01181  0.80464  1.0000
  C   C1013     1.0  0.51809  0.01710  0.79803  1.0000
  C   C1014     1.0  0.52423  0.02618  0.80844  1.0000
  C   C1015     1.0  0.51307  0.03008  0.82546  1.0000
  C   C1016     1.0  0.49539  0.02563  0.83160  1.0000
  C   C1017     1.0  0.48920  0.01668  0.82108  1.0000
  H   H1734     1.0  0.52676  0.01418  0.78486  1.0000
  H   H1735     1.0  0.53781  0.02984  0.80344  1.0000
  H   H1736     1.0  0.48671  0.02852  0.84471  1.0000
  H   H1737     1.0  0.47573  0.01281  0.82609  1.0000
  C   C1018     1.0  0.37320  0.05808  0.88101  1.0000
  H   H1738     1.0  0.61142  0.05071  0.85782  1.0000
  C   C1019     1.0  0.43699  0.02360  0.88519  1.0000
  C   C1020     1.0  0.44274  0.00787  0.89854  1.0000
  H   H1739     1.0  0.33908  0.04931  0.88534  1.0000
  C   C1021     1.0  0.37875  0.03995  0.82703  1.0000
  H   H1740     1.0  0.63470  0.10212  0.81383  1.0000
  H   H1741     1.0  0.44023  0.03678  0.88449  1.0000
  H   H1742     1.0  0.46588  0.08071  0.96284  1.0000
  H   H1743     1.0  0.64302  0.12269  0.48735  1.0000
  C   C1022     1.0  0.59365  0.03189  0.73064  1.0000
  C   C1023     1.0  0.57655  0.02762  0.74133  1.0000
  C   C1024     1.0  0.57274  0.00985  0.74356  1.0000
  H   H1744     1.0  0.64881  0.16250  0.48740  1.0000
  H   H1745     1.0  0.33060  0.22161  0.67490  1.0000
  C   C1025     1.0  0.60687  0.01826  0.72200  1.0000
  H   H1746     1.0  0.56618  0.03813  0.74795  1.0000
  H   H1747     1.0  0.55947  0.00684  0.75177  1.0000
  H   H1748     1.0  0.34015  0.22810  0.59293  1.0000
  H   H1749     1.0  0.62004  0.02142  0.71379  1.0000
  H   H1750     1.0  0.63714  0.11897  0.73058  1.0000
  C   C1026     1.0  0.32793  0.15433  0.72529  1.0000
  H   H1751     1.0  0.36045  0.05855  0.89223  1.0000
  C   C1027     1.0  0.59851  0.04601  0.86640  1.0000
  H   H1752     1.0  0.36753  0.07257  0.83842  1.0000
  H   H1753     1.0  0.45339  0.15150  0.51465  1.0000
  H   H1754     1.0  0.33814  0.07592  0.73376  1.0000
  C   C1028     1.0  0.43696  0.99120  0.90032  1.0000
  H   H1755     1.0  0.32477  0.14464  0.71839  1.0000
  C   C1029     1.0  0.33691  0.19121  0.80150  1.0000
  H   H1756     1.0  0.63506  0.14734  0.81755  1.0000
  C   C1030     1.0  0.46316  0.15048  0.52373  1.0000
  S   S298      1.0  0.32876  0.00476  0.85023  1.0000
  H   H1757     1.0  0.35987  0.02459  0.57959  1.0000
  C   C1031     1.0  0.56053  0.00502  0.89208  1.0000
  H   H1758     1.0  0.32614  0.05710  0.73791  1.0000
  H   H1759     1.0  0.61704  0.01779  0.75817  1.0000
  H   H1760     1.0  0.52478  0.98529  0.83288  1.0000
  H   H1761     1.0  0.53957  0.99360  0.84201  1.0000
  H   H1762     1.0  0.38263  0.02818  0.81961  1.0000
  H   H1763     1.0  0.64452  0.00040  0.68388  1.0000
  H   H1764     1.0  0.35731  0.03738  0.79323  1.0000
  H   H1765     1.0  0.53176  0.21335  0.52074  1.0000
  H   H1766     1.0  0.33191  0.09295  0.85258  1.0000
  C   C1032     1.0  0.42110  0.00581  0.87441  1.0000
  C   C1033     1.0  0.42535  0.16544  0.54770  1.0000
  C   C1034     1.0  0.32377  0.20587  0.79353  1.0000
  C   C1035     1.0  0.42604  0.99019  0.88832  1.0000
  H   H1767     1.0  0.32350  0.04429  0.85348  1.0000
  H   H1768     1.0  0.32360  0.07703  0.76914  1.0000
  C   C1036     1.0  0.61617  0.98876  0.77204  1.0000
  H   H1769     1.0  0.34571  0.06968  0.83690  1.0000
  H   H1770     1.0  0.58741  0.04215  0.93249  1.0000
  Fe  Fe146     1.0  0.48874  0.22170  0.52741  1.0000
  H   H1771     1.0  0.61889  0.14747  0.78411  1.0000
  H   H1772     1.0  0.57001  0.01737  0.94735  1.0000
  H   H1773     1.0  0.42383  0.15415  0.54173  1.0000
  C   C1037     1.0  0.35410  0.03579  0.58722  1.0000
  H   H1774     1.0  0.41120  0.17450  0.55064  1.0000
  H   H1775     1.0  0.47039  0.98878  0.76971  1.0000
  H   H1776     1.0  0.32584  0.21041  0.77846  1.0000
  C   C1038     1.0  0.55118  0.06095  0.95355  1.0000
  H   H1777     1.0  0.46226  0.17698  0.49137  1.0000
  C   C1039     1.0  0.63185  0.13898  0.80912  1.0000
  H   H1778     1.0  0.38076  0.03606  0.59190  1.0000
  C   C1040     1.0  0.32801  0.06378  0.76391  1.0000
  C   C1041     1.0  0.46328  0.18882  0.49683  1.0000
  H   H1779     1.0  0.43600  0.19084  0.53822  1.0000
  H   H1780     1.0  0.42243  0.03471  0.86251  1.0000
  H   H1781     1.0  0.34417  0.02804  0.87812  1.0000
  C   C1042     1.0  0.46938  0.18225  0.51582  1.0000
  H   H1782     1.0  0.46120  0.17913  0.55358  1.0000
  H   H1783     1.0  0.62658  0.17147  0.50052  1.0000
  C   C1043     1.0  0.35430  0.06867  0.84714  1.0000
  H   H1784     1.0  0.55328  0.01922  0.85638  1.0000
  H   H1785     1.0  0.57644  0.00585  0.85236  1.0000
  C   C1044     1.0  0.46579  0.16582  0.54838  1.0000
  H   H1786     1.0  0.65253  0.09476  0.83583  1.0000
  S   S299      1.0  0.50457  0.20776  0.50309  1.0000
  H   H1787     1.0  0.48464  0.17620  0.51248  1.0000
  H   H1788     1.0  0.45937  0.15541  0.55986  1.0000
  H   H1789     1.0  0.38028  0.05024  0.77930  1.0000
  H   H1790     1.0  0.47402  0.12813  0.54618  1.0000
  C   C1045     1.0  0.36461  0.00491  0.64166  1.0000
  H   H1791     1.0  0.53669  0.01398  0.95784  1.0000
  C   C1046     1.0  0.59083  0.99686  0.97325  1.0000
  H   H1792     1.0  0.62068  0.11817  0.78607  1.0000
  C   C1047     1.0  0.63170  0.02359  0.65181  1.0000
  H   H1793     1.0  0.36837  0.23198  0.57278  1.0000
  H   H1794     1.0  0.54802  0.07589  0.86138  1.0000
  H   H1795     1.0  0.43345  0.18099  0.52042  1.0000
  H   H1796     1.0  0.46805  0.19506  0.52113  1.0000
  H   H1797     1.0  0.63439  0.14665  0.50326  1.0000
  H   H1798     1.0  0.60283  0.02374  0.85182  1.0000
  H   H1799     1.0  0.56639  0.06704  0.84424  1.0000
  H   H1800     1.0  0.54341  0.06273  0.84714  1.0000
  C   C1048     1.0  0.42651  0.02249  0.87299  1.0000
  C   C1049     1.0  0.65346  0.10917  0.83577  1.0000
  H   H1801     1.0  0.60235  0.03646  0.87931  1.0000
  C   C1050     1.0  0.43861  0.17735  0.53362  1.0000
  H   H1802     1.0  0.58813  0.05862  0.86998  1.0000
  H   H1803     1.0  0.38523  0.05243  0.88811  1.0000
  H   H1804     1.0  0.57854  0.02220  0.89235  1.0000
  N   N74       1.0  0.45920  0.16848  0.53055  1.0000
  H   H1805     1.0  0.59109  0.04561  0.84120  1.0000
  C   C1051     1.0  0.55767  0.04578  0.86976  1.0000
  H   H1806     1.0  0.42956  0.15947  0.56132  1.0000
  C   C1052     1.0  0.56816  0.02049  0.85158  1.0000
  N   N75       1.0  0.44751  0.06502  0.80157  1.0000
  C   C1053     1.0  0.43243  0.05414  0.80499  1.0000
  C   C1054     1.0  0.43977  0.08513  0.79308  1.0000
  C   C1055     1.0  0.45182  0.06378  0.82031  1.0000
  C   C1056     1.0  0.46441  0.05620  0.78865  1.0000
  C   C1057     1.0  0.43660  0.03351  0.81568  1.0000
  C   C1058     1.0  0.43386  0.08850  0.77426  1.0000
  C   C1059     1.0  0.46066  0.07926  0.82203  1.0000
  C   C1060     1.0  0.48141  0.06555  0.78227  1.0000
  H   H1807     1.0  0.41904  0.06124  0.81300  1.0000
  H   H1808     1.0  0.42942  0.05362  0.79155  1.0000
  H   H1809     1.0  0.44978  0.09425  0.79067  1.0000
  H   H1810     1.0  0.42736  0.09113  0.80306  1.0000
  H   H1811     1.0  0.43881  0.06413  0.83144  1.0000
  H   H1812     1.0  0.46119  0.05016  0.82471  1.0000
  H   H1813     1.0  0.46991  0.04159  0.79543  1.0000
  H   H1814     1.0  0.46077  0.05439  0.77602  1.0000
  H   H1815     1.0  0.44855  0.02474  0.80772  1.0000
  H   H1816     1.0  0.43898  0.03222  0.82983  1.0000
  H   H1817     1.0  0.42430  0.02731  0.81776  1.0000
  H   H1818     1.0  0.42983  0.10385  0.76886  1.0000
  H   H1819     1.0  0.44540  0.08290  0.76341  1.0000
  H   H1820     1.0  0.42134  0.08282  0.77587  1.0000
  H   H1821     1.0  0.45083  0.09308  0.82081  1.0000
  H   H1822     1.0  0.47399  0.08039  0.81193  1.0000
  H   H1823     1.0  0.46377  0.07591  0.83622  1.0000
  H   H1824     1.0  0.49076  0.06003  0.79248  1.0000
  H   H1825     1.0  0.47772  0.08101  0.77975  1.0000
  H   H1826     1.0  0.48952  0.06232  0.76854  1.0000
  N   N76       1.0  0.34684  0.05301  0.76803  1.0000
  Fe  Fe147     1.0  0.64941  0.09221  0.70531  1.0000
  H   H1827     1.0  0.64964  0.02191  0.82448  1.0000
  C   C1061     1.0  0.35318  0.03682  0.75807  1.0000
  C   C1062     1.0  0.36012  0.06628  0.76090  1.0000
  C   C1063     1.0  0.62058  0.06413  0.65549  1.0000
  C   C1064     1.0  0.51967  0.05761  0.96904  1.0000
  C   C1065     1.0  0.36768  0.01988  0.76569  1.0000
  H   H1828     1.0  0.63013  0.16448  0.78677  1.0000
  N   N77       1.0  0.64583  0.03366  0.65309  1.0000
  H   H1829     1.0  0.36776  0.19034  0.70806  1.0000
  H   H1830     1.0  0.37078  0.00025  0.62819  1.0000
  C   C1066     1.0  0.32284  0.04938  0.86610  1.0000
  C   C1067     1.0  0.54773  0.00297  0.95191  1.0000
  H   H1831     1.0  0.35895  0.04170  0.74289  1.0000
  H   H1832     1.0  0.36260  0.07055  0.74538  1.0000
  S   S300      1.0  0.49453  0.99767  0.79341  1.0000
  H   H1833     1.0  0.63962  0.11707  0.84186  1.0000
  C   C1068     1.0  0.36388  0.03544  0.84503  1.0000
  H   H1834     1.0  0.45395  0.13949  0.90711  1.0000
  H   H1835     1.0  0.37468  0.07241  0.87322  1.0000
  H   H1836     1.0  0.61877  0.06296  0.67073  1.0000
  H   H1837     1.0  0.33479  0.03568  0.79340  1.0000
  H   H1838     1.0  0.36138  0.01192  0.77946  1.0000
  H   H1839     1.0  0.38027  0.02379  0.76687  1.0000
  H   H1840     1.0  0.37234  0.01005  0.75594  1.0000
  H   H1841     1.0  0.35942  0.19608  0.67722  1.0000
  S   S301      1.0  0.63037  0.23086  0.74576  1.0000
  C   C1069     1.0  0.62711  0.02677  0.63241  1.0000
  H   H1842     1.0  0.61819  0.07937  0.64915  1.0000
  H   H1843     1.0  0.64757  0.08442  0.88756  1.0000
  C   C1070     1.0  0.60280  0.00068  0.72371  1.0000
  H   H1844     1.0  0.56459  0.99517  0.90482  1.0000
  H   H1845     1.0  0.63656  0.00817  0.65607  1.0000
  C   C1071     1.0  0.35716  0.15350  0.68208  1.0000
  H   H1846     1.0  0.58999  0.99562  0.81553  1.0000
  C   C1072     1.0  0.64330  0.16185  0.73071  1.0000
  H   H1847     1.0  0.62492  0.01094  0.77938  1.0000
  H   H1848     1.0  0.35174  0.03443  0.84013  1.0000
  C   C1073     1.0  0.33553  0.99506  0.62899  1.0000
  C   C1074     1.0  0.58581  0.99631  0.73470  1.0000
  H   H1849     1.0  0.55815  0.99645  0.88344  1.0000
  H   H1850     1.0  0.63265  0.03462  0.68217  1.0000
  H   H1851     1.0  0.48270  0.99040  0.88549  1.0000
  C   C1075     1.0  0.62543  0.00592  0.76669  1.0000
  H   H1852     1.0  0.36469  0.17896  0.74132  1.0000
  H   H1853     1.0  0.62116  0.13146  0.81898  1.0000
  H   H1854     1.0  0.61655  0.11226  0.50458  1.0000
  Fe  Fe148     1.0  0.62504  0.99027  0.90013  1.0000
  C   C1076     1.0  0.34544  0.19351  0.68540  1.0000
  C   C1077     1.0  0.32842  0.17363  0.71182  1.0000
  H   H1855     1.0  0.38526  0.07152  0.76527  1.0000
  C   C1078     1.0  0.34432  0.08434  0.85825  1.0000
  H   H1856     1.0  0.38957  0.05192  0.75438  1.0000
  S   S302      1.0  0.65012  0.04019  0.73164  1.0000
  H   H1857     1.0  0.44938  0.12583  0.93058  1.0000
  C   C1079     1.0  0.64153  0.13212  0.72528  1.0000
  C   C1080     1.0  0.37455  0.04534  0.86765  1.0000
  C   C1081     1.0  0.53890  0.20982  0.50732  1.0000
  H   H1858     1.0  0.37320  0.05276  0.81729  1.0000
  H   H1859     1.0  0.61272  0.02466  0.63431  1.0000
  H   H1860     1.0  0.55949  0.05011  0.88203  1.0000
  C   C1082     1.0  0.33429  0.18559  0.82100  1.0000
  H   H1861     1.0  0.63702  0.01668  0.62418  1.0000
  H   H1862     1.0  0.64108  0.05871  0.63112  1.0000
  S   S303      1.0  0.63687  0.00225  0.87047  1.0000
  C   C1083     1.0  0.46227  0.13218  0.53881  1.0000
  C   C1084     1.0  0.64037  0.05463  0.64642  1.0000
  H   H1863     1.0  0.33586  0.05369  0.81593  1.0000
  H   H1864     1.0  0.56446  0.02260  0.82356  1.0000
  C   C1085     1.0  0.32763  0.05779  0.60037  1.0000
  C   C1086     1.0  0.53691  0.06088  0.96959  1.0000
  H   H1865     1.0  0.50797  0.10526  0.88546  1.0000
  H   H1866     1.0  0.50804  0.14339  0.92779  1.0000
  H   H1867     1.0  0.58942  0.00470  0.87884  1.0000
  N   N78       1.0  0.48672  0.10972  0.92263  1.0000
  C   C1087     1.0  0.50411  0.09578  0.91632  1.0000
  C   C1088     1.0  0.47905  0.10249  0.94309  1.0000
  C   C1089     1.0  0.49096  0.12864  0.92036  1.0000
  C   C1090     1.0  0.47291  0.11181  0.91073  1.0000
  C   C1091     1.0  0.51592  0.10198  0.89668  1.0000
  C   C1092     1.0  0.46942  0.08582  0.94742  1.0000
  C   C1093     1.0  0.50585  0.12886  0.93075  1.0000
  H   H1868     1.0  0.51361  0.09169  0.92635  1.0000
  H   H1869     1.0  0.50045  0.08252  0.91624  1.0000
  H   H1870     1.0  0.46897  0.11375  0.94969  1.0000
  H   H1871     1.0  0.49039  0.09780  0.95117  1.0000
  H   H1872     1.0  0.49535  0.13506  0.90530  1.0000
  H   H1873     1.0  0.47810  0.13863  0.92556  1.0000
  H   H1874     1.0  0.47863  0.11741  0.89575  1.0000
  H   H1875     1.0  0.47051  0.09799  0.91048  1.0000
  H   H1876     1.0  0.52201  0.11404  0.89583  1.0000
  H   H1877     1.0  0.52786  0.09020  0.89368  1.0000
  C   C1094     1.0  0.33304  0.21266  0.68863  1.0000
  H   H1878     1.0  0.34874  0.98461  0.63046  1.0000
  N   N79       1.0  0.57057  0.99766  0.97389  1.0000
  H   H1879     1.0  0.46354  0.12055  0.53186  1.0000
  H   H1880     1.0  0.60955  0.05867  0.65283  1.0000
  H   H1881     1.0  0.63270  0.09481  0.78514  1.0000
  H   H1882     1.0  0.50126  0.12461  0.94616  1.0000
  N   N80       1.0  0.57334  0.02992  0.86419  1.0000
  C   C1095     1.0  0.57645  0.01555  0.88183  1.0000
  C   C1096     1.0  0.59158  0.03605  0.85502  1.0000
  C   C1097     1.0  0.65040  0.13688  0.70653  1.0000
  C   C1098     1.0  0.32667  0.06935  0.74306  1.0000
  H   H1883     1.0  0.33850  0.00446  0.61494  1.0000
  H   H1884     1.0  0.36908  0.02089  0.85246  1.0000
  C   C1099     1.0  0.60186  0.03833  0.93351  1.0000
  H   H1885     1.0  0.62686  0.04120  0.62413  1.0000
  C   C1100     1.0  0.52891  0.20602  0.49617  1.0000
  H   H1886     1.0  0.61833  0.02656  0.66215  1.0000
  H   H1887     1.0  0.34102  0.03083  0.75867  1.0000
  C   C1101     1.0  0.64667  0.03015  0.67348  1.0000
  H   H1888     1.0  0.59909  0.05942  0.94895  1.0000
  C   C1102     1.0  0.34420  0.04573  0.78891  1.0000
  C   C1103     1.0  0.56735  0.00307  0.95413  1.0000
  C   C1104     1.0  0.32719  0.99373  0.66341  1.0000
  H   H1889     1.0  0.34512  0.16931  0.74376  1.0000
  C   C1105     1.0  0.60847  0.04804  0.94286  1.0000
  N   N81       1.0  0.32949  0.00629  0.64414  1.0000
  H   H1890     1.0  0.36837  0.15881  0.73193  1.0000
  H   H1891     1.0  0.61288  0.99036  0.71663  1.0000
  C   C1106     1.0  0.32860  0.99753  0.81622  1.0000
  H   H1892     1.0  0.57738  0.99399  0.94505  1.0000
  H   H1893     1.0  0.34370  0.14889  0.68726  1.0000
  H   H1894     1.0  0.33971  0.98546  0.81898  1.0000
  H   H1895     1.0  0.56593  0.21172  0.50992  1.0000
  H   H1896     1.0  0.34523  0.02756  0.62870  1.0000
  C   C1107     1.0  0.36179  0.16176  0.69647  1.0000
  C   C1108     1.0  0.55823  0.20892  0.50116  1.0000
  H   H1897     1.0  0.33085  0.11520  0.77491  1.0000
  S   S304      1.0  0.40885  0.00506  0.85800  1.0000
  H   H1898     1.0  0.54769  0.00622  0.93672  1.0000
  H   H1899     1.0  0.65152  0.13880  0.77257  1.0000
  C   C1109     1.0  0.63776  0.14465  0.73718  1.0000
  C   C1110     1.0  0.63475  0.10896  0.78462  1.0000
  H   H1900     1.0  0.51958  0.11988  0.92608  1.0000
  H   H1901     1.0  0.34064  0.14745  0.73089  1.0000
  H   H1902     1.0  0.47869  0.07393  0.94139  1.0000
  H   H1903     1.0  0.60748  0.98898  0.78634  1.0000
  C   C1111     1.0  0.37983  0.05924  0.76527  1.0000
  H   H1904     1.0  0.35727  0.16330  0.66829  1.0000
  H   H1905     1.0  0.39176  0.04144  0.82991  1.0000
  H   H1906     1.0  0.63910  0.99282  0.73429  1.0000
  H   H1907     1.0  0.32914  0.00083  0.67370  1.0000
  H   H1908     1.0  0.37702  0.03062  0.87583  1.0000
  H   H1909     1.0  0.63986  0.00391  0.75841  1.0000
  H   H1910     1.0  0.63022  0.14109  0.75143  1.0000
  H   H1911     1.0  0.36462  0.14992  0.70829  1.0000
  H   H1912     1.0  0.33998  0.22023  0.69457  1.0000
  C   C1112     1.0  0.65237  0.16669  0.71197  1.0000
  S   S305      1.0  0.61613  0.98771  0.83889  1.0000
  H   H1913     1.0  0.54391  0.98915  0.95793  1.0000
  C   C1113     1.0  0.65402  0.00966  0.68288  1.0000
  C   C1114     1.0  0.51686  0.98407  0.86358  1.0000
  H   H1914     1.0  0.65472  0.00933  0.69744  1.0000
  H   H1915     1.0  0.60542  0.11779  0.48494  1.0000
  C   C1115     1.0  0.53833  0.20138  0.47884  1.0000
  C   C1116     1.0  0.32167  0.00136  0.79978  1.0000
  S   S306      1.0  0.65454  0.12140  0.69127  1.0000
  S   S307      1.0  0.36361  0.98372  0.88219  1.0000
  C   C1117     1.0  0.32152  0.15721  0.64827  1.0000
  C   C1118     1.0  0.63215  0.12661  0.47878  1.0000
  H   H1916     1.0  0.62398  0.34822  0.35764  1.0000
  H   H1917     1.0  0.63210  0.23807  0.45793  1.0000
  S   S308      1.0  0.58468  0.24388  0.38478  1.0000
  H   H1918     1.0  0.47071  0.45965  0.25475  1.0000
  S   S309      1.0  0.33781  0.43757  0.44176  1.0000
  C   C1119     1.0  0.59605  0.43515  0.35419  1.0000
  H   H1919     1.0  0.64419  0.27531  0.34999  1.0000
  H   H1920     1.0  0.55644  0.28680  0.42928  1.0000
  C   C1120     1.0  0.64720  0.39700  0.43813  1.0000
  C   C1121     1.0  0.58189  0.30669  0.26371  1.0000
  C   C1122     1.0  0.33972  0.40997  0.47354  1.0000
  H   H1921     1.0  0.50910  0.46993  0.20194  1.0000
  H   H1922     1.0  0.55839  0.25225  0.42119  1.0000
  H   H1923     1.0  0.34835  0.40099  0.46412  1.0000
  N   N82       1.0  0.49216  0.46527  0.22999  1.0000
  H   H1924     1.0  0.49440  0.45896  0.18599  1.0000
  S   S310      1.0  0.52347  0.45677  0.28328  1.0000
  S   S311      1.0  0.46723  0.45950  0.29581  1.0000
  Fe  Fe149     1.0  0.61727  0.33519  0.29280  1.0000
  S   S312      1.0  0.58829  0.33055  0.30645  1.0000
  S   S313      1.0  0.64003  0.31128  0.28327  1.0000
  Fe  Fe150     1.0  0.60925  0.37323  0.30341  1.0000
  S   S314      1.0  0.57978  0.37141  0.31770  1.0000
  Fe  Fe151     1.0  0.59139  0.34165  0.32982  1.0000
  S   S315      1.0  0.58207  0.33099  0.36076  1.0000
  Fe  Fe152     1.0  0.57901  0.36077  0.29316  1.0000
  S   S316      1.0  0.55203  0.37049  0.28298  1.0000
  S   S317      1.0  0.62109  0.34408  0.31746  1.0000
  S   S318      1.0  0.60780  0.36481  0.27744  1.0000
  H   H1925     1.0  0.53000  0.23461  0.45375  1.0000
  H   H1926     1.0  0.37752  0.47290  0.32195  1.0000
  S   S319      1.0  0.61655  0.40002  0.30434  1.0000
  H   H1927     1.0  0.60210  0.42439  0.36539  1.0000
  H   H1928     1.0  0.60911  0.28851  0.30980  1.0000
  C   C1123     1.0  0.61357  0.47758  0.39169  1.0000
  H   H1929     1.0  0.61876  0.46500  0.32089  1.0000
  H   H1930     1.0  0.53308  0.46803  0.24165  1.0000
  H   H1931     1.0  0.63978  0.40097  0.42632  1.0000
  H   H1932     1.0  0.62918  0.42819  0.31351  1.0000
  C   C1124     1.0  0.50091  0.25851  0.47364  1.0000
  H   H1933     1.0  0.61025  0.41374  0.44109  1.0000
  H   H1934     1.0  0.62081  0.40226  0.47221  1.0000
  H   H1935     1.0  0.35326  0.46340  0.46220  1.0000
  H   H1936     1.0  0.59136  0.30153  0.25138  1.0000
  H   H1937     1.0  0.62804  0.35824  0.45782  1.0000
  C   C1125     1.0  0.64625  0.38117  0.32145  1.0000
  H   H1938     1.0  0.46581  0.45643  0.23468  1.0000
  H   H1939     1.0  0.58109  0.43473  0.35690  1.0000
  H   H1940     1.0  0.62176  0.47928  0.35134  1.0000
  H   H1941     1.0  0.55814  0.24163  0.46643  1.0000
  C   C1126     1.0  0.52180  0.47385  0.23357  1.0000
  H   H1942     1.0  0.60335  0.43075  0.34082  1.0000
  C   C1127     1.0  0.55825  0.47236  0.35955  1.0000
  H   H1943     1.0  0.54233  0.28071  0.41665  1.0000
  H   H1944     1.0  0.62516  0.26618  0.36586  1.0000
  H   H1945     1.0  0.58346  0.27272  0.31596  1.0000
  N   N83       1.0  0.63859  0.38322  0.45431  1.0000
  Fe  Fe153     1.0  0.49315  0.47010  0.29207  1.0000
  H   H1946     1.0  0.64954  0.34492  0.43231  1.0000
  C   C1128     1.0  0.63992  0.24978  0.47707  1.0000
  H   H1947     1.0  0.62278  0.24176  0.26276  1.0000
  H   H1948     1.0  0.51409  0.44727  0.24413  1.0000
  C   C1129     1.0  0.64979  0.25770  0.44322  1.0000
  N   N84       1.0  0.59204  0.47076  0.34008  1.0000
  C   C1130     1.0  0.58207  0.30694  0.36738  1.0000
  C   C1131     1.0  0.58105  0.29704  0.35460  1.0000
  C   C1132     1.0  0.58148  0.27772  0.36014  1.0000
  C   C1133     1.0  0.58344  0.26817  0.37830  1.0000
  C   C1134     1.0  0.58440  0.27810  0.39108  1.0000
  C   C1135     1.0  0.58344  0.29749  0.38571  1.0000
  H   H1949     1.0  0.57968  0.30427  0.34055  1.0000
  H   H1950     1.0  0.58056  0.27010  0.35031  1.0000
  H   H1951     1.0  0.58565  0.27093  0.40515  1.0000
  H   H1952     1.0  0.58414  0.30510  0.39567  1.0000
  C   C1136     1.0  0.47751  0.45436  0.24164  1.0000
  H   H1953     1.0  0.37904  0.47695  0.45673  1.0000
  C   C1137     1.0  0.33278  0.42894  0.46628  1.0000
  C   C1138     1.0  0.60518  0.40247  0.45251  1.0000
  S   S320      1.0  0.62113  0.45367  0.39110  1.0000
  H   H1954     1.0  0.60079  0.30095  0.28187  1.0000
  C   C1139     1.0  0.35345  0.46985  0.47372  1.0000
  C   C1140     1.0  0.53079  0.43312  0.28166  1.0000
  C   C1141     1.0  0.51803  0.42159  0.28523  1.0000
  C   C1142     1.0  0.52458  0.40241  0.28497  1.0000
  C   C1143     1.0  0.54384  0.39472  0.28159  1.0000
  C   C1144     1.0  0.55652  0.40633  0.27783  1.0000
  C   C1145     1.0  0.55000  0.42553  0.27759  1.0000
  H   H1955     1.0  0.50319  0.42735  0.28851  1.0000
  H   H1956     1.0  0.51475  0.39341  0.28794  1.0000
  H   H1957     1.0  0.57140  0.40050  0.27520  1.0000
  H   H1958     1.0  0.55992  0.43439  0.27485  1.0000
  H   H1959     1.0  0.47245  0.42618  0.25343  1.0000
  C   C1146     1.0  0.54206  0.28800  0.42765  1.0000
  H   H1960     1.0  0.37495  0.46868  0.38077  1.0000
  H   H1961     1.0  0.53876  0.36456  0.37261  1.0000
  C   C1147     1.0  0.55174  0.24086  0.43055  1.0000
  H   H1962     1.0  0.40624  0.44848  0.37185  1.0000
  N   N85       1.0  0.59183  0.27491  0.28596  1.0000
  H   H1963     1.0  0.55920  0.43120  0.33463  1.0000
  C   C1148     1.0  0.63562  0.28382  0.37739  1.0000
  S   S321      1.0  0.32414  0.47811  0.39924  1.0000
  C   C1149     1.0  0.64115  0.30297  0.26326  1.0000
  C   C1150     1.0  0.62995  0.31259  0.25026  1.0000
  C   C1151     1.0  0.63094  0.30506  0.23479  1.0000
  H   H1964     1.0  0.60911  0.48091  0.29141  1.0000
  C   C1152     1.0  0.52910  0.28113  0.44625  1.0000
  H   H1965     1.0  0.62052  0.32579  0.25213  1.0000
  H   H1966     1.0  0.65279  0.39906  0.47698  1.0000
  H   H1967     1.0  0.32312  0.48039  0.16408  1.0000
  H   H1968     1.0  0.51507  0.28379  0.44296  1.0000
  C   C1153     1.0  0.64295  0.28781  0.23236  1.0000
  C   C1154     1.0  0.60784  0.26821  0.27089  1.0000
  H   H1969     1.0  0.62526  0.27145  0.29722  1.0000
  H   H1970     1.0  0.63588  0.31275  0.41620  1.0000
  H   H1971     1.0  0.53654  0.30311  0.42241  1.0000
  C   C1155     1.0  0.63027  0.31780  0.36551  1.0000
  C   C1156     1.0  0.64921  0.41517  0.44227  1.0000
  H   H1972     1.0  0.56483  0.25902  0.44687  1.0000
  H   H1973     1.0  0.61600  0.31798  0.37432  1.0000
  H   H1974     1.0  0.61358  0.38113  0.47590  1.0000
  C   C1157     1.0  0.65432  0.27840  0.24526  1.0000
  C   C1158     1.0  0.57420  0.26953  0.28556  1.0000
  C   C1159     1.0  0.41917  0.47162  0.35604  1.0000
  C   C1160     1.0  0.65347  0.28598  0.26058  1.0000
  Fe  Fe154     1.0  0.45660  0.47244  0.32113  1.0000
  C   C1161     1.0  0.63773  0.41481  0.31847  1.0000
  C   C1162     1.0  0.60353  0.46805  0.32105  1.0000
  H   H1975     1.0  0.64844  0.33847  0.35353  1.0000
  H   H1976     1.0  0.59844  0.25233  0.30960  1.0000
  S   S322      1.0  0.44063  0.45733  0.34776  1.0000
  N   N86       1.0  0.53481  0.26097  0.45592  1.0000
  H   H1977     1.0  0.58416  0.24167  0.27843  1.0000
  H   H1978     1.0  0.62109  0.29011  0.35398  1.0000
  H   H1979     1.0  0.52763  0.29070  0.45569  1.0000
  H   H1980     1.0  0.51664  0.37432  0.36639  1.0000
  H   H1981     1.0  0.64427  0.36850  0.31897  1.0000
  C   C1163     1.0  0.63978  0.24765  0.45924  1.0000
  H   H1982     1.0  0.62225  0.28562  0.38790  1.0000
  H   H1983     1.0  0.64883  0.42640  0.42940  1.0000
  H   H1984     1.0  0.61170  0.23812  0.28682  1.0000
  H   H1985     1.0  0.57759  0.24096  0.30359  1.0000
  C   C1164     1.0  0.50193  0.45898  0.21186  1.0000
  H   H1986     1.0  0.56125  0.45920  0.36997  1.0000
  H   H1987     1.0  0.57024  0.46035  0.33494  1.0000
  C   C1165     1.0  0.63140  0.27880  0.36066  1.0000
  H   H1988     1.0  0.61946  0.31586  0.40242  1.0000
  C   C1166     1.0  0.55413  0.25673  0.45992  1.0000
  H   H1989     1.0  0.62875  0.31732  0.35145  1.0000
  H   H1990     1.0  0.56728  0.30622  0.26421  1.0000
  C   C1167     1.0  0.40425  0.46356  0.36739  1.0000
  H   H1991     1.0  0.49253  0.42968  0.25886  1.0000
  C   C1168     1.0  0.50650  0.46218  0.24168  1.0000
  H   H1992     1.0  0.58220  0.32174  0.26153  1.0000
  Fe  Fe155     1.0  0.65217  0.44521  0.38084  1.0000
  C   C1169     1.0  0.53377  0.24775  0.44446  1.0000
  S   S323      1.0  0.64312  0.27819  0.21341  1.0000
  C   C1170     1.0  0.63471  0.39839  0.31555  1.0000
  H   H1993     1.0  0.62219  0.31250  0.22480  1.0000
  C   C1171     1.0  0.61267  0.27364  0.30850  1.0000
  C   C1172     1.0  0.63193  0.30606  0.40682  1.0000
  H   H1994     1.0  0.61825  0.27715  0.26716  1.0000
  H   H1995     1.0  0.61440  0.45253  0.35328  1.0000
  H   H1996     1.0  0.49402  0.27262  0.46694  1.0000
  H   H1997     1.0  0.40792  0.45464  0.31840  1.0000
  N   N87       1.0  0.52971  0.40924  0.34375  1.0000
  C   C1173     1.0  0.51142  0.40903  0.33941  1.0000
  C   C1174     1.0  0.53916  0.38905  0.34982  1.0000
  C   C1175     1.0  0.54153  0.41777  0.32575  1.0000
  C   C1176     1.0  0.52570  0.42069  0.35846  1.0000
  C   C1177     1.0  0.49869  0.42831  0.33356  1.0000
  C   C1178     1.0  0.52911  0.37805  0.36827  1.0000
  C   C1179     1.0  0.56072  0.42035  0.32666  1.0000
  C   C1180     1.0  0.54112  0.41766  0.36956  1.0000
  H   H1998     1.0  0.51397  0.40114  0.32810  1.0000
  H   H1999     1.0  0.50258  0.40161  0.35179  1.0000
  H   H2000     1.0  0.55362  0.38756  0.35130  1.0000
  H   H2001     1.0  0.54085  0.38112  0.33876  1.0000
  H   H2002     1.0  0.54412  0.40911  0.31516  1.0000
  H   H2003     1.0  0.53423  0.43198  0.31970  1.0000
  H   H2004     1.0  0.52238  0.43593  0.35201  1.0000
  H   H2005     1.0  0.51284  0.41795  0.36905  1.0000
  H   H2006     1.0  0.50492  0.43651  0.32001  1.0000
  C   C1181     1.0  0.48979  0.45373  0.20127  1.0000
  H   H2007     1.0  0.49457  0.43682  0.34445  1.0000
  H   H2008     1.0  0.52511  0.38561  0.37988  1.0000
  H   H2009     1.0  0.59245  0.40932  0.46147  1.0000
  H   H2010     1.0  0.57060  0.27510  0.27152  1.0000
  H   H2011     1.0  0.62791  0.29270  0.41503  1.0000
  H   H2012     1.0  0.56816  0.42550  0.31216  1.0000
  H   H2013     1.0  0.56995  0.40716  0.33216  1.0000
  H   H2014     1.0  0.54358  0.43149  0.36959  1.0000
  H   H2015     1.0  0.55481  0.40921  0.36413  1.0000
  H   H2016     1.0  0.53636  0.41112  0.38448  1.0000
  C   C1182     1.0  0.57446  0.24842  0.28971  1.0000
  H   H2017     1.0  0.49988  0.24780  0.46663  1.0000
  S   S324      1.0  0.60233  0.24076  0.43022  1.0000
  H   H2018     1.0  0.60299  0.26999  0.25773  1.0000
  H   H2019     1.0  0.56033  0.24665  0.28993  1.0000
  C   C1183     1.0  0.59908  0.45440  0.35466  1.0000
  H   H2020     1.0  0.63767  0.42082  0.45300  1.0000
  H   H2021     1.0  0.62681  0.37407  0.43587  1.0000
  H   H2022     1.0  0.60122  0.45557  0.31756  1.0000
  H   H2023     1.0  0.51324  0.44633  0.21444  1.0000
  H   H2024     1.0  0.48552  0.42603  0.33159  1.0000
  C   C1184     1.0  0.63499  0.33696  0.36345  1.0000
  C   C1185     1.0  0.61903  0.24781  0.27548  1.0000
  S   S325      1.0  0.65023  0.25487  0.42080  1.0000
  C   C1186     1.0  0.48463  0.43302  0.24757  1.0000
  H   H2025     1.0  0.60072  0.39281  0.44666  1.0000
  H   H2026     1.0  0.57713  0.30146  0.29378  1.0000
  H   H2027     1.0  0.61636  0.26516  0.32194  1.0000
  H   H2028     1.0  0.63513  0.33964  0.37711  1.0000
  H   H2029     1.0  0.49218  0.43826  0.20323  1.0000
  H   H2030     1.0  0.33889  0.47733  0.47841  1.0000
  C   C1187     1.0  0.38657  0.47497  0.37245  1.0000
  C   C1188     1.0  0.58807  0.29608  0.28224  1.0000
  H   H2031     1.0  0.63259  0.24766  0.27859  1.0000
  H   H2032     1.0  0.49343  0.42663  0.23572  1.0000
  S   S326      1.0  0.48368  0.47999  0.31917  1.0000
  H   H2033     1.0  0.59273  0.45701  0.36903  1.0000
  C   C1189     1.0  0.63565  0.36804  0.44650  1.0000
  H   H2034     1.0  0.56215  0.27591  0.29567  1.0000
  C   C1190     1.0  0.65156  0.37394  0.46776  1.0000
  H   H2035     1.0  0.41889  0.47411  0.31213  1.0000
  C   C1191     1.0  0.40699  0.46932  0.31032  1.0000
  C   C1192     1.0  0.59591  0.26779  0.30538  1.0000
  H   H2036     1.0  0.49958  0.46503  0.25588  1.0000
  H   H2037     1.0  0.52241  0.25399  0.43647  1.0000
  C   C1193     1.0  0.61975  0.39202  0.46465  1.0000
  H   H2038     1.0  0.54379  0.47414  0.35770  1.0000
  H   H2039     1.0  0.35675  0.48067  0.30061  1.0000
  C   C1194     1.0  0.57181  0.47205  0.34034  1.0000
  H   H2040     1.0  0.47465  0.45956  0.20478  1.0000
  H   H2041     1.0  0.37959  0.46814  0.29113  1.0000
  H   H2042     1.0  0.64856  0.36002  0.47571  1.0000
  H   H2043     1.0  0.40872  0.46931  0.29532  1.0000
  Fe  Fe156     1.0  0.63346  0.23427  0.42142  1.0000
  H   H2044     1.0  0.40267  0.46237  0.46941  1.0000
  C   C1195     1.0  0.65352  0.35590  0.43678  1.0000
  H   H2045     1.0  0.64470  0.27120  0.38426  1.0000
  C   C1196     1.0  0.36929  0.48162  0.28928  1.0000
  C   C1197     1.0  0.38821  0.48156  0.31816  1.0000
  N   N88       1.0  0.64408  0.30081  0.37282  1.0000
  H   H2046     1.0  0.55338  0.28326  0.46754  1.0000
  C   C1198     1.0  0.52124  0.25770  0.47451  1.0000
  H   H2047     1.0  0.64096  0.48210  0.38944  1.0000
  H   H2048     1.0  0.58462  0.47761  0.39419  1.0000
  H   H2049     1.0  0.52837  0.47339  0.21873  1.0000
  Fe  Fe157     1.0  0.32957  0.46843  0.42862  1.0000
  C   C1199     1.0  0.64867  0.30263  0.39036  1.0000
  H   H2050     1.0  0.65424  0.42674  0.32956  1.0000
  C   C1200     1.0  0.55699  0.26792  0.47288  1.0000
  C   C1201     1.0  0.65195  0.41401  0.32754  1.0000
  H   H2051     1.0  0.36497  0.48324  0.27591  1.0000
  H   H2052     1.0  0.57203  0.26427  0.47355  1.0000
  H   H2053     1.0  0.38936  0.48363  0.33177  1.0000
  C   C1202     1.0  0.36686  0.48360  0.46629  1.0000
  C   C1203     1.0  0.36832  0.24539  0.57621  1.0000
  C   C1204     1.0  0.32612  0.23475  0.58995  1.0000
  S   S327      1.0  0.53407  0.30651  0.57700  1.0000
  H   H2054     1.0  0.35561  0.45941  0.57545  1.0000
  C   C1205     1.0  0.49373  0.34216  0.60052  1.0000
  H   H2055     1.0  0.35824  0.45340  0.54099  1.0000
  C   C1206     1.0  0.34015  0.28580  0.59479  1.0000
  H   H2056     1.0  0.54677  0.31019  0.53533  1.0000
  S   S328      1.0  0.63418  0.26922  0.69849  1.0000
  H   H2057     1.0  0.39003  0.32295  0.58873  1.0000
  H   H2058     1.0  0.61902  0.30062  0.50255  1.0000
  H   H2059     1.0  0.61162  0.30707  0.53101  1.0000
  H   H2060     1.0  0.65178  0.29439  0.76879  1.0000
  C   C1207     1.0  0.59672  0.28491  0.51731  1.0000
  S   S329      1.0  0.62038  0.34792  0.51016  1.0000
  Fe  Fe158     1.0  0.38358  0.42992  0.63720  1.0000
  S   S330      1.0  0.40364  0.44083  0.61170  1.0000
  S   S331      1.0  0.36308  0.41380  0.63585  1.0000
  Fe  Fe159     1.0  0.39479  0.44873  0.66217  1.0000
  S   S332      1.0  0.41633  0.46064  0.63868  1.0000
  S   S333      1.0  0.38802  0.45481  0.69131  1.0000
  Fe  Fe160     1.0  0.39431  0.46783  0.62169  1.0000
  C   C1208     1.0  0.65354  0.32933  0.80042  1.0000
  Fe  Fe161     1.0  0.42410  0.43249  0.63071  1.0000
  S   S334      1.0  0.45382  0.42069  0.61665  1.0000
  S   S335      1.0  0.37229  0.45776  0.64564  1.0000
  S   S336      1.0  0.40447  0.41964  0.65582  1.0000
  Fe  Fe162     1.0  0.35267  0.33560  0.54430  1.0000
  S   S337      1.0  0.35534  0.33070  0.57398  1.0000
  S   S338      1.0  0.36473  0.30987  0.53198  1.0000
  H   H2061     1.0  0.63598  0.30420  0.57972  1.0000
  H   H2062     1.0  0.42471  0.31314  0.60370  1.0000
  Fe  Fe163     1.0  0.36149  0.35937  0.56615  1.0000
  Fe  Fe164     1.0  0.46340  0.25860  0.53490  1.0000
  S   S339      1.0  0.36160  0.36323  0.53570  1.0000
  S   S340      1.0  0.49424  0.24743  0.53259  1.0000
  Fe  Fe165     1.0  0.56086  0.29460  0.63620  1.0000
  S   S341      1.0  0.55934  0.32310  0.64057  1.0000
  S   S342      1.0  0.57475  0.26786  0.65361  1.0000
  Fe  Fe166     1.0  0.54320  0.31039  0.60164  1.0000
  S   S343      1.0  0.54103  0.34024  0.60305  1.0000
  H   H2063     1.0  0.61526  0.30264  0.56195  1.0000
  Fe  Fe167     1.0  0.56966  0.32987  0.60946  1.0000
  S   S344      1.0  0.59513  0.34223  0.59749  1.0000
  Fe  Fe168     1.0  0.53070  0.33068  0.63392  1.0000
  S   S345      1.0  0.50495  0.34515  0.65208  1.0000
  S   S346      1.0  0.57280  0.30093  0.60538  1.0000
  S   S347      1.0  0.53117  0.30128  0.63222  1.0000
  H   H2064     1.0  0.55574  0.29567  0.72110  1.0000
  S   S348      1.0  0.45243  0.28899  0.52341  1.0000
  H   H2065     1.0  0.32599  0.46294  0.70248  1.0000
  H   H2066     1.0  0.51658  0.29667  0.55277  1.0000
  H   H2067     1.0  0.55280  0.24939  0.71633  1.0000
  H   H2068     1.0  0.39624  0.33225  0.60503  1.0000
  C   C1209     1.0  0.52432  0.27275  0.59578  1.0000
  C   C1210     1.0  0.52680  0.28216  0.72456  1.0000
  H   H2069     1.0  0.53032  0.27357  0.60693  1.0000
  C   C1211     1.0  0.38920  0.30407  0.52841  1.0000
  C   C1212     1.0  0.39854  0.28521  0.53094  1.0000
  C   C1213     1.0  0.41801  0.28044  0.52924  1.0000
  C   C1214     1.0  0.42825  0.29454  0.52431  1.0000
  C   C1215     1.0  0.41896  0.31338  0.52107  1.0000
  C   C1216     1.0  0.39943  0.31813  0.52354  1.0000
  H   H2070     1.0  0.39071  0.27427  0.53458  1.0000
  H   H2071     1.0  0.42506  0.26587  0.53179  1.0000
  H   H2072     1.0  0.42682  0.32434  0.51713  1.0000
  H   H2073     1.0  0.39233  0.33270  0.52135  1.0000
  C   C1217     1.0  0.46791  0.39999  0.62715  1.0000
  C   C1218     1.0  0.46135  0.38940  0.64473  1.0000
  C   C1219     1.0  0.47295  0.37278  0.65238  1.0000
  C   C1220     1.0  0.49109  0.36655  0.64248  1.0000
  C   C1221     1.0  0.49767  0.37724  0.62499  1.0000
  C   C1222     1.0  0.48611  0.39384  0.61735  1.0000
  H   H2074     1.0  0.44738  0.39402  0.65244  1.0000
  H   H2075     1.0  0.46778  0.36466  0.66598  1.0000
  H   H2076     1.0  0.51173  0.37280  0.61741  1.0000
  H   H2077     1.0  0.49134  0.40202  0.60382  1.0000
  C   C1223     1.0  0.37025  0.39910  0.61963  1.0000
  C   C1224     1.0  0.38854  0.39612  0.60904  1.0000
  C   C1225     1.0  0.39345  0.38520  0.59536  1.0000
  C   C1226     1.0  0.38005  0.37739  0.59217  1.0000
  C   C1227     1.0  0.36198  0.37988  0.60316  1.0000
  C   C1228     1.0  0.35711  0.39070  0.61686  1.0000
  H   H2078     1.0  0.39881  0.40240  0.61126  1.0000
  H   H2079     1.0  0.40746  0.38329  0.58689  1.0000
  H   H2080     1.0  0.35170  0.37354  0.60112  1.0000
  H   H2081     1.0  0.34302  0.39278  0.62518  1.0000
  C   C1229     1.0  0.61308  0.34736  0.53424  1.0000
  C   C1230     1.0  0.59409  0.34941  0.54279  1.0000
  C   C1231     1.0  0.58845  0.34774  0.56228  1.0000
  C   C1232     1.0  0.60176  0.34473  0.57310  1.0000
  C   C1233     1.0  0.62066  0.34332  0.56442  1.0000
  C   C1234     1.0  0.62637  0.34417  0.54509  1.0000
  H   H2082     1.0  0.58378  0.35197  0.53441  1.0000
  H   H2083     1.0  0.57381  0.34900  0.56892  1.0000
  H   H2084     1.0  0.63095  0.34132  0.57266  1.0000
  H   H2085     1.0  0.64105  0.34264  0.53855  1.0000
  H   H2086     1.0  0.56482  0.26081  0.73792  1.0000
  H   H2087     1.0  0.54916  0.26405  0.48746  1.0000
  H   H2088     1.0  0.57003  0.28910  0.70027  1.0000
  H   H2089     1.0  0.39040  0.44585  0.48687  1.0000
  C   C1235     1.0  0.62408  0.31884  0.63336  1.0000
  C   C1236     1.0  0.52438  0.28698  0.57966  1.0000
  H   H2090     1.0  0.39381  0.46995  0.58160  1.0000
  H   H2091     1.0  0.34573  0.44652  0.51974  1.0000
  H   H2092     1.0  0.37384  0.42629  0.52790  1.0000
  H   H2093     1.0  0.58347  0.32244  0.52426  1.0000
  C   C1237     1.0  0.37634  0.47776  0.69415  1.0000
  S   S349      1.0  0.65258  0.30087  0.52593  1.0000
  H   H2094     1.0  0.46670  0.35315  0.57608  1.0000
  H   H2095     1.0  0.46727  0.31359  0.64907  1.0000
  C   C1238     1.0  0.65091  0.29857  0.57991  1.0000
  H   H2096     1.0  0.62765  0.25807  0.61939  1.0000
  H   H2097     1.0  0.50288  0.36892  0.58885  1.0000
  H   H2098     1.0  0.43399  0.37621  0.61705  1.0000
  H   H2099     1.0  0.51469  0.35086  0.57582  1.0000
  C   C1239     1.0  0.61743  0.26839  0.68656  1.0000
  N   N89       1.0  0.47334  0.34191  0.60376  1.0000
  H   H2100     1.0  0.62302  0.32975  0.80774  1.0000
  C   C1240     1.0  0.59147  0.26835  0.66584  1.0000
  C   C1241     1.0  0.59473  0.28528  0.66704  1.0000
  C   C1242     1.0  0.60759  0.28529  0.67742  1.0000
  H   H2101     1.0  0.62161  0.23831  0.69251  1.0000
  C   C1243     1.0  0.44274  0.46818  0.58315  1.0000
  H   H2102     1.0  0.58728  0.29840  0.66012  1.0000
  H   H2103     1.0  0.60999  0.29846  0.67833  1.0000
  H   H2104     1.0  0.38602  0.31217  0.61293  1.0000
  C   C1244     1.0  0.37105  0.48189  0.71211  1.0000
  C   C1245     1.0  0.33265  0.42774  0.57809  1.0000
  H   H2105     1.0  0.46388  0.33849  0.64385  1.0000
  H   H2106     1.0  0.39992  0.47319  0.54720  1.0000
  C   C1246     1.0  0.60617  0.29491  0.54069  1.0000
  H   H2107     1.0  0.51380  0.28234  0.72026  1.0000
  S   S350      1.0  0.33141  0.37337  0.57387  1.0000
  H   H2108     1.0  0.61795  0.28247  0.53954  1.0000
  H   H2109     1.0  0.32634  0.46275  0.52910  1.0000
  C   C1247     1.0  0.65464  0.28715  0.59925  1.0000
  H   H2110     1.0  0.40885  0.45291  0.49154  1.0000
  H   H2111     1.0  0.45453  0.33589  0.59013  1.0000
  H   H2112     1.0  0.36416  0.24427  0.59152  1.0000
  H   H2113     1.0  0.33389  0.29986  0.58742  1.0000
  H   H2114     1.0  0.60713  0.27142  0.51964  1.0000
  H   H2115     1.0  0.59068  0.30974  0.56364  1.0000
  C   C1248     1.0  0.36152  0.44506  0.58255  1.0000
  H   H2116     1.0  0.51696  0.24609  0.60977  1.0000
  C   C1249     1.0  0.33155  0.27038  0.59263  1.0000
  N   N90       1.0  0.58945  0.29226  0.53515  1.0000
  H   H2117     1.0  0.48703  0.32390  0.63856  1.0000
  C   C1250     1.0  0.44070  0.36188  0.61448  1.0000
  N   N91       1.0  0.54373  0.27985  0.70889  1.0000
  H   H2118     1.0  0.50272  0.32816  0.59901  1.0000
  C   C1251     1.0  0.50096  0.35721  0.58379  1.0000
  H   H2119     1.0  0.49690  0.34463  0.61308  1.0000
  C   C1252     1.0  0.35510  0.41349  0.55308  1.0000
  C   C1253     1.0  0.36521  0.43044  0.57042  1.0000
  H   H2120     1.0  0.37265  0.46665  0.50495  1.0000
  C   C1254     1.0  0.52759  0.26819  0.74344  1.0000
  H   H2121     1.0  0.34256  0.46045  0.73638  1.0000
  H   H2122     1.0  0.46658  0.36317  0.62029  1.0000
  C   C1255     1.0  0.61411  0.25142  0.68549  1.0000
  H   H2123     1.0  0.35776  0.45827  0.48520  1.0000
  N   N92       1.0  0.42498  0.30101  0.58078  1.0000
  C   C1256     1.0  0.44572  0.29385  0.58002  1.0000
  C   C1257     1.0  0.42294  0.31739  0.56444  1.0000
  C   C1258     1.0  0.41764  0.28546  0.57803  1.0000
  C   C1259     1.0  0.41574  0.30610  0.59954  1.0000
  C   C1260     1.0  0.45147  0.27798  0.59642  1.0000
  C   C1261     1.0  0.42912  0.33495  0.56523  1.0000
  C   C1262     1.0  0.39665  0.28934  0.57810  1.0000
  C   C1263     1.0  0.39603  0.31905  0.60132  1.0000
  H   H2124     1.0  0.45283  0.28893  0.56671  1.0000
  H   H2125     1.0  0.45241  0.30523  0.57991  1.0000
  H   H2126     1.0  0.40849  0.32214  0.56210  1.0000
  H   H2127     1.0  0.43132  0.31307  0.55124  1.0000
  H   H2128     1.0  0.42530  0.28134  0.56450  1.0000
  H   H2129     1.0  0.42012  0.27265  0.58907  1.0000
  Fe  Fe169     1.0  0.33099  0.37565  0.54368  1.0000
  H   H2130     1.0  0.60670  0.26933  0.61116  1.0000
  H   H2131     1.0  0.42321  0.33937  0.57879  1.0000
  H   H2132     1.0  0.44452  0.33299  0.56186  1.0000
  H   H2133     1.0  0.42401  0.34679  0.55425  1.0000
  H   H2134     1.0  0.38787  0.29101  0.59203  1.0000
  H   H2135     1.0  0.39370  0.27698  0.57501  1.0000
  H   H2136     1.0  0.39226  0.30139  0.56706  1.0000
  C   C1264     1.0  0.34501  0.44864  0.54843  1.0000
  H   H2137     1.0  0.55055  0.29138  0.67906  1.0000
  C   C1265     1.0  0.47203  0.32570  0.63866  1.0000
  H   H2138     1.0  0.56088  0.25971  0.55910  1.0000
  H   H2139     1.0  0.36971  0.41651  0.57927  1.0000
  H   H2140     1.0  0.53110  0.26302  0.68457  1.0000
  C   C1266     1.0  0.48232  0.32474  0.57630  1.0000
  H   H2141     1.0  0.55607  0.27821  0.53989  1.0000
  H   H2142     1.0  0.35706  0.40031  0.56388  1.0000
  C   C1267     1.0  0.32743  0.46980  0.71323  1.0000
  C   C1268     1.0  0.64995  0.26206  0.47891  1.0000
  C   C1269     1.0  0.57273  0.26770  0.72458  1.0000
  Fe  Fe170     1.0  0.32505  0.34479  0.57917  1.0000
  H   H2143     1.0  0.37498  0.44543  0.58551  1.0000
  H   H2144     1.0  0.50293  0.26936  0.55580  1.0000
  H   H2145     1.0  0.42786  0.47458  0.58826  1.0000
  H   H2146     1.0  0.43489  0.35998  0.60330  1.0000
  H   H2147     1.0  0.38298  0.24732  0.57251  1.0000
  H   H2148     1.0  0.55564  0.32729  0.51587  1.0000
  S   S351      1.0  0.32181  0.34814  0.54976  1.0000
  H   H2149     1.0  0.62859  0.27013  0.59506  1.0000
  H   H2150     1.0  0.60124  0.28539  0.57143  1.0000
  C   C1270     1.0  0.62131  0.27050  0.60979  1.0000
  C   C1271     1.0  0.60288  0.29833  0.56062  1.0000
  H   H2151     1.0  0.60959  0.31785  0.63401  1.0000
  H   H2152     1.0  0.49174  0.36334  0.57364  1.0000
  H   H2153     1.0  0.35153  0.44774  0.71824  1.0000
  C   C1272     1.0  0.55918  0.31280  0.52412  1.0000
  C   C1273     1.0  0.50889  0.27022  0.56694  1.0000
  C   C1274     1.0  0.56757  0.26829  0.54594  1.0000
  H   H2154     1.0  0.41466  0.29314  0.61061  1.0000
  H   H2155     1.0  0.64814  0.26390  0.63227  1.0000
  H   H2156     1.0  0.52012  0.25582  0.70907  1.0000
  H   H2157     1.0  0.34081  0.38778  0.49831  1.0000
  C   C1275     1.0  0.56029  0.28403  0.71338  1.0000
  C   C1276     1.0  0.63360  0.33594  0.79646  1.0000
  H   H2158     1.0  0.33700  0.47947  0.70570  1.0000
  H   H2159     1.0  0.54859  0.31842  0.69372  1.0000
  H   H2160     1.0  0.48438  0.31067  0.58563  1.0000
  N   N93       1.0  0.34921  0.43028  0.56212  1.0000
  H   H2161     1.0  0.58566  0.28125  0.51278  1.0000
  H   H2162     1.0  0.38573  0.40822  0.54448  1.0000
  Fe  Fe171     1.0  0.64704  0.24392  0.71848  1.0000
  H   H2163     1.0  0.37474  0.47113  0.72395  1.0000
  H   H2164     1.0  0.53277  0.32347  0.67850  1.0000
  H   H2165     1.0  0.45589  0.47652  0.53864  1.0000
  H   H2166     1.0  0.49607  0.32864  0.57002  1.0000
  H   H2167     1.0  0.62835  0.31125  0.64673  1.0000
  C   C1277     1.0  0.53599  0.31478  0.69205  1.0000
  Fe  Fe172     1.0  0.48611  0.23426  0.56301  1.0000
  C   C1278     1.0  0.63553  0.30238  0.83571  1.0000
  H   H2168     1.0  0.35555  0.28296  0.59003  1.0000
  H   H2169     1.0  0.47813  0.31211  0.61572  1.0000
  H   H2170     1.0  0.37433  0.40203  0.52992  1.0000
  H   H2171     1.0  0.33249  0.24567  0.56020  1.0000
  H   H2172     1.0  0.45455  0.32388  0.62123  1.0000
  H   H2173     1.0  0.57256  0.28445  0.56286  1.0000
  S   S352      1.0  0.65014  0.26443  0.50133  1.0000
  C   C1279     1.0  0.33831  0.45450  0.72668  1.0000
  C   C1280     1.0  0.46915  0.32545  0.61933  1.0000
  C   C1281     1.0  0.51663  0.28569  0.56526  1.0000
  C   C1282     1.0  0.53344  0.25481  0.69856  1.0000
  C   C1283     1.0  0.33531  0.44867  0.53279  1.0000
  C   C1284     1.0  0.46843  0.33968  0.58652  1.0000
  H   H2174     1.0  0.49266  0.25541  0.48819  1.0000
  H   H2175     1.0  0.35241  0.44104  0.59644  1.0000
  S   S353      1.0  0.49994  0.23595  0.58538  1.0000
  H   H2176     1.0  0.53829  0.23993  0.69719  1.0000
  H   H2177     1.0  0.58071  0.25710  0.71607  1.0000
  H   H2178     1.0  0.33422  0.29620  0.55961  1.0000
  H   H2179     1.0  0.63816  0.30051  0.79884  1.0000
  S   S354      1.0  0.45562  0.24724  0.56562  1.0000
  H   H2180     1.0  0.46698  0.27374  0.59367  1.0000
  C   C1285     1.0  0.50909  0.25582  0.58294  1.0000
  H   H2181     1.0  0.33627  0.25765  0.60288  1.0000
  H   H2182     1.0  0.44788  0.45931  0.59585  1.0000
  H   H2183     1.0  0.44700  0.28267  0.60992  1.0000
  N   N94       1.0  0.33565  0.26677  0.57313  1.0000
  H   H2184     1.0  0.51310  0.26726  0.75118  1.0000
  S   S355      1.0  0.38584  0.36554  0.57367  1.0000
  H   H2185     1.0  0.56131  0.25938  0.69305  1.0000
  C   C1286     1.0  0.58068  0.27802  0.55069  1.0000
  H   H2186     1.0  0.57000  0.31532  0.54637  1.0000
  H   H2187     1.0  0.59175  0.26639  0.55607  1.0000
  C   C1287     1.0  0.54869  0.26058  0.70448  1.0000
  H   H2188     1.0  0.52629  0.29232  0.68820  1.0000
  C   C1288     1.0  0.38280  0.47380  0.49370  1.0000
  C   C1289     1.0  0.32167  0.44042  0.47859  1.0000
  H   H2189     1.0  0.52401  0.29621  0.72795  1.0000
  C   C1290     1.0  0.32621  0.25152  0.57306  1.0000
  C   C1291     1.0  0.46205  0.36022  0.60877  1.0000
  H   H2190     1.0  0.43463  0.44394  0.58012  1.0000
  C   C1292     1.0  0.60115  0.25143  0.67517  1.0000
  C   C1293     1.0  0.63785  0.31198  0.61632  1.0000
  H   H2191     1.0  0.61044  0.29143  0.48798  1.0000
  H   H2192     1.0  0.59861  0.23825  0.67444  1.0000
  H   H2193     1.0  0.46464  0.37220  0.59687  1.0000
  H   H2194     1.0  0.58333  0.27322  0.72802  1.0000
  H   H2195     1.0  0.61095  0.28945  0.62851  1.0000
  C   C1294     1.0  0.51676  0.25719  0.59736  1.0000
  H   H2196     1.0  0.62378  0.33391  0.63192  1.0000
  H   H2197     1.0  0.63309  0.33297  0.78304  1.0000
  C   C1295     1.0  0.44225  0.45486  0.57112  1.0000
  H   H2198     1.0  0.43662  0.35195  0.62775  1.0000
  H   H2199     1.0  0.39052  0.47921  0.50105  1.0000
  H   H2200     1.0  0.44634  0.26516  0.59795  1.0000
  H   H2201     1.0  0.56172  0.30361  0.51418  1.0000
  H   H2202     1.0  0.33643  0.41476  0.58867  1.0000
  H   H2203     1.0  0.47692  0.32358  0.56448  1.0000
  C   C1296     1.0  0.53918  0.29387  0.69148  1.0000
  H   H2204     1.0  0.52625  0.24379  0.48318  1.0000
  H   H2205     1.0  0.37771  0.43300  0.55926  1.0000
  H   H2206     1.0  0.34254  0.28074  0.53240  1.0000
  H   H2207     1.0  0.63355  0.27997  0.64577  1.0000
  H   H2208     1.0  0.63300  0.32136  0.60372  1.0000
  H   H2209     1.0  0.62931  0.35140  0.79504  1.0000
  C   C1297     1.0  0.32405  0.41382  0.50517  1.0000
  C   C1298     1.0  0.57606  0.31104  0.53267  1.0000
  H   H2210     1.0  0.47934  0.46311  0.57928  1.0000
  H   H2211     1.0  0.35882  0.25870  0.55100  1.0000
  H   H2212     1.0  0.65386  0.33617  0.81165  1.0000
  H   H2213     1.0  0.36277  0.27451  0.56182  1.0000
  H   H2214     1.0  0.33698  0.28641  0.60984  1.0000
  H   H2215     1.0  0.57543  0.25845  0.53656  1.0000
  C   C1299     1.0  0.35633  0.26210  0.56499  1.0000
  C   C1300     1.0  0.37331  0.41274  0.53796  1.0000
  C   C1301     1.0  0.62103  0.28901  0.61488  1.0000
  C   C1302     1.0  0.32799  0.28354  0.54057  1.0000
  H   H2216     1.0  0.63236  0.24181  0.48943  1.0000
  H   H2217     1.0  0.59643  0.31174  0.49657  1.0000
  H   H2218     1.0  0.34420  0.41218  0.54657  1.0000
  C   C1303     1.0  0.60609  0.29816  0.50029  1.0000
  N   N95       1.0  0.63969  0.29176  0.61595  1.0000
  H   H2219     1.0  0.63822  0.38409  0.49383  1.0000
  S   S356      1.0  0.45844  0.23417  0.52702  1.0000
  H   H2220     1.0  0.63452  0.29480  0.85057  1.0000
  Fe  Fe173     1.0  0.64832  0.32835  0.50577  1.0000
  C   C1304     1.0  0.39679  0.45813  0.48449  1.0000
  H   H2221     1.0  0.52380  0.31910  0.70301  1.0000
  H   H2222     1.0  0.61421  0.30075  0.60487  1.0000
  H   H2223     1.0  0.53442  0.27291  0.75214  1.0000
  H   H2224     1.0  0.47588  0.46567  0.55664  1.0000
  H   H2225     1.0  0.33630  0.45981  0.55602  1.0000
  H   H2226     1.0  0.32841  0.43948  0.58560  1.0000
  C   C1305     1.0  0.47417  0.47376  0.56741  1.0000
  H   H2227     1.0  0.33084  0.44310  0.73440  1.0000
  H   H2228     1.0  0.32614  0.43853  0.53647  1.0000
  C   C1306     1.0  0.65120  0.38444  0.48279  1.0000
  H   H2229     1.0  0.53452  0.25366  0.74212  1.0000
  H   H2230     1.0  0.45630  0.44716  0.56535  1.0000
  C   C1307     1.0  0.32724  0.28461  0.56086  1.0000
  H   H2231     1.0  0.62835  0.29546  0.82935  1.0000
  H   H2232     1.0  0.64202  0.24187  0.82461  1.0000
  S   S357      1.0  0.64575  0.24209  0.78638  1.0000
  C   C1308     1.0  0.64524  0.27880  0.63342  1.0000
  H   H2233     1.0  0.62811  0.31706  0.83606  1.0000
  C   C1309     1.0  0.33550  0.40245  0.49291  1.0000
  H   H2234     1.0  0.52026  0.26816  0.48284  1.0000
  H   H2235     1.0  0.43440  0.46232  0.55993  1.0000
  C   C1310     1.0  0.65365  0.29745  0.79600  1.0000
  H   H2236     1.0  0.50136  0.47948  0.55189  1.0000
  H   H2237     1.0  0.65166  0.31502  0.61542  1.0000
  N   N96       1.0  0.45405  0.48306  0.57378  1.0000
  C   C1311     1.0  0.39408  0.48354  0.57253  1.0000
  C   C1312     1.0  0.65177  0.54855  0.35960  1.0000
  S   S358      1.0  0.61265  0.67769  0.13489  1.0000
  H   H2238     1.0  0.36104  0.52570  0.30760  1.0000
  C   C1313     1.0  0.48656  0.54607  0.38404  1.0000
  Fe  Fe174     1.0  0.61394  0.66378  0.11159  1.0000
  S   S359      1.0  0.58546  0.66706  0.10547  1.0000
  H   H2239     1.0  0.35912  0.59893  0.09664  1.0000
  H   H2240     1.0  0.47414  0.69622  0.01406  1.0000
  H   H2241     1.0  0.48742  0.52801  0.35900  1.0000
  C   C1314     1.0  0.35927  0.55434  0.45595  1.0000
  H   H2242     1.0  0.40791  0.51201  0.45112  1.0000
  N   N97       1.0  0.38235  0.50023  0.30559  1.0000
  C   C1315     1.0  0.34284  0.56477  0.12531  1.0000
  C   C1316     1.0  0.62678  0.53900  0.34221  1.0000
  S   S360      1.0  0.63449  0.64778  0.31516  1.0000
  H   H2243     1.0  0.35452  0.67506  0.08922  1.0000
  S   S361      1.0  0.33986  0.63178  0.17958  1.0000
  H   H2244     1.0  0.48854  0.71080  0.01621  1.0000
  H   H2245     1.0  0.53478  0.65702  0.02812  1.0000
  C   C1317     1.0  0.34345  0.54656  0.46003  1.0000
  S   S362      1.0  0.64058  0.71744  0.11299  1.0000
  H   H2246     1.0  0.38951  0.61567  0.12920  1.0000
  N   N98       1.0  0.64740  0.56179  0.34179  1.0000
  N   N99       1.0  0.46924  0.54460  0.37870  1.0000
  S   S363      1.0  0.41543  0.58001  0.46625  1.0000
  S   S364      1.0  0.56534  0.69368  0.02486  1.0000
  S   S365      1.0  0.32550  0.54788  0.08660  1.0000
  S   S366      1.0  0.39420  0.55912  0.43608  1.0000
  C   C1318     1.0  0.32773  0.51453  0.14460  1.0000
  C   C1319     1.0  0.43355  0.54816  0.39352  1.0000
  H   H2247     1.0  0.64962  0.54628  0.32050  1.0000
  H   H2248     1.0  0.46606  0.51204  0.35453  1.0000
  H   H2249     1.0  0.33873  0.50151  0.14630  1.0000
  H   H2250     1.0  0.56095  0.70280  0.10867  1.0000
  S   S367      1.0  0.36139  0.50880  0.36924  1.0000
  H   H2251     1.0  0.36844  0.51130  0.28211  1.0000
  Fe  Fe175     1.0  0.57075  0.55280  0.37572  1.0000
  S   S368      1.0  0.57815  0.54984  0.34595  1.0000
  S   S369      1.0  0.59374  0.53999  0.39164  1.0000
  Fe  Fe176     1.0  0.53229  0.57590  0.37249  1.0000
  S   S370      1.0  0.53694  0.57551  0.34193  1.0000
  S   S371      1.0  0.50341  0.58975  0.38609  1.0000
  Fe  Fe177     1.0  0.54931  0.54507  0.35087  1.0000
  S   S372      1.0  0.54578  0.52113  0.34065  1.0000
  Fe  Fe178     1.0  0.56548  0.58048  0.33954  1.0000
  S   S373      1.0  0.58174  0.59632  0.31334  1.0000
  S   S374      1.0  0.54294  0.54498  0.38153  1.0000
  S   S375      1.0  0.55976  0.58393  0.36924  1.0000
  S   S376      1.0  0.48302  0.49791  0.27411  1.0000
  H   H2252     1.0  0.48348  0.55800  0.39106  1.0000
  S   S377      1.0  0.44404  0.50062  0.30562  1.0000
  C   C1320     1.0  0.40204  0.49924  0.45768  1.0000
  H   H2253     1.0  0.33675  0.49968  0.17818  1.0000
  C   C1321     1.0  0.61384  0.49088  0.34224  1.0000
  Fe  Fe179     1.0  0.47210  0.50725  0.30145  1.0000
  S   S378      1.0  0.47519  0.53448  0.30570  1.0000
  H   H2254     1.0  0.36467  0.54146  0.08237  1.0000
  C   C1322     1.0  0.34839  0.50363  0.32548  1.0000
  Fe  Fe180     1.0  0.43673  0.55568  0.47718  1.0000
  H   H2255     1.0  0.36362  0.60446  0.12533  1.0000
  C   C1323     1.0  0.53736  0.72332  0.10000  1.0000
  H   H2256     1.0  0.64186  0.58647  0.35345  1.0000
  C   C1324     1.0  0.46418  0.56206  0.36426  1.0000
  Fe  Fe181     1.0  0.38088  0.71492  0.17954  1.0000
  S   S379      1.0  0.39251  0.68417  0.17947  1.0000
  H   H2257     1.0  0.51018  0.68072  0.02950  1.0000
  C   C1325     1.0  0.41656  0.49112  0.35058  1.0000
  H   H2258     1.0  0.40814  0.53530  0.28350  1.0000
  C   C1326     1.0  0.63656  0.67752  0.20997  1.0000
  Fe  Fe182     1.0  0.35279  0.60095  0.18170  1.0000
  H   H2259     1.0  0.52965  0.69768  0.00763  1.0000
  H   H2260     1.0  0.43747  0.60983  0.21038  1.0000
  H   H2261     1.0  0.37644  0.62957  0.20982  1.0000
  S   S380      1.0  0.63615  0.69216  0.22475  1.0000
  C   C1327     1.0  0.39886  0.50247  0.35520  1.0000
  H   H2262     1.0  0.43079  0.60391  0.18216  1.0000
  S   S381      1.0  0.65157  0.68752  0.27211  1.0000
  C   C1328     1.0  0.37756  0.67070  0.17788  1.0000
  C   C1329     1.0  0.35816  0.67614  0.18322  1.0000
  C   C1330     1.0  0.34671  0.66418  0.18344  1.0000
  C   C1331     1.0  0.35457  0.64676  0.17841  1.0000
  C   C1332     1.0  0.37395  0.64154  0.17268  1.0000
  C   C1333     1.0  0.38538  0.65355  0.17227  1.0000
  H   H2263     1.0  0.35201  0.68935  0.18756  1.0000
  C   C1334     1.0  0.55541  0.71813  0.10768  1.0000
  H   H2264     1.0  0.38022  0.62823  0.16870  1.0000
  H   H2265     1.0  0.40036  0.64949  0.16778  1.0000
  C   C1335     1.0  0.62777  0.67278  0.18316  1.0000
  H   H2266     1.0  0.33180  0.60821  0.12305  1.0000
  H   H2267     1.0  0.52017  0.65117  0.00440  1.0000
  C   C1336     1.0  0.60120  0.51598  0.39178  1.0000
  C   C1337     1.0  0.58846  0.50524  0.39264  1.0000
  H   H2268     1.0  0.42175  0.62509  0.45553  1.0000
  C   C1338     1.0  0.62011  0.50750  0.39089  1.0000
  H   H2269     1.0  0.57382  0.51171  0.39346  1.0000
  C   C1339     1.0  0.45980  0.52442  0.36111  1.0000
  H   H2270     1.0  0.62996  0.51572  0.39039  1.0000
  C   C1340     1.0  0.52682  0.52577  0.32971  1.0000
  C   C1341     1.0  0.52455  0.51188  0.32194  1.0000
  C   C1342     1.0  0.50915  0.51486  0.31381  1.0000
  C   C1343     1.0  0.49571  0.53158  0.31372  1.0000
  C   C1344     1.0  0.49835  0.54579  0.32080  1.0000
  C   C1345     1.0  0.51382  0.54286  0.32891  1.0000
  H   H2271     1.0  0.33556  0.54201  0.17174  1.0000
  H   H2272     1.0  0.50784  0.50427  0.30740  1.0000
  H   H2273     1.0  0.48827  0.55896  0.32021  1.0000
  H   H2274     1.0  0.51551  0.55370  0.33473  1.0000
  H   H2275     1.0  0.60085  0.67869  0.03630  1.0000
  C   C1346     1.0  0.40479  0.63860  0.21732  1.0000
  C   C1347     1.0  0.36236  0.55956  0.11982  1.0000
  H   H2276     1.0  0.61304  0.50389  0.34684  1.0000
  C   C1348     1.0  0.48483  0.69690  0.02128  1.0000
  H   H2277     1.0  0.39683  0.51753  0.35042  1.0000
  H   H2278     1.0  0.47568  0.56273  0.35159  1.0000
  C   C1349     1.0  0.47756  0.56272  0.44577  1.0000
  C   C1350     1.0  0.49703  0.55892  0.43937  1.0000
  C   C1351     1.0  0.50512  0.56685  0.42097  1.0000
  C   C1352     1.0  0.49379  0.57909  0.40906  1.0000
  C   C1353     1.0  0.47432  0.58288  0.41546  1.0000
  C   C1354     1.0  0.46621  0.57440  0.43360  1.0000
  H   H2279     1.0  0.50591  0.54990  0.44870  1.0000
  H   H2280     1.0  0.52015  0.56387  0.41616  1.0000
  H   H2281     1.0  0.46549  0.59232  0.40630  1.0000
  H   H2282     1.0  0.45120  0.57731  0.43830  1.0000
  C   C1355     1.0  0.37320  0.55172  0.43998  1.0000
  C   C1356     1.0  0.39607  0.73260  0.98679  1.0000
  H   H2283     1.0  0.60209  0.49771  0.30594  1.0000
  C   C1357     1.0  0.34152  0.53613  0.44815  1.0000
  C   C1358     1.0  0.35506  0.53416  0.43176  1.0000
  C   C1359     1.0  0.37086  0.54201  0.42765  1.0000
  H   H2284     1.0  0.41037  0.49910  0.23807  1.0000
  S   S382      1.0  0.34017  0.58262  0.17175  1.0000
  H   H2285     1.0  0.38153  0.54006  0.41521  1.0000
  S   S383      1.0  0.43770  0.48888  0.26080  1.0000
  H   H2286     1.0  0.63915  0.54380  0.36886  1.0000
  Fe  Fe183     1.0  0.63791  0.68768  0.11644  1.0000
  H   H2287     1.0  0.53963  0.71904  0.08651  1.0000
  H   H2288     1.0  0.33366  0.72255  0.17194  1.0000
  H   H2289     1.0  0.49770  0.54910  0.37135  1.0000
  C   C1360     1.0  0.43464  0.52679  0.24644  1.0000
  H   H2290     1.0  0.36795  0.62418  0.14383  1.0000
  C   C1361     1.0  0.41455  0.54469  0.22456  1.0000
  H   H2291     1.0  0.59252  0.70588  0.10511  1.0000
  C   C1362     1.0  0.64441  0.65838  0.21424  1.0000
  H   H2292     1.0  0.34783  0.61822  0.08045  1.0000
  C   C1363     1.0  0.52797  0.66272  0.00014  1.0000
  H   H2293     1.0  0.45709  0.64461  0.46136  1.0000
  C   C1364     1.0  0.46013  0.58076  0.37065  1.0000
  C   C1365     1.0  0.41514  0.51159  0.23733  1.0000
  C   C1366     1.0  0.59727  0.60881  0.31559  1.0000
  C   C1367     1.0  0.59300  0.61871  0.32991  1.0000
  C   C1368     1.0  0.60475  0.63029  0.33000  1.0000
  C   C1369     1.0  0.62083  0.63192  0.31585  1.0000
  C   C1370     1.0  0.62556  0.62114  0.30220  1.0000
  C   C1371     1.0  0.61372  0.60985  0.30192  1.0000
  H   H2294     1.0  0.58030  0.61800  0.34052  1.0000
  H   H2295     1.0  0.60107  0.63841  0.34075  1.0000
  H   H2296     1.0  0.63842  0.62136  0.29193  1.0000
  H   H2297     1.0  0.61728  0.60196  0.29099  1.0000
  H   H2298     1.0  0.42947  0.59318  0.26349  1.0000
  H   H2299     1.0  0.39999  0.64218  0.20399  1.0000
  H   H2300     1.0  0.57983  0.71036  0.07747  1.0000
  C   C1372     1.0  0.58055  0.67400  0.08278  1.0000
  C   C1373     1.0  0.56185  0.68078  0.08106  1.0000
  C   C1374     1.0  0.55724  0.68742  0.06333  1.0000
  C   C1375     1.0  0.57124  0.68652  0.04713  1.0000
  C   C1376     1.0  0.58996  0.67944  0.04879  1.0000
  C   C1377     1.0  0.59465  0.67353  0.06658  1.0000
  H   H2301     1.0  0.55085  0.68108  0.09351  1.0000
  H   H2302     1.0  0.54278  0.69275  0.06222  1.0000
  H   H2303     1.0  0.43163  0.54811  0.37959  1.0000
  H   H2304     1.0  0.49682  0.66750  0.02419  1.0000
  C   C1378     1.0  0.58323  0.72177  0.12694  1.0000
  C   C1379     1.0  0.61549  0.57827  0.35917  1.0000
  H   H2305     1.0  0.59676  0.71971  0.13108  1.0000
  S   S384      1.0  0.37800  0.56360  0.13125  1.0000
  H   H2306     1.0  0.41050  0.73121  0.02622  1.0000
  H   H2307     1.0  0.37522  0.51707  0.46421  1.0000
  N   N100      1.0  0.40878  0.61774  0.22503  1.0000
  H   H2308     1.0  0.42667  0.56208  0.39703  1.0000
  H   H2309     1.0  0.48457  0.61307  0.46237  1.0000
  S   S385      1.0  0.39811  0.73075  0.18701  1.0000
  N   N101      1.0  0.34657  0.63103  0.11443  1.0000
  H   H2310     1.0  0.42821  0.49751  0.34291  1.0000
  S   S386      1.0  0.42477  0.53429  0.47148  1.0000
  Fe  Fe184     1.0  0.65269  0.67663  0.24687  1.0000
  S   S387      1.0  0.35374  0.72790  0.19662  1.0000
  C   C1380     1.0  0.34253  0.52714  0.17183  1.0000
  H   H2311     1.0  0.48512  0.52428  0.41024  1.0000
  H   H2312     1.0  0.47768  0.51453  0.38063  1.0000
  H   H2313     1.0  0.48352  0.60196  0.44474  1.0000
  H   H2314     1.0  0.63535  0.52552  0.34821  1.0000
  H   H2315     1.0  0.47327  0.58443  0.37089  1.0000
  Fe  Fe185     1.0  0.45606  0.48829  0.28015  1.0000
  S   S388      1.0  0.38218  0.58967  0.16811  1.0000
  H   H2316     1.0  0.34615  0.69376  0.02505  1.0000
  S   S389      1.0  0.35437  0.58146  0.20954  1.0000
  Fe  Fe186     1.0  0.34512  0.56178  0.19810  1.0000
  Fe  Fe187     1.0  0.38321  0.56891  0.19541  1.0000
  C   C1381     1.0  0.59376  0.48859  0.34423  1.0000
  C   C1382     1.0  0.54187  0.65825  0.01316  1.0000
  H   H2317     1.0  0.45622  0.52785  0.40437  1.0000
  H   H2318     1.0  0.49392  0.49448  0.21891  1.0000
  H   H2319     1.0  0.46217  0.50760  0.21425  1.0000
  C   C1383     1.0  0.36526  0.61889  0.11762  1.0000
  H   H2320     1.0  0.52692  0.71565  0.11003  1.0000
  H   H2321     1.0  0.57634  0.71028  0.13597  1.0000
  H   H2322     1.0  0.55283  0.70089  0.98239  1.0000
  N   N102      1.0  0.58964  0.65009  0.25529  1.0000
  C   C1384     1.0  0.59802  0.64302  0.23739  1.0000
  C   C1385     1.0  0.57545  0.66802  0.25126  1.0000
  C   C1386     1.0  0.58006  0.63603  0.27021  1.0000
  C   C1387     1.0  0.60510  0.65332  0.26231  1.0000
  C   C1388     1.0  0.61155  0.62369  0.23920  1.0000
  C   C1389     1.0  0.58328  0.68475  0.23779  1.0000
  C   C1390     1.0  0.56533  0.62911  0.26465  1.0000
  C   C1391     1.0  0.59891  0.66302  0.27919  1.0000
  H   H2323     1.0  0.58695  0.64248  0.23052  1.0000
  H   H2324     1.0  0.60612  0.65291  0.22696  1.0000
  H   H2325     1.0  0.56740  0.67260  0.26446  1.0000
  H   H2326     1.0  0.56484  0.66579  0.24483  1.0000
  H   H2327     1.0  0.59041  0.62346  0.27524  1.0000
  H   H2328     1.0  0.57272  0.64188  0.28288  1.0000
  H   H2329     1.0  0.61455  0.63976  0.26678  1.0000
  H   H2330     1.0  0.61409  0.66167  0.25089  1.0000
  H   H2331     1.0  0.60483  0.61237  0.24876  1.0000
  H   H2332     1.0  0.61634  0.61997  0.22518  1.0000
  H   H2333     1.0  0.62424  0.62394  0.24368  1.0000
  H   H2334     1.0  0.57160  0.69716  0.23635  1.0000
  H   H2335     1.0  0.59364  0.68882  0.24302  1.0000
  H   H2336     1.0  0.58955  0.68202  0.22352  1.0000
  H   H2337     1.0  0.55337  0.64062  0.26139  1.0000
  H   H2338     1.0  0.55961  0.61872  0.27678  1.0000
  H   H2339     1.0  0.57136  0.62180  0.25282  1.0000
  H   H2340     1.0  0.59067  0.67748  0.27582  1.0000
  H   H2341     1.0  0.61154  0.66418  0.28322  1.0000
  H   H2342     1.0  0.59094  0.65484  0.29167  1.0000
  H   H2343     1.0  0.45585  0.53621  0.34963  1.0000
  H   H2344     1.0  0.55078  0.72006  0.12239  1.0000
  H   H2345     1.0  0.35107  0.71483  0.02687  1.0000
  H   H2346     1.0  0.41788  0.64405  0.21351  1.0000
  H   H2347     1.0  0.40679  0.61433  0.18882  1.0000
  H   H2348     1.0  0.43285  0.55613  0.23382  1.0000
  C   C1392     1.0  0.47814  0.60272  0.45974  1.0000
  H   H2349     1.0  0.39987  0.49435  0.44602  1.0000
  S   S390      1.0  0.51294  0.72372  0.03339  1.0000
  H   H2350     1.0  0.41362  0.58534  0.25512  1.0000
  S   S391      1.0  0.37410  0.54759  0.18603  1.0000
  S   S392      1.0  0.63183  0.63662  0.12381  1.0000
  N   N103      1.0  0.51448  0.68143  0.99974  1.0000
  H   H2351     1.0  0.33290  0.54829  0.47259  1.0000
  H   H2352     1.0  0.35237  0.52599  0.15823  1.0000
  H   H2353     1.0  0.44734  0.52099  0.37175  1.0000
  H   H2354     1.0  0.33679  0.57144  0.13714  1.0000
  S   S393      1.0  0.40681  0.56605  0.20971  1.0000
  H   H2355     1.0  0.47811  0.69581  0.03636  1.0000
  C   C1393     1.0  0.37798  0.49834  0.28790  1.0000
  H   H2356     1.0  0.59898  0.72764  0.09883  1.0000
  C   C1394     1.0  0.64314  0.64635  0.20364  1.0000
  H   H2357     1.0  0.35746  0.64144  0.08513  1.0000
  C   C1395     1.0  0.39144  0.60959  0.23125  1.0000
  C   C1396     1.0  0.39010  0.65051  0.23033  1.0000
  C   C1397     1.0  0.37791  0.61496  0.21775  1.0000
  H   H2358     1.0  0.40666  0.62044  0.25345  1.0000
  H   H2359     1.0  0.38304  0.61278  0.24495  1.0000
  H   H2360     1.0  0.39532  0.65080  0.24259  1.0000
  H   H2361     1.0  0.38710  0.66525  0.22242  1.0000
  H   H2362     1.0  0.37667  0.64579  0.23503  1.0000
  H   H2363     1.0  0.38184  0.60524  0.20799  1.0000
  H   H2364     1.0  0.36358  0.61407  0.22600  1.0000
  H   H2365     1.0  0.62143  0.67843  0.17108  1.0000
  H   H2366     1.0  0.42451  0.62798  0.18376  1.0000
  H   H2367     1.0  0.65133  0.65272  0.22581  1.0000
  H   H2368     1.0  0.40253  0.71053  0.01023  1.0000
  C   C1398     1.0  0.42091  0.61408  0.19033  1.0000
  H   H2369     1.0  0.42891  0.62181  0.23853  1.0000
  H   H2370     1.0  0.61582  0.54415  0.35362  1.0000
  C   C1399     1.0  0.37560  0.62523  0.12907  1.0000
  H   H2371     1.0  0.35355  0.52634  0.42239  1.0000
  C   C1400     1.0  0.52419  0.69755  0.99538  1.0000
  Fe  Fe188     1.0  0.65298  0.65725  0.28720  1.0000
  H   H2372     1.0  0.37024  0.51523  0.32813  1.0000
  C   C1401     1.0  0.39472  0.53045  0.28841  1.0000
  Fe  Fe189     1.0  0.34159  0.49900  0.39571  1.0000
  C   C1402     1.0  0.63482  0.57978  0.34657  1.0000
  H   H2373     1.0  0.43677  0.58705  0.24113  1.0000
  S   S394      1.0  0.65184  0.64716  0.26239  1.0000
  C   C1403     1.0  0.33115  0.56168  0.11510  1.0000
  H   H2374     1.0  0.41080  0.50256  0.29179  1.0000
  H   H2375     1.0  0.33421  0.62558  0.14400  1.0000
  C   C1404     1.0  0.33900  0.55305  0.09966  1.0000
  H   H2376     1.0  0.32237  0.62754  0.10649  1.0000
  H   H2377     1.0  0.42542  0.53822  0.40383  1.0000
  H   H2378     1.0  0.35489  0.66556  0.11293  1.0000
  H   H2379     1.0  0.61628  0.56829  0.37271  1.0000
  C   C1405     1.0  0.39830  0.51030  0.30024  1.0000
  C   C1406     1.0  0.62836  0.68476  0.19429  1.0000
  H   H2380     1.0  0.44496  0.52614  0.25422  1.0000
  C   C1407     1.0  0.40808  0.52861  0.22597  1.0000
  C   C1408     1.0  0.35889  0.66178  0.09906  1.0000
  C   C1409     1.0  0.40144  0.72531  0.00405  1.0000
  C   C1410     1.0  0.45661  0.60858  0.46341  1.0000
  H   H2381     1.0  0.48304  0.58856  0.46791  1.0000
  C   C1411     1.0  0.37001  0.55134  0.10421  1.0000
  H   H2382     1.0  0.45341  0.59224  0.36040  1.0000
  H   H2383     1.0  0.35261  0.71379  0.99403  1.0000
  H   H2384     1.0  0.45133  0.59781  0.45990  1.0000
  H   H2385     1.0  0.50259  0.51703  0.39034  1.0000
  Fe  Fe190     1.0  0.32363  0.50799  0.43380  1.0000
  C   C1412     1.0  0.34071  0.70914  0.02331  1.0000
  H   H2386     1.0  0.50626  0.53269  0.40229  1.0000
  H   H2387     1.0  0.47416  0.49111  0.19988  1.0000
  H   H2388     1.0  0.37431  0.65729  0.09500  1.0000
  C   C1413     1.0  0.41710  0.61446  0.24198  1.0000
  C   C1414     1.0  0.38379  0.49441  0.36592  1.0000
  H   H2389     1.0  0.39792  0.52921  0.21804  1.0000
  H   H2390     1.0  0.45337  0.62133  0.45258  1.0000
  H   H2391     1.0  0.36221  0.72449  0.10933  1.0000
  C   C1415     1.0  0.42776  0.54375  0.23490  1.0000
  C   C1416     1.0  0.42329  0.60791  0.21081  1.0000
  C   C1417     1.0  0.34907  0.64693  0.09773  1.0000
  Fe  Fe191     1.0  0.40209  0.55835  0.46292  1.0000
  H   H2392     1.0  0.39529  0.59400  0.23424  1.0000
  C   C1418     1.0  0.47442  0.52760  0.37005  1.0000
  C   C1419     1.0  0.32840  0.51432  0.17686  1.0000
  C   C1420     1.0  0.42848  0.51063  0.24750  1.0000
  H   H2393     1.0  0.60833  0.59218  0.36258  1.0000
  C   C1421     1.0  0.63486  0.65349  0.18807  1.0000
  H   H2394     1.0  0.33577  0.52573  0.13757  1.0000
  C   C1422     1.0  0.35845  0.54800  0.09432  1.0000
  S   S395      1.0  0.46790  0.55381  0.46936  1.0000
  H   H2395     1.0  0.35998  0.49602  0.45690  1.0000
  C   C1423     1.0  0.34569  0.60846  0.09425  1.0000
  H   H2396     1.0  0.45474  0.55128  0.40564  1.0000
  C   C1424     1.0  0.63873  0.55349  0.33088  1.0000
  C   C1425     1.0  0.49540  0.52885  0.39750  1.0000
  C   C1426     1.0  0.50203  0.68425  0.98619  1.0000
  H   H2397     1.0  0.41272  0.48895  0.46481  1.0000
  H   H2398     1.0  0.36071  0.56231  0.46519  1.0000
  H   H2399     1.0  0.62247  0.69960  0.19073  1.0000
  C   C1427     1.0  0.36594  0.51195  0.31655  1.0000
  H   H2400     1.0  0.33666  0.59946  0.09339  1.0000
  H   H2401     1.0  0.42415  0.59251  0.21488  1.0000
  Fe  Fe192     1.0  0.63274  0.65185  0.14515  1.0000
  Fe  Fe193     1.0  0.36968  0.56977  0.16022  1.0000
  H   H2402     1.0  0.53471  0.49879  0.32215  1.0000
  C   C1428     1.0  0.50215  0.68074  0.01914  1.0000
  H   H2403     1.0  0.55144  0.64451  0.01184  1.0000
  C   C1429     1.0  0.42457  0.59375  0.25071  1.0000
  H   H2404     1.0  0.60642  0.57485  0.35178  1.0000
  H   H2405     1.0  0.60911  0.66831  0.06775  1.0000
  H   H2406     1.0  0.42496  0.64447  0.46338  1.0000
  H   H2407     1.0  0.35105  0.52272  0.18273  1.0000
  H   H2408     1.0  0.39085  0.49700  0.27661  1.0000
  C   C1430     1.0  0.45401  0.54254  0.39617  1.0000
  C   C1431     1.0  0.46817  0.49244  0.21462  1.0000
  H   H2409     1.0  0.45187  0.56210  0.35905  1.0000
  C   C1432     1.0  0.33573  0.61899  0.11032  1.0000
  Fe  Fe194     1.0  0.54381  0.72069  0.02210  1.0000
  H   H2410     1.0  0.49225  0.67441  0.99171  1.0000
  H   H2411     1.0  0.38962  0.53119  0.27573  1.0000
  H   H2412     1.0  0.45061  0.58061  0.38456  1.0000
  H   H2413     1.0  0.38503  0.54742  0.09975  1.0000
  H   H2414     1.0  0.55075  0.66877  0.00926  1.0000
  H   H2415     1.0  0.62972  0.56478  0.32236  1.0000
  N   N104      1.0  0.57040  0.72899  0.09688  1.0000
  H   H2416     1.0  0.47694  0.49051  0.23998  1.0000
  H   H2417     1.0  0.38494  0.54040  0.29682  1.0000
  C   C1433     1.0  0.38381  0.50461  0.47176  1.0000
  C   C1434     1.0  0.58700  0.72088  0.10609  1.0000
  H   H2418     1.0  0.33966  0.73062  0.24088  1.0000
  H   H2419     1.0  0.32545  0.61951  0.22072  1.0000
  H   H2420     1.0  0.61968  0.53587  0.33267  1.0000
  S   S396      1.0  0.63807  0.67562  0.09229  1.0000
  H   H2421     1.0  0.37807  0.63956  0.12338  1.0000
  H   H2422     1.0  0.34266  0.64645  0.13631  1.0000
  H   H2423     1.0  0.58510  0.48681  0.30241  1.0000
  H   H2424     1.0  0.40261  0.51097  0.31300  1.0000
  H   H2425     1.0  0.33741  0.73262  0.11637  1.0000
  H   H2426     1.0  0.64855  0.63148  0.20757  1.0000
  H   H2427     1.0  0.33560  0.65433  0.09359  1.0000
  H   H2428     1.0  0.63188  0.59020  0.33373  1.0000
  H   H2429     1.0  0.37507  0.61719  0.10405  1.0000
  H   H2430     1.0  0.32720  0.51174  0.11691  1.0000
  H   H2431     1.0  0.33178  0.66832  0.18787  1.0000
  C   C1435     1.0  0.33549  0.63778  0.13201  1.0000
  H   H2432     1.0  0.58652  0.50120  0.33535  1.0000
  C   C1436     1.0  0.57573  0.72563  0.07719  1.0000
  C   C1437     1.0  0.33846  0.71736  0.00289  1.0000
  H   H2433     1.0  0.60503  0.72901  0.06863  1.0000
  S   S397      1.0  0.63336  0.63794  0.17522  1.0000
  H   H2434     1.0  0.51403  0.71116  0.99331  1.0000
  H   H2435     1.0  0.65373  0.57984  0.30422  1.0000
  H   H2436     1.0  0.34715  0.72049  0.09722  1.0000
  H   H2437     1.0  0.33847  0.51289  0.33461  1.0000
  H   H2438     1.0  0.58647  0.48976  0.35879  1.0000
  H   H2439     1.0  0.49306  0.69859  0.98472  1.0000
  H   H2440     1.0  0.32729  0.71121  0.03358  1.0000
  H   H2441     1.0  0.32995  0.70919  0.99963  1.0000
  H   H2442     1.0  0.34097  0.50350  0.31475  1.0000
  C   C1438     1.0  0.34916  0.73086  0.10413  1.0000
  C   C1439     1.0  0.62634  0.48842  0.39045  1.0000
  S   S398      1.0  0.34932  0.48748  0.42376  1.0000
  H   H2443     1.0  0.62178  0.49232  0.32755  1.0000
  H   H2444     1.0  0.53654  0.66114  0.98615  1.0000
  S   S399      1.0  0.32299  0.52435  0.45482  1.0000
  H   H2445     1.0  0.56369  0.73113  0.07012  1.0000
  H   H2446     1.0  0.51629  0.48859  0.23521  1.0000
  H   H2447     1.0  0.35129  0.48963  0.33474  1.0000
  H   H2448     1.0  0.46556  0.65012  0.47823  1.0000
  H   H2449     1.0  0.65149  0.69229  0.14651  1.0000
  S   S400      1.0  0.32481  0.54405  0.21571  1.0000
  C   C1440     1.0  0.32329  0.72634  0.16346  1.0000
  C   C1441     1.0  0.59458  0.48596  0.39306  1.0000
  C   C1442     1.0  0.41902  0.63178  0.46768  1.0000
  C   C1443     1.0  0.45417  0.64446  0.47648  1.0000
  H   H2450     1.0  0.40359  0.63637  0.47172  1.0000
  C   C1444     1.0  0.48330  0.48591  0.22645  1.0000
  C   C1445     1.0  0.65453  0.71869  0.12770  1.0000
  H   H2451     1.0  0.59427  0.73018  0.05006  1.0000
  H   H2452     1.0  0.56634  0.48506  0.33069  1.0000
  H   H2453     1.0  0.55824  0.48433  0.36539  1.0000
  H   H2454     1.0  0.38416  0.73012  0.07543  1.0000
  H   H2455     1.0  0.45629  0.48528  0.22067  1.0000
  C   C1446     1.0  0.59954  0.48446  0.30448  1.0000
  H   H2456     1.0  0.40450  0.60124  0.92739  1.0000
  S   S401      1.0  0.36953  0.64967  0.61655  1.0000
  C   C1447     1.0  0.39124  0.51694  0.56828  1.0000
  H   H2457     1.0  0.32641  0.72731  0.73508  1.0000
  H   H2458     1.0  0.35256  0.70527  0.63065  1.0000
  H   H2459     1.0  0.38616  0.54396  0.63896  1.0000
  Fe  Fe195     1.0  0.35803  0.63673  0.59975  1.0000
  S   S402      1.0  0.37461  0.61008  0.59012  1.0000
  Fe  Fe196     1.0  0.35430  0.67731  0.60259  1.0000
  H   H2460     1.0  0.38927  0.73008  0.58236  1.0000
  H   H2461     1.0  0.40446  0.67419  0.68081  1.0000
  H   H2462     1.0  0.39741  0.70178  0.65342  1.0000
  Fe  Fe197     1.0  0.32399  0.54503  0.72781  1.0000
  C   C1448     1.0  0.37066  0.65728  0.71424  1.0000
  S   S403      1.0  0.34965  0.66491  0.82277  1.0000
  H   H2463     1.0  0.34298  0.51233  0.51667  1.0000
  H   H2464     1.0  0.43038  0.72585  0.85996  1.0000
  S   S404      1.0  0.33669  0.62929  0.85535  1.0000
  H   H2465     1.0  0.39681  0.60359  0.95171  1.0000
  Fe  Fe198     1.0  0.33936  0.65881  0.85409  1.0000
  S   S405      1.0  0.34712  0.66911  0.87637  1.0000
  Fe  Fe199     1.0  0.34427  0.63661  0.82373  1.0000
  S   S406      1.0  0.36047  0.61797  0.80319  1.0000
  H   H2466     1.0  0.34576  0.48848  0.50052  1.0000
  H   H2467     1.0  0.54591  0.68610  0.97209  1.0000
  H   H2468     1.0  0.46264  0.49898  0.52941  1.0000
  C   C1449     1.0  0.42606  0.61763  0.48445  1.0000
  C   C1450     1.0  0.39115  0.49926  0.58016  1.0000
  H   H2469     1.0  0.37626  0.68726  0.65047  1.0000
  C   C1451     1.0  0.41155  0.71971  0.83646  1.0000
  H   H2470     1.0  0.32433  0.66674  0.55469  1.0000
  H   H2471     1.0  0.33989  0.57114  0.66833  1.0000
  C   C1452     1.0  0.39368  0.70295  0.66830  1.0000
  H   H2472     1.0  0.43568  0.51206  0.60665  1.0000
  Fe  Fe200     1.0  0.41784  0.71073  0.90770  1.0000
  H   H2473     1.0  0.40089  0.64779  0.66057  1.0000
  S   S407      1.0  0.41704  0.69353  0.88725  1.0000
  Fe  Fe201     1.0  0.44578  0.72140  0.92460  1.0000
  H   H2474     1.0  0.35520  0.69311  0.69814  1.0000
  H   H2475     1.0  0.36357  0.61152  0.94907  1.0000
  N   N105      1.0  0.36568  0.57949  0.65194  1.0000
  H   H2476     1.0  0.39799  0.66109  0.63785  1.0000
  H   H2477     1.0  0.46258  0.71136  0.85464  1.0000
  H   H2478     1.0  0.39611  0.72687  0.74641  1.0000
  S   S408      1.0  0.42851  0.69931  0.93461  1.0000
  H   H2479     1.0  0.38023  0.72019  0.77636  1.0000
  Fe  Fe202     1.0  0.39878  0.57575  0.49594  1.0000
  S   S409      1.0  0.42131  0.55294  0.50729  1.0000
  S   S410      1.0  0.38361  0.60224  0.50669  1.0000
  H   H2480     1.0  0.33463  0.60901  0.59128  1.0000
  C   C1453     1.0  0.35639  0.51387  0.69953  1.0000
  Fe  Fe203     1.0  0.40739  0.53349  0.50048  1.0000
  H   H2481     1.0  0.42660  0.49227  0.60820  1.0000
  C   C1454     1.0  0.34228  0.63385  0.92032  1.0000
  S   S411      1.0  0.38354  0.55597  0.49160  1.0000
  C   C1455     1.0  0.33213  0.59980  0.58335  1.0000
  C   C1456     1.0  0.39475  0.51882  0.54880  1.0000
  H   H2482     1.0  0.40154  0.53872  0.65459  1.0000
  H   H2483     1.0  0.41941  0.70933  0.84651  1.0000
  H   H2484     1.0  0.41976  0.60538  0.48638  1.0000
  H   H2485     1.0  0.39498  0.53247  0.53969  1.0000
  H   H2486     1.0  0.38890  0.52916  0.57414  1.0000
  C   C1457     1.0  0.39745  0.48542  0.55307  1.0000
  H   H2487     1.0  0.36173  0.71775  0.76761  1.0000
  H   H2488     1.0  0.43017  0.49953  0.56207  1.0000
  N   N106      1.0  0.37428  0.63356  0.92760  1.0000
  C   C1458     1.0  0.37447  0.59603  0.64903  1.0000
  H   H2489     1.0  0.33851  0.66854  0.69515  1.0000
  S   S412      1.0  0.36458  0.70728  0.72466  1.0000
  H   H2490     1.0  0.33745  0.62105  0.54096  1.0000
  H   H2491     1.0  0.37481  0.57581  0.62308  1.0000
  H   H2492     1.0  0.45013  0.72525  0.96244  1.0000
  H   H2493     1.0  0.39377  0.59354  0.62160  1.0000
  C   C1459     1.0  0.39294  0.60046  0.93990  1.0000
  H   H2494     1.0  0.34590  0.50983  0.48375  1.0000
  H   H2495     1.0  0.40290  0.63119  0.91193  1.0000
  S   S413      1.0  0.34444  0.53686  0.70193  1.0000
  C   C1460     1.0  0.43997  0.59135  0.51665  1.0000
  H   H2496     1.0  0.32663  0.48554  0.75581  1.0000
  H   H2497     1.0  0.35390  0.55122  0.64417  1.0000
  C   C1461     1.0  0.36620  0.67844  0.87667  1.0000
  C   C1462     1.0  0.38409  0.67341  0.86589  1.0000
  C   C1463     1.0  0.39944  0.67852  0.86901  1.0000
  C   C1464     1.0  0.39704  0.68895  0.88269  1.0000
  C   C1465     1.0  0.37903  0.69473  0.89282  1.0000
  C   C1466     1.0  0.36375  0.68939  0.88990  1.0000
  H   H2498     1.0  0.38625  0.66483  0.85581  1.0000
  H   H2499     1.0  0.41332  0.67395  0.86110  1.0000
  H   H2500     1.0  0.37694  0.70284  0.90330  1.0000
  H   H2501     1.0  0.34998  0.69338  0.89831  1.0000
  C   C1467     1.0  0.34755  0.60337  0.79957  1.0000
  H   H2502     1.0  0.40544  0.70731  0.67096  1.0000
  H   H2503     1.0  0.33727  0.62331  0.93266  1.0000
  S   S414      1.0  0.39061  0.71787  0.97537  1.0000
  C   C1468     1.0  0.34301  0.58381  0.78070  1.0000
  C   C1469     1.0  0.35352  0.59515  0.78377  1.0000
  C   C1470     1.0  0.39360  0.59580  0.63550  1.0000
  C   C1471     1.0  0.39799  0.50302  0.54119  1.0000
  H   H2504     1.0  0.34787  0.57728  0.76869  1.0000
  H   H2505     1.0  0.36633  0.59750  0.77394  1.0000
  Fe  Fe204     1.0  0.40593  0.72233  0.94535  1.0000
  H   H2506     1.0  0.35863  0.52061  0.66960  1.0000
  C   C1472     1.0  0.36159  0.71512  0.62413  1.0000
  S   S415      1.0  0.34376  0.64099  0.66716  1.0000
  C   C1473     1.0  0.37940  0.66249  0.93624  1.0000
  H   H2507     1.0  0.38785  0.68726  0.69628  1.0000
  C   C1474     1.0  0.44569  0.49683  0.55812  1.0000
  H   H2508     1.0  0.35642  0.70244  0.67412  1.0000
  C   C1475     1.0  0.34712  0.70358  0.74472  1.0000
  C   C1476     1.0  0.35101  0.68858  0.75947  1.0000
  C   C1477     1.0  0.33824  0.68703  0.77664  1.0000
  H   H2509     1.0  0.36905  0.55130  0.66913  1.0000
  H   H2510     1.0  0.43949  0.49707  0.53158  1.0000
  C   C1478     1.0  0.36199  0.50983  0.68155  1.0000
  H   H2511     1.0  0.36420  0.67856  0.75790  1.0000
  H   H2512     1.0  0.34141  0.67551  0.78798  1.0000
  C   C1479     1.0  0.34786  0.58511  0.68494  1.0000
  C   C1480     1.0  0.46343  0.72822  0.96203  1.0000
  C   C1481     1.0  0.37809  0.60828  0.56664  1.0000
  C   C1482     1.0  0.38551  0.59067  0.56185  1.0000
  C   C1483     1.0  0.38753  0.58860  0.54344  1.0000
  C   C1484     1.0  0.38216  0.60419  0.52974  1.0000
  C   C1485     1.0  0.37506  0.62184  0.53447  1.0000
  C   C1486     1.0  0.37301  0.62389  0.55286  1.0000
  H   H2513     1.0  0.38944  0.57851  0.57247  1.0000
  H   H2514     1.0  0.39297  0.57494  0.53993  1.0000
  H   H2515     1.0  0.37101  0.63397  0.52387  1.0000
  H   H2516     1.0  0.36754  0.63755  0.55635  1.0000
  C   C1487     1.0  0.32988  0.71622  0.74671  1.0000
  H   H2517     1.0  0.36231  0.52110  0.50129  1.0000
  C   C1488     1.0  0.34711  0.58295  0.66546  1.0000
  S   S416      1.0  0.39376  0.73202  0.91946  1.0000
  H   H2518     1.0  0.46566  0.58747  0.49643  1.0000
  H   H2519     1.0  0.39097  0.66585  0.92427  1.0000
  C   C1489     1.0  0.35459  0.49886  0.49281  1.0000
  H   H2520     1.0  0.35614  0.72683  0.80659  1.0000
  C   C1490     1.0  0.35486  0.71888  0.79679  1.0000
  H   H2521     1.0  0.36115  0.70391  0.80179  1.0000
  H   H2522     1.0  0.40196  0.55902  0.63611  1.0000
  H   H2523     1.0  0.44360  0.57671  0.52455  1.0000
  C   C1491     1.0  0.39262  0.55046  0.64647  1.0000
  C   C1492     1.0  0.51151  0.68179  0.96605  1.0000
  H   H2524     1.0  0.37682  0.59744  0.66242  1.0000
  H   H2525     1.0  0.32970  0.64415  0.91645  1.0000
  H   H2526     1.0  0.45441  0.71016  0.83508  1.0000
  H   H2527     1.0  0.33225  0.59827  0.52592  1.0000
  C   C1493     1.0  0.32405  0.63294  0.68129  1.0000
  C   C1494     1.0  0.37960  0.64125  0.94150  1.0000
  H   H2528     1.0  0.50040  0.68463  0.95796  1.0000
  H   H2529     1.0  0.44064  0.65416  0.48040  1.0000
  H   H2530     1.0  0.35697  0.50289  0.72872  1.0000
  C   C1495     1.0  0.33628  0.64382  0.76231  1.0000
  H   H2531     1.0  0.38132  0.71447  0.67048  1.0000
  H   H2532     1.0  0.33905  0.68073  0.67100  1.0000
  C   C1496     1.0  0.36174  0.57896  0.63359  1.0000
  H   H2533     1.0  0.37583  0.48883  0.66498  1.0000
  H   H2534     1.0  0.37003  0.60663  0.92634  1.0000
  H   H2535     1.0  0.33738  0.65244  0.77159  1.0000
  H   H2536     1.0  0.35162  0.56221  0.62053  1.0000
  H   H2537     1.0  0.38804  0.50956  0.48230  1.0000
  H   H2538     1.0  0.46140  0.50496  0.58231  1.0000
  H   H2539     1.0  0.46843  0.72707  0.83296  1.0000
  H   H2540     1.0  0.44940  0.51066  0.55591  1.0000
  H   H2541     1.0  0.34358  0.59871  0.57085  1.0000
  H   H2542     1.0  0.39854  0.63045  0.88162  1.0000
  C   C1497     1.0  0.36424  0.72691  0.63449  1.0000
  C   C1498     1.0  0.36091  0.49983  0.71485  1.0000
  Fe  Fe205     1.0  0.34224  0.64898  0.63686  1.0000
  H   H2543     1.0  0.52036  0.69206  0.95857  1.0000
  H   H2544     1.0  0.37018  0.63840  0.95554  1.0000
  H   H2545     1.0  0.38045  0.66306  0.71858  1.0000
  C   C1499     1.0  0.33111  0.60006  0.81228  1.0000
  H   H2546     1.0  0.51936  0.66729  0.96542  1.0000
  S   S417      1.0  0.43759  0.73062  0.89660  1.0000
  H   H2547     1.0  0.33990  0.71942  0.79763  1.0000
  S   S418      1.0  0.40332  0.50484  0.51691  1.0000
  H   H2548     1.0  0.44400  0.60039  0.52360  1.0000
  H   H2549     1.0  0.33781  0.65185  0.74770  1.0000
  H   H2550     1.0  0.34836  0.63176  0.76285  1.0000
  S   S419      1.0  0.32167  0.57279  0.73507  1.0000
  C   C1500     1.0  0.47826  0.72564  0.94677  1.0000
  H   H2551     1.0  0.38507  0.56401  0.66999  1.0000
  H   H2552     1.0  0.36485  0.60933  0.64398  1.0000
  S   S420      1.0  0.38815  0.49712  0.60435  1.0000
  H   H2553     1.0  0.42537  0.51165  0.58815  1.0000
  H   H2554     1.0  0.35158  0.59846  0.68437  1.0000
  H   H2555     1.0  0.35554  0.65725  0.91410  1.0000
  H   H2556     1.0  0.33368  0.62817  0.70682  1.0000
  H   H2557     1.0  0.34648  0.64918  0.93804  1.0000
  C   C1501     1.0  0.38229  0.72905  0.59694  1.0000
  H   H2558     1.0  0.53679  0.71081  0.96701  1.0000
  C   C1502     1.0  0.45057  0.59244  0.49604  1.0000
  C   C1503     1.0  0.35485  0.64426  0.92506  1.0000
  S   S421      1.0  0.36758  0.70245  0.59118  1.0000
  S   S422      1.0  0.47551  0.71820  0.92758  1.0000
  C   C1504     1.0  0.37775  0.56144  0.66026  1.0000
  H   H2559     1.0  0.37131  0.64265  0.72238  1.0000
  C   C1505     1.0  0.37063  0.71624  0.60525  1.0000
  H   H2560     1.0  0.35622  0.66516  0.71841  1.0000
  H   H2561     1.0  0.33377  0.63428  0.56587  1.0000
  H   H2562     1.0  0.35750  0.57318  0.69189  1.0000
  C   C1506     1.0  0.39788  0.66225  0.65222  1.0000
  H   H2563     1.0  0.34909  0.62697  0.90834  1.0000
  H   H2564     1.0  0.40477  0.58537  0.64181  1.0000
  H   H2565     1.0  0.41923  0.62368  0.49713  1.0000
  C   C1507     1.0  0.38708  0.62756  0.89390  1.0000
  H   H2566     1.0  0.39400  0.63430  0.94355  1.0000
  H   H2567     1.0  0.40865  0.71166  0.82761  1.0000
  C   C1508     1.0  0.38843  0.63645  0.90944  1.0000
  S   S423      1.0  0.34530  0.66451  0.58359  1.0000
  C   C1509     1.0  0.33958  0.68202  0.68510  1.0000
  C   C1510     1.0  0.37424  0.61308  0.93573  1.0000
  C   C1511     1.0  0.45156  0.49165  0.53862  1.0000
  N   N107      1.0  0.37562  0.67597  0.68000  1.0000
  H   H2568     1.0  0.38744  0.65163  0.90323  1.0000
  S   S424      1.0  0.32771  0.67757  0.62417  1.0000
  C   C1512     1.0  0.37612  0.65707  0.69312  1.0000
  C   C1513     1.0  0.37856  0.67348  0.66025  1.0000
  H   H2569     1.0  0.40929  0.66940  0.65091  1.0000
  C   C1514     1.0  0.45443  0.62476  0.48912  1.0000
  H   H2570     1.0  0.35431  0.59303  0.62715  1.0000
  C   C1515     1.0  0.35691  0.50808  0.50775  1.0000
  C   C1516     1.0  0.35704  0.68908  0.68458  1.0000
  H   H2571     1.0  0.39782  0.72642  0.84393  1.0000
  H   H2572     1.0  0.42458  0.59472  0.51804  1.0000
  C   C1517     1.0  0.34985  0.56486  0.63472  1.0000
  H   H2573     1.0  0.36701  0.64926  0.69023  1.0000
  H   H2574     1.0  0.39039  0.64810  0.69082  1.0000
  H   H2575     1.0  0.36811  0.66622  0.65910  1.0000
  H   H2576     1.0  0.39717  0.60971  0.63298  1.0000
  C   C1518     1.0  0.39077  0.68432  0.68205  1.0000
  C   C1519     1.0  0.36507  0.72552  0.77647  1.0000
  H   H2577     1.0  0.36597  0.49836  0.51709  1.0000
  H   H2578     1.0  0.33477  0.57069  0.63956  1.0000
  H   H2579     1.0  0.33440  0.58847  0.54949  1.0000
  H   H2580     1.0  0.44627  0.62720  0.50313  1.0000
  H   H2581     1.0  0.38880  0.61213  0.89818  1.0000
  C   C1520     1.0  0.37175  0.49182  0.67888  1.0000
  S   S425      1.0  0.33167  0.63374  0.62142  1.0000
  H   H2582     1.0  0.33754  0.59575  0.65936  1.0000
  C   C1521     1.0  0.32522  0.59893  0.54070  1.0000
  H   H2583     1.0  0.35404  0.72773  0.96388  1.0000
  H   H2584     1.0  0.50708  0.72721  0.93494  1.0000
  H   H2585     1.0  0.37390  0.63395  0.88891  1.0000
  H   H2586     1.0  0.46888  0.61863  0.49154  1.0000
  C   C1522     1.0  0.49555  0.72916  0.94672  1.0000
  H   H2587     1.0  0.35713  0.72630  0.64886  1.0000
  H   H2588     1.0  0.38171  0.66678  0.94826  1.0000
  H   H2589     1.0  0.36591  0.67122  0.93305  1.0000
  C   C1523     1.0  0.43410  0.50282  0.59822  1.0000
  C   C1524     1.0  0.45361  0.49346  0.58847  1.0000
  C   C1525     1.0  0.32294  0.61900  0.54342  1.0000
  C   C1526     1.0  0.32280  0.62707  0.70063  1.0000
  H   H2590     1.0  0.43528  0.72645  0.81526  1.0000
  H   H2591     1.0  0.33368  0.58548  0.69401  1.0000
  H   H2592     1.0  0.33278  0.58564  0.59259  1.0000
  C   C1527     1.0  0.45716  0.72000  0.84207  1.0000
  H   H2593     1.0  0.32191  0.72259  0.62605  1.0000
  H   H2594     1.0  0.48268  0.49958  0.54913  1.0000
  H   H2595     1.0  0.32659  0.60597  0.82468  1.0000
  H   H2596     1.0  0.32691  0.69247  0.68970  1.0000
  C   C1528     1.0  0.32673  0.58025  0.79371  1.0000
  N   N108      1.0  0.44695  0.61133  0.48296  1.0000
  N   N109      1.0  0.37243  0.48979  0.48106  1.0000
  H   H2597     1.0  0.32433  0.50039  0.68358  1.0000
  H   H2598     1.0  0.44686  0.58165  0.49094  1.0000
  H   H2599     1.0  0.39136  0.58564  0.94430  1.0000
  H   H2600     1.0  0.32238  0.49981  0.72678  1.0000
  C   C1529     1.0  0.48798  0.48707  0.55931  1.0000
  H   H2601     1.0  0.49133  0.49157  0.57064  1.0000
  C   C1530     1.0  0.32163  0.70046  0.77912  1.0000
  H   H2602     1.0  0.46071  0.48391  0.59971  1.0000
  C   C1531     1.0  0.54071  0.69865  0.97826  1.0000
  Fe  Fe206     1.0  0.61161  0.93248  0.13277  1.0000
  S   S426      1.0  0.60290  0.91650  0.16201  1.0000
  S   S427      1.0  0.63518  0.91967  0.11179  1.0000
  C   C1532     1.0  0.42916  0.76043  0.18629  1.0000
  S   S428      1.0  0.56809  0.95208  0.16707  1.0000
  Fe  Fe207     1.0  0.59821  0.94442  0.16998  1.0000
  H   H2603     1.0  0.48431  0.94754  0.15399  1.0000
  Fe  Fe208     1.0  0.57384  0.92575  0.15595  1.0000
  S   S429      1.0  0.55363  0.90590  0.16293  1.0000
  S   S430      1.0  0.60916  0.95962  0.14096  1.0000
  S   S431      1.0  0.58300  0.94016  0.12638  1.0000
  C   C1533     1.0  0.44027  0.78700  0.13452  1.0000
  H   H2604     1.0  0.63671  0.78473  0.03844  1.0000
  S   S432      1.0  0.59538  0.87673  0.07885  1.0000
  C   C1534     1.0  0.41016  0.89565  0.00598  1.0000
  Fe  Fe209     1.0  0.39195  0.83821  0.02174  1.0000
  S   S433      1.0  0.37907  0.81306  0.03268  1.0000
  S   S434      1.0  0.39541  0.85186  0.04350  1.0000
  Fe  Fe210     1.0  0.39861  0.80154  0.00867  1.0000
  Fe  Fe211     1.0  0.36041  0.82664  0.01234  1.0000
  S   S435      1.0  0.41368  0.82545  0.99950  1.0000
  S   S436      1.0  0.37136  0.85321  0.00323  1.0000
  H   H2605     1.0  0.42396  0.89859  0.99777  1.0000
  H   H2606     1.0  0.41248  0.88016  0.01097  1.0000
  Fe  Fe212     1.0  0.49214  0.87185  0.10992  1.0000
  S   S437      1.0  0.50523  0.85879  0.08483  1.0000
  S   S438      1.0  0.50660  0.89520  0.10921  1.0000
  Fe  Fe213     1.0  0.46378  0.84613  0.12360  1.0000
  S   S439      1.0  0.47553  0.83124  0.09975  1.0000
  S   S440      1.0  0.43826  0.83782  0.14449  1.0000
  Fe  Fe214     1.0  0.50313  0.83159  0.10482  1.0000
  S   S441      1.0  0.52780  0.80793  0.10121  1.0000
  Fe  Fe215     1.0  0.47636  0.85980  0.08194  1.0000
  S   S442      1.0  0.47100  0.86549  0.05271  1.0000
  S   S443      1.0  0.49168  0.84410  0.13030  1.0000
  S   S444      1.0  0.46293  0.87522  0.10536  1.0000
  C   C1535     1.0  0.41324  0.81589  0.14843  1.0000
  H   H2607     1.0  0.63209  0.88638  0.06548  1.0000
  H   H2608     1.0  0.41860  0.90021  0.02946  1.0000
  C   C1536     1.0  0.39484  0.92281  0.98515  1.0000
  H   H2609     1.0  0.36779  0.79560  0.21199  1.0000
  H   H2610     1.0  0.45991  0.80434  0.13083  1.0000
  C   C1537     1.0  0.50681  0.76775  0.08047  1.0000
  C   C1538     1.0  0.50413  0.78522  0.10405  1.0000
  C   C1539     1.0  0.52003  0.79201  0.09363  1.0000
  C   C1540     1.0  0.52923  0.78677  0.07663  1.0000
  C   C1541     1.0  0.52245  0.77490  0.06989  1.0000
  H   H2611     1.0  0.54158  0.79190  0.06871  1.0000
  H   H2612     1.0  0.52940  0.77112  0.05662  1.0000
  C   C1542     1.0  0.41694  0.85435  0.04613  1.0000
  C   C1543     1.0  0.43330  0.85155  0.03241  1.0000
  C   C1544     1.0  0.44989  0.85491  0.03457  1.0000
  C   C1545     1.0  0.45036  0.86041  0.05074  1.0000
  C   C1546     1.0  0.43418  0.86257  0.06471  1.0000
  C   C1547     1.0  0.41746  0.85984  0.06226  1.0000
  H   H2613     1.0  0.43304  0.84722  0.01998  1.0000
  H   H2614     1.0  0.46239  0.85322  0.02373  1.0000
  H   H2615     1.0  0.43441  0.86687  0.07718  1.0000
  H   H2616     1.0  0.40486  0.86203  0.07292  1.0000
  H   H2617     1.0  0.49690  0.78935  0.11718  1.0000
  C   C1548     1.0  0.43192  0.81781  0.14220  1.0000
  C   C1549     1.0  0.57571  0.78852  0.03823  1.0000
  C   C1550     1.0  0.56660  0.78366  0.02698  1.0000
  C   C1551     1.0  0.56953  0.79106  0.00776  1.0000
  C   C1552     1.0  0.58151  0.80372  0.99983  1.0000
  H   H2618     1.0  0.57330  0.78270  0.05309  1.0000
  H   H2619     1.0  0.55700  0.77450  0.03331  1.0000
  H   H2620     1.0  0.57737  0.76399  0.10823  1.0000
  H   H2621     1.0  0.37114  0.78716  0.07704  1.0000
  C   C1553     1.0  0.39837  0.76355  0.98839  1.0000
  H   H2622     1.0  0.50647  0.93056  0.15415  1.0000
  C   C1554     1.0  0.63877  0.96004  0.17983  1.0000
  H   H2623     1.0  0.34557  0.74524  0.01484  1.0000
  Fe  Fe216     1.0  0.50989  0.74508  0.00669  1.0000
  C   C1555     1.0  0.34664  0.78582  0.03088  1.0000
  H   H2624     1.0  0.63822  0.95596  0.16736  1.0000
  H   H2625     1.0  0.64406  0.88062  0.13322  1.0000
  C   C1556     1.0  0.54179  0.90182  0.14744  1.0000
  C   C1557     1.0  0.54499  0.90992  0.12830  1.0000
  C   C1558     1.0  0.53450  0.90726  0.11672  1.0000
  C   C1559     1.0  0.52080  0.89633  0.12404  1.0000
  C   C1560     1.0  0.51800  0.88774  0.14306  1.0000
  C   C1561     1.0  0.52842  0.89050  0.15467  1.0000
  H   H2626     1.0  0.55537  0.91844  0.12250  1.0000
  H   H2627     1.0  0.53686  0.91390  0.10201  1.0000
  H   H2628     1.0  0.50739  0.87945  0.14897  1.0000
  H   H2629     1.0  0.52583  0.88415  0.16946  1.0000
  C   C1562     1.0  0.60823  0.88634  0.08851  1.0000
  C   C1563     1.0  0.60016  0.89114  0.10591  1.0000
  C   C1564     1.0  0.60918  0.90028  0.11346  1.0000
  C   C1565     1.0  0.62588  0.90553  0.10329  1.0000
  C   C1566     1.0  0.63439  0.90020  0.08611  1.0000
  C   C1567     1.0  0.62566  0.89032  0.07882  1.0000
  H   H2630     1.0  0.58672  0.88816  0.11353  1.0000
  H   H2631     1.0  0.60301  0.90345  0.12714  1.0000
  H   H2632     1.0  0.33347  0.77530  0.98150  1.0000
  N   N110      1.0  0.52573  0.84196  0.02744  1.0000
  C   C1568     1.0  0.53309  0.82890  0.04401  1.0000
  C   C1569     1.0  0.50904  0.83539  0.02626  1.0000
  C   C1570     1.0  0.51970  0.86139  0.03149  1.0000
  C   C1571     1.0  0.54118  0.84125  0.01020  1.0000
  C   C1572     1.0  0.54888  0.83406  0.04965  1.0000
  C   C1573     1.0  0.51323  0.81554  0.02227  1.0000
  C   C1574     1.0  0.51055  0.87710  0.01703  1.0000
  H   H2633     1.0  0.35614  0.78230  0.13064  1.0000
  H   H2634     1.0  0.52162  0.82760  0.05674  1.0000
  H   H2635     1.0  0.53873  0.81453  0.04127  1.0000
  H   H2636     1.0  0.50151  0.84492  0.01556  1.0000
  H   H2637     1.0  0.49841  0.83544  0.03962  1.0000
  H   H2638     1.0  0.50978  0.86125  0.04523  1.0000
  H   H2639     1.0  0.53181  0.86628  0.03276  1.0000
  H   H2640     1.0  0.55150  0.84935  0.01010  1.0000
  H   H2641     1.0  0.54921  0.82664  0.01062  1.0000
  H   H2642     1.0  0.56055  0.83686  0.03766  1.0000
  H   H2643     1.0  0.54355  0.84611  0.05673  1.0000
  H   H2644     1.0  0.55473  0.82198  0.05996  1.0000
  H   H2645     1.0  0.51665  0.80452  0.03455  1.0000
  H   H2646     1.0  0.50055  0.81319  0.01932  1.0000
  H   H2647     1.0  0.52462  0.81356  0.00989  1.0000
  C   C1575     1.0  0.58958  0.91537  0.02890  1.0000
  H   H2648     1.0  0.64136  0.97430  0.22469  1.0000
  C   C1576     1.0  0.35369  0.76639  0.11168  1.0000
  H   H2649     1.0  0.53425  0.95951  0.09586  1.0000
  H   H2650     1.0  0.65106  0.77913  0.09710  1.0000
  H   H2651     1.0  0.37857  0.88439  0.01445  1.0000
  N   N111      1.0  0.43838  0.79401  0.07514  1.0000
  C   C1577     1.0  0.43389  0.80975  0.08549  1.0000
  C   C1578     1.0  0.45937  0.78882  0.06932  1.0000
  C   C1579     1.0  0.43148  0.77753  0.08878  1.0000
  C   C1580     1.0  0.42873  0.80056  0.05877  1.0000
  C   C1581     1.0  0.41309  0.81640  0.09424  1.0000
  C   C1582     1.0  0.46901  0.80479  0.05698  1.0000
  C   C1583     1.0  0.43518  0.75944  0.08151  1.0000
  C   C1584     1.0  0.43714  0.79054  0.04209  1.0000
  H   H2652     1.0  0.44183  0.80587  0.09689  1.0000
  H   H2653     1.0  0.40409  0.82034  0.08383  1.0000
  H   H2654     1.0  0.46408  0.77719  0.06173  1.0000
  H   H2655     1.0  0.46564  0.78330  0.08195  1.0000
  H   H2656     1.0  0.43777  0.77377  0.10137  1.0000
  H   H2657     1.0  0.41610  0.78103  0.09396  1.0000
  Fe  Fe217     1.0  0.60897  0.83365  0.03570  1.0000
  C   C1585     1.0  0.44541  0.80328  0.13523  1.0000
  H   H2658     1.0  0.41299  0.81649  0.18479  1.0000
  H   H2659     1.0  0.40791  0.80587  0.10645  1.0000
  H   H2660     1.0  0.46227  0.81258  0.04506  1.0000
  H   H2661     1.0  0.46945  0.81468  0.06531  1.0000
  H   H2662     1.0  0.48375  0.79858  0.05124  1.0000
  H   H2663     1.0  0.33844  0.77262  0.11362  1.0000
  N   N112      1.0  0.51397  0.96760  0.13377  1.0000
  H   H2664     1.0  0.55433  0.75589  0.08586  1.0000
  H   H2665     1.0  0.57460  0.73537  0.12991  1.0000
  H   H2666     1.0  0.44517  0.77604  0.04542  1.0000
  H   H2667     1.0  0.45084  0.77580  0.12920  1.0000
  C   C1586     1.0  0.41972  0.78095  0.22269  1.0000
  S   S445      1.0  0.41040  0.77060  0.01669  1.0000
  C   C1587     1.0  0.36070  0.77915  0.07726  1.0000
  C   C1588     1.0  0.40812  0.79950  0.14788  1.0000
  C   C1589     1.0  0.38161  0.75158  0.09142  1.0000
  H   H2668     1.0  0.41234  0.75918  0.24696  1.0000
  S   S446      1.0  0.62529  0.83585  0.05523  1.0000
  H   H2669     1.0  0.64744  0.90408  0.07828  1.0000
  H   H2670     1.0  0.35968  0.78975  0.02326  1.0000
  C   C1590     1.0  0.40437  0.75619  0.00531  1.0000
  S   S447      1.0  0.60460  0.94959  0.19576  1.0000
  H   H2671     1.0  0.38972  0.75201  0.06094  1.0000
  H   H2672     1.0  0.37815  0.77293  0.11728  1.0000
  H   H2673     1.0  0.53797  0.96780  0.14391  1.0000
  C   C1591     1.0  0.62422  0.95830  0.19559  1.0000
  C   C1592     1.0  0.52063  0.95336  0.16735  1.0000
  C   C1593     1.0  0.53547  0.84796  0.99093  1.0000
  C   C1594     1.0  0.38088  0.79749  0.21454  1.0000
  H   H2674     1.0  0.35400  0.77388  0.25791  1.0000
  C   C1595     1.0  0.32935  0.76434  0.27476  1.0000
  H   H2675     1.0  0.43618  0.82876  0.19228  1.0000
  H   H2676     1.0  0.38119  0.79079  0.22941  1.0000
  C   C1596     1.0  0.52326  0.97872  0.11560  1.0000
  S   S448      1.0  0.37748  0.73555  0.15266  1.0000
  H   H2677     1.0  0.42877  0.81561  0.05268  1.0000
  S   S449      1.0  0.59122  0.86230  0.03610  1.0000
  H   H2678     1.0  0.41371  0.79974  0.06355  1.0000
  C   C1597     1.0  0.43182  0.77888  0.18922  1.0000
  H   H2679     1.0  0.41160  0.82912  0.09967  1.0000
  H   H2680     1.0  0.39052  0.76144  0.09060  1.0000
  S   S450      1.0  0.59755  0.80749  0.04558  1.0000
  H   H2681     1.0  0.41072  0.79008  0.23245  1.0000
  H   H2682     1.0  0.36257  0.79326  0.10661  1.0000
  H   H2683     1.0  0.45025  0.75394  0.07638  1.0000
  H   H2684     1.0  0.37981  0.81279  0.21213  1.0000
  N   N113      1.0  0.56022  0.84129  0.11723  1.0000
  C   C1598     1.0  0.57778  0.83160  0.10574  1.0000
  C   C1599     1.0  0.56498  0.85578  0.12450  1.0000
  C   C1600     1.0  0.54564  0.85100  0.10564  1.0000
  C   C1601     1.0  0.55235  0.82678  0.13309  1.0000
  C   C1602     1.0  0.57509  0.81805  0.09509  1.0000
  C   C1603     1.0  0.57944  0.84834  0.13713  1.0000
  C   C1604     1.0  0.55169  0.86530  0.08770  1.0000
  C   C1605     1.0  0.53688  0.83442  0.14878  1.0000
  H   H2685     1.0  0.58537  0.84192  0.09538  1.0000
  H   H2686     1.0  0.58780  0.82319  0.11476  1.0000
  H   H2687     1.0  0.55223  0.86401  0.13213  1.0000
  H   H2688     1.0  0.57077  0.86631  0.11276  1.0000
  H   H2689     1.0  0.54039  0.84065  0.10149  1.0000
  H   H2690     1.0  0.53313  0.85880  0.11399  1.0000
  H   H2691     1.0  0.54623  0.81792  0.12771  1.0000
  H   H2692     1.0  0.56355  0.81682  0.13986  1.0000
  H   H2693     1.0  0.58898  0.81140  0.08767  1.0000
  H   H2694     1.0  0.56848  0.80663  0.10462  1.0000
  H   H2695     1.0  0.56684  0.82548  0.08424  1.0000
  H   H2696     1.0  0.57566  0.83693  0.14906  1.0000
  H   H2697     1.0  0.59362  0.84361  0.12892  1.0000
  H   H2698     1.0  0.58019  0.86001  0.14308  1.0000
  H   H2699     1.0  0.56406  0.85905  0.07801  1.0000
  H   H2700     1.0  0.55423  0.87774  0.09097  1.0000
  H   H2701     1.0  0.54015  0.87069  0.07999  1.0000
  H   H2702     1.0  0.54237  0.84093  0.15713  1.0000
  H   H2703     1.0  0.53102  0.82260  0.15858  1.0000
  H   H2704     1.0  0.52514  0.84465  0.14331  1.0000
  C   C1606     1.0  0.65010  0.74321  0.23133  1.0000
  C   C1607     1.0  0.39763  0.78807  0.20109  1.0000
  C   C1608     1.0  0.56258  0.74954  0.09694  1.0000
  S   S451      1.0  0.51016  0.76922  0.01861  1.0000
  Fe  Fe218     1.0  0.60970  0.86543  0.05311  1.0000
  H   H2705     1.0  0.59924  0.81904  0.00522  1.0000
  H   H2706     1.0  0.38649  0.93164  0.99542  1.0000
  C   C1609     1.0  0.62741  0.75941  0.05394  1.0000
  C   C1610     1.0  0.42166  0.78498  0.14098  1.0000
  H   H2707     1.0  0.40853  0.81685  0.20890  1.0000
  H   H2708     1.0  0.44179  0.77084  0.98272  1.0000
  H   H2709     1.0  0.62527  0.95300  0.02175  1.0000
  S   S452      1.0  0.54077  0.74014  0.99429  1.0000
  H   H2710     1.0  0.54921  0.98213  0.98931  1.0000
  H   H2711     1.0  0.40183  0.91966  0.02015  1.0000
  H   H2712     1.0  0.64284  0.85999  0.11383  1.0000
  S   S453      1.0  0.33061  0.82318  0.02271  1.0000
  C   C1611     1.0  0.58734  0.80135  0.03049  1.0000
  H   H2713     1.0  0.43412  0.78109  0.22341  1.0000
  H   H2714     1.0  0.42710  0.76130  0.07067  1.0000
  H   H2715     1.0  0.35400  0.74692  0.07550  1.0000
  H   H2716     1.0  0.53710  0.94537  0.14151  1.0000
  H   H2717     1.0  0.48565  0.76722  0.10592  1.0000
  H   H2718     1.0  0.39368  0.79821  0.15255  1.0000
  H   H2719     1.0  0.56565  0.93611  0.06495  1.0000
  C   C1612     1.0  0.50671  0.95314  0.12892  1.0000
  H   H2720     1.0  0.63961  0.93010  0.02561  1.0000
  C   C1613     1.0  0.37719  0.89921  0.00654  1.0000
  H   H2721     1.0  0.62566  0.77373  0.08288  1.0000
  C   C1614     1.0  0.63536  0.78323  0.07490  1.0000
  C   C1615     1.0  0.59172  0.73432  0.06372  1.0000
  C   C1616     1.0  0.57667  0.76195  0.09446  1.0000
  H   H2722     1.0  0.40270  0.82713  0.15368  1.0000
  H   H2723     1.0  0.35935  0.75655  0.03726  1.0000
  H   H2724     1.0  0.64165  0.74106  0.19873  1.0000
  H   H2725     1.0  0.56042  0.96819  0.06028  1.0000
  H   H2726     1.0  0.59526  0.96765  0.02799  1.0000
  H   H2727     1.0  0.44566  0.77582  0.19309  1.0000
  S   S454      1.0  0.32579  0.76269  0.15897  1.0000
  H   H2728     1.0  0.49157  0.93063  0.13962  1.0000
  C   C1617     1.0  0.58864  0.96142  0.04249  1.0000
  S   S455      1.0  0.54655  0.74254  0.03542  1.0000
  H   H2729     1.0  0.61475  0.91645  0.04746  1.0000
  C   C1618     1.0  0.52820  0.95840  0.14591  1.0000
  C   C1619     1.0  0.64712  0.86543  0.13938  1.0000
  N   N114      1.0  0.39568  0.90229  0.99396  1.0000
  H   H2730     1.0  0.54425  0.85780  0.98157  1.0000
  Fe  Fe219     1.0  0.64479  0.84699  0.02934  1.0000
  C   C1620     1.0  0.58458  0.93748  0.08114  1.0000
  H   H2731     1.0  0.35470  0.75341  0.12283  1.0000
  H   H2732     1.0  0.56895  0.94049  0.03280  1.0000
  H   H2733     1.0  0.33700  0.79905  0.09053  1.0000
  H   H2734     1.0  0.61749  0.93586  0.05449  1.0000
  H   H2735     1.0  0.43025  0.74837  0.09334  1.0000
  H   H2736     1.0  0.41738  0.76300  0.17922  1.0000
  H   H2737     1.0  0.35177  0.77570  0.99150  1.0000
  C   C1621     1.0  0.63771  0.85648  0.12922  1.0000
  H   H2738     1.0  0.37277  0.90789  0.01736  1.0000
  H   H2739     1.0  0.63933  0.86428  0.15421  1.0000
  H   H2740     1.0  0.52063  0.88009  0.00362  1.0000
  H   H2741     1.0  0.58372  0.80962  0.98495  1.0000
  C   C1622     1.0  0.33891  0.77009  0.99452  1.0000
  H   H2742     1.0  0.40913  0.92581  0.98141  1.0000
  C   C1623     1.0  0.34640  0.76693  0.03878  1.0000
  H   H2743     1.0  0.33059  0.78668  0.07645  1.0000
  C   C1624     1.0  0.59024  0.80909  0.01125  1.0000
  C   C1625     1.0  0.49770  0.77283  0.09762  1.0000
  Fe  Fe220     1.0  0.54130  0.76251  0.00861  1.0000
  C   C1626     1.0  0.36337  0.77951  0.11652  1.0000
  S   S456      1.0  0.59971  0.89463  0.98995  1.0000
  H   H2744     1.0  0.39566  0.79468  0.18656  1.0000
  N   N115      1.0  0.41671  0.78882  0.20297  1.0000
  H   H2745     1.0  0.62245  0.86243  0.13199  1.0000
  H   H2746     1.0  0.64686  0.80282  0.08338  1.0000
  C   C1627     1.0  0.41790  0.80926  0.19801  1.0000
  S   S457      1.0  0.48438  0.74821  0.99493  1.0000
  S   S458      1.0  0.33036  0.73734  0.05725  1.0000
  H   H2747     1.0  0.50596  0.89018  0.02255  1.0000
  H   H2748     1.0  0.43837  0.82246  0.07602  1.0000
  S   S459      1.0  0.36655  0.76877  0.17677  1.0000
  S   S460      1.0  0.41576  0.76443  0.13962  1.0000
  H   H2749     1.0  0.42556  0.78980  0.03611  1.0000
  S   S461      1.0  0.62948  0.84267  0.00953  1.0000
  Fe  Fe221     1.0  0.61300  0.87198  0.01149  1.0000
  H   H2750     1.0  0.65374  0.89421  0.15113  1.0000
  H   H2751     1.0  0.50632  0.95077  0.17175  1.0000
  H   H2752     1.0  0.51827  0.94366  0.12137  1.0000
  H   H2753     1.0  0.35842  0.74351  0.99253  1.0000
  Fe  Fe222     1.0  0.51536  0.74753  0.04425  1.0000
  H   H2754     1.0  0.43342  0.78811  0.17502  1.0000
  H   H2755     1.0  0.61415  0.76789  0.06044  1.0000
  H   H2756     1.0  0.33496  0.75725  0.09084  1.0000
  C   C1628     1.0  0.61214  0.93202  0.04398  1.0000
  S   S462      1.0  0.63037  0.87722  0.02874  1.0000
  H   H2757     1.0  0.58029  0.95270  0.08092  1.0000
  H   H2758     1.0  0.62451  0.75556  0.04196  1.0000
  H   H2759     1.0  0.60218  0.91288  0.01769  1.0000
  S   S463      1.0  0.49893  0.75205  0.07264  1.0000
  C   C1629     1.0  0.53943  0.96741  0.10315  1.0000
  C   C1630     1.0  0.62507  0.93786  0.02493  1.0000
  H   H2760     1.0  0.39595  0.77353  0.20313  1.0000
  Fe  Fe223     1.0  0.57954  0.96556  0.13762  1.0000
  H   H2761     1.0  0.65161  0.75169  0.25655  1.0000
  C   C1631     1.0  0.34844  0.75262  0.24732  1.0000
  H   H2762     1.0  0.58786  0.74981  0.06079  1.0000
  S   S464      1.0  0.55730  0.78560  0.99386  1.0000
  H   H2763     1.0  0.35604  0.91918  0.99195  1.0000
  H   H2764     1.0  0.49697  0.96005  0.11917  1.0000
  C   C1632     1.0  0.33006  0.79942  0.03249  1.0000
  S   S465      1.0  0.37934  0.81399  0.98862  1.0000
  C   C1633     1.0  0.64283  0.77089  0.04661  1.0000
  H   H2765     1.0  0.59087  0.75703  0.08665  1.0000
  C   C1634     1.0  0.43745  0.81333  0.19537  1.0000
  H   H2766     1.0  0.58991  0.94439  0.01642  1.0000
  H   H2767     1.0  0.54703  0.97732  0.09212  1.0000
  H   H2768     1.0  0.59162  0.90518  0.04205  1.0000
  Fe  Fe224     1.0  0.39256  0.75257  0.16136  1.0000
  H   H2769     1.0  0.55254  0.75124  0.11042  1.0000
  H   H2770     1.0  0.44742  0.80834  0.18315  1.0000
  H   H2771     1.0  0.44337  0.80746  0.20811  1.0000
  H   H2772     1.0  0.34297  0.80496  0.06561  1.0000
  Fe  Fe225     1.0  0.35188  0.74997  0.17023  1.0000
  C   C1635     1.0  0.34979  0.74969  0.08990  1.0000
  H   H2773     1.0  0.54972  0.95777  0.11114  1.0000
  H   H2774     1.0  0.61419  0.96206  0.22406  1.0000
  H   H2775     1.0  0.44182  0.75433  0.17672  1.0000
  C   C1636     1.0  0.34404  0.74848  0.00009  1.0000
  H   H2776     1.0  0.57617  0.93032  0.09406  1.0000
  C   C1637     1.0  0.34480  0.76449  0.25979  1.0000
  H   H2777     1.0  0.42715  0.74975  0.19935  1.0000
  C   C1638     1.0  0.32959  0.76139  0.04826  1.0000
  H   H2778     1.0  0.58440  0.91673  0.06695  1.0000
  H   H2779     1.0  0.53098  0.73845  0.09851  1.0000
  H   H2780     1.0  0.52974  0.94024  0.17335  1.0000
  H   H2781     1.0  0.49777  0.87438  0.01474  1.0000
  H   H2782     1.0  0.59833  0.97326  0.10221  1.0000
  H   H2783     1.0  0.39490  0.89822  0.03464  1.0000
  H   H2784     1.0  0.59935  0.93252  0.08248  1.0000
  C   C1639     1.0  0.49669  0.93996  0.14536  1.0000
  N   N116      1.0  0.59157  0.94046  0.04528  1.0000
  Fe  Fe226     1.0  0.39239  0.83916  0.98130  1.0000
  H   H2785     1.0  0.53845  0.83590  0.98402  1.0000
  H   H2786     1.0  0.44585  0.79900  0.03054  1.0000
  C   C1640     1.0  0.58445  0.93616  0.03043  1.0000
  H   H2787     1.0  0.56052  0.97044  0.03586  1.0000
  N   N117      1.0  0.36144  0.76170  0.09260  1.0000
  C   C1641     1.0  0.58099  0.93226  0.06424  1.0000
  N   N118      1.0  0.65120  0.77369  0.06141  1.0000
  H   H2788     1.0  0.62669  0.79560  0.06716  1.0000
  H   H2789     1.0  0.57136  0.77623  0.08667  1.0000
  H   H2790     1.0  0.57974  0.95078  0.98298  1.0000
  H   H2791     1.0  0.36474  0.77541  0.06326  1.0000
  C   C1642     1.0  0.34162  0.79302  0.07781  1.0000
  C   C1643     1.0  0.40586  0.90415  0.02347  1.0000
  C   C1644     1.0  0.62531  0.96347  0.21176  1.0000
  H   H2792     1.0  0.65021  0.74907  0.08365  1.0000
  H   H2793     1.0  0.32674  0.77360  0.28430  1.0000
  H   H2794     1.0  0.43076  0.75051  0.22875  1.0000
  C   C1645     1.0  0.56809  0.97219  0.04571  1.0000
  C   C1646     1.0  0.41730  0.76067  0.23155  1.0000
  H   H2795     1.0  0.40654  0.75661  0.22702  1.0000
  C   C1647     1.0  0.64071  0.97039  0.21216  1.0000
  S   S466      1.0  0.36840  0.75346  0.22903  1.0000
  H   H2796     1.0  0.57821  0.91211  0.02441  1.0000
  H   H2797     1.0  0.62149  0.93430  0.01322  1.0000
  C   C1648     1.0  0.64822  0.73997  0.25271  1.0000
  H   H2798     1.0  0.59581  0.96507  0.05165  1.0000
  Fe  Fe227     1.0  0.37060  0.74547  0.20183  1.0000
  H   H2799     1.0  0.52179  0.96413  0.17426  1.0000
  H   H2800     1.0  0.36272  0.89620  0.98589  1.0000
  H   H2801     1.0  0.63349  0.73947  0.25983  1.0000
  H   H2802     1.0  0.39698  0.77828  0.98242  1.0000
  H   H2803     1.0  0.32783  0.78284  0.20597  1.0000
  H   H2804     1.0  0.34825  0.89950  0.00786  1.0000
  C   C1649     1.0  0.40591  0.73701  0.01312  1.0000
  C   C1650     1.0  0.33655  0.74029  0.25009  1.0000
  H   H2805     1.0  0.38358  0.74082  0.10438  1.0000
  H   H2806     1.0  0.62833  0.79407  0.10041  1.0000
  H   H2807     1.0  0.64193  0.73391  0.22933  1.0000
  C   C1651     1.0  0.36036  0.90387  0.99715  1.0000
  H   H2808     1.0  0.63144  0.74631  0.06410  1.0000
  H   H2809     1.0  0.48971  0.97413  0.15591  1.0000
  H   H2810     1.0  0.52077  0.85525  0.99118  1.0000
  N   N119      1.0  0.33049  0.73813  0.99813  1.0000
  C   C1652     1.0  0.40140  0.89008  0.97969  1.0000
  H   H2811     1.0  0.61274  0.97802  0.06844  1.0000
  H   H2812     1.0  0.63943  0.84111  0.13412  1.0000
  H   H2813     1.0  0.40106  0.87521  0.98674  1.0000
  C   C1653     1.0  0.64099  0.79007  0.08971  1.0000
  H   H2814     1.0  0.57001  0.97491  0.99808  1.0000
  H   H2815     1.0  0.45408  0.73673  0.98858  1.0000
  H   H2816     1.0  0.32852  0.77610  0.00593  1.0000
  H   H2817     1.0  0.64245  0.75783  0.22672  1.0000
  H   H2818     1.0  0.65430  0.84810  0.06237  1.0000
  C   C1654     1.0  0.39053  0.74202  0.07454  1.0000
  C   C1655     1.0  0.49770  0.98113  0.14265  1.0000
  C   C1656     1.0  0.56474  0.97963  0.98483  1.0000
  H   H2819     1.0  0.40559  0.73614  0.07452  1.0000
  C   C1657     1.0  0.65424  0.96674  0.18031  1.0000
  C   C1658     1.0  0.39450  0.75178  0.97899  1.0000
  H   H2820     1.0  0.65346  0.76400  0.03601  1.0000
  H   H2821     1.0  0.32764  0.74268  0.60828  1.0000
  S   S467      1.0  0.34684  0.78431  0.67475  1.0000
  S   S468      1.0  0.40563  0.78150  0.89594  1.0000
  H   H2822     1.0  0.51101  0.73891  0.96120  1.0000
  H   H2823     1.0  0.39852  0.73956  0.86562  1.0000
  Fe  Fe228     1.0  0.35959  0.77714  0.70026  1.0000
  S   S469      1.0  0.36268  0.79925  0.71421  1.0000
  H   H2824     1.0  0.62163  0.84846  0.91567  1.0000
  H   H2825     1.0  0.39440  0.75015  0.60071  1.0000
  H   H2826     1.0  0.63868  0.84020  0.96119  1.0000
  H   H2827     1.0  0.42284  0.85487  0.72476  1.0000
  Fe  Fe229     1.0  0.41196  0.85427  0.79149  1.0000
  S   S470      1.0  0.42161  0.86178  0.76027  1.0000
  S   S471      1.0  0.38569  0.86960  0.80778  1.0000
  Fe  Fe230     1.0  0.44555  0.82344  0.79658  1.0000
  S   S472      1.0  0.45846  0.82860  0.76595  1.0000
  S   S473      1.0  0.45944  0.80095  0.81758  1.0000
  Fe  Fe231     1.0  0.44962  0.85927  0.76681  1.0000
  S   S474      1.0  0.46597  0.88188  0.75011  1.0000
  Fe  Fe232     1.0  0.42961  0.83053  0.76177  1.0000
  S   S475      1.0  0.43005  0.81319  0.74097  1.0000
  S   S476      1.0  0.43936  0.85367  0.79794  1.0000
  S   S477      1.0  0.41738  0.82335  0.79258  1.0000
  Fe  Fe233     1.0  0.38867  0.95240  0.84676  1.0000
  S   S478      1.0  0.40089  0.95156  0.87100  1.0000
  S   S479      1.0  0.40743  0.93710  0.82485  1.0000
  H   H2828     1.0  0.41443  0.87149  0.70505  1.0000
  H   H2829     1.0  0.39153  0.89382  0.97027  1.0000
  H   H2830     1.0  0.43769  0.85446  0.68272  1.0000
  H   H2831     1.0  0.59115  0.96720  0.77656  1.0000
  Fe  Fe234     1.0  0.37136  0.95213  0.88736  1.0000
  S   S480      1.0  0.36257  0.93531  0.91671  1.0000
  H   H2832     1.0  0.45268  0.98314  0.79824  1.0000
  S   S481      1.0  0.35959  0.95082  0.86341  1.0000
  Fe  Fe235     1.0  0.55221  0.94891  0.80255  1.0000
  S   S482      1.0  0.56222  0.93488  0.77801  1.0000
  S   S483      1.0  0.56587  0.93854  0.82770  1.0000
  Fe  Fe236     1.0  0.53185  0.93628  0.77909  1.0000
  S   S484      1.0  0.51920  0.91063  0.78421  1.0000
  S   S485      1.0  0.52237  0.94822  0.80504  1.0000
  H   H2833     1.0  0.59049  0.93110  0.85302  1.0000
  H   H2834     1.0  0.43661  0.76873  0.95295  1.0000
  H   H2835     1.0  0.33824  0.98065  0.66360  1.0000
  H   H2836     1.0  0.59193  0.87083  0.96508  1.0000
  H   H2837     1.0  0.42337  0.90458  0.96079  1.0000
  C   C1659     1.0  0.61570  0.86878  0.94168  1.0000
  C   C1660     1.0  0.32313  0.76542  0.63907  1.0000
  C   C1661     1.0  0.39192  0.90423  0.91678  1.0000
  H   H2838     1.0  0.43096  0.95606  0.79339  1.0000
  C   C1662     1.0  0.57925  0.95252  0.83134  1.0000
  C   C1663     1.0  0.59033  0.94522  0.84487  1.0000
  C   C1664     1.0  0.37386  0.91214  0.92539  1.0000
  H   H2839     1.0  0.61397  0.95736  0.79886  1.0000
  H   H2840     1.0  0.40126  0.76421  0.83327  1.0000
  C   C1665     1.0  0.39163  0.87569  0.94127  1.0000
  C   C1666     1.0  0.37345  0.88344  0.94963  1.0000
  C   C1667     1.0  0.36471  0.90166  0.94184  1.0000
  C   C1668     1.0  0.61465  0.90360  0.96949  1.0000
  H   H2841     1.0  0.59347  0.94399  0.79051  1.0000
  C   C1669     1.0  0.44470  0.79668  0.83969  1.0000
  C   C1670     1.0  0.45139  0.78255  0.85397  1.0000
  C   C1671     1.0  0.43949  0.77808  0.87137  1.0000
  C   C1672     1.0  0.42089  0.78777  0.87461  1.0000
  C   C1673     1.0  0.41430  0.80226  0.86052  1.0000
  C   C1674     1.0  0.42617  0.80662  0.84301  1.0000
  H   H2842     1.0  0.46574  0.77489  0.85146  1.0000
  H   H2843     1.0  0.39988  0.80972  0.86294  1.0000
  H   H2844     1.0  0.42091  0.81751  0.83203  1.0000
  C   C1675     1.0  0.47981  0.89057  0.76015  1.0000
  C   C1676     1.0  0.48367  0.88194  0.77787  1.0000
  C   C1677     1.0  0.49557  0.88848  0.78500  1.0000
  C   C1678     1.0  0.50358  0.90385  0.77466  1.0000
  C   C1679     1.0  0.49933  0.91284  0.75713  1.0000
  C   C1680     1.0  0.48758  0.90616  0.74989  1.0000
  H   H2845     1.0  0.47788  0.86991  0.78591  1.0000
  H   H2846     1.0  0.49880  0.88136  0.79853  1.0000
  H   H2847     1.0  0.50554  0.92456  0.74892  1.0000
  H   H2848     1.0  0.48473  0.91290  0.73615  1.0000
  C   C1681     1.0  0.39014  0.89001  0.81099  1.0000
  C   C1682     1.0  0.40689  0.89551  0.80145  1.0000
  C   C1683     1.0  0.41183  0.91016  0.80571  1.0000
  C   C1684     1.0  0.39977  0.91988  0.81909  1.0000
  C   C1685     1.0  0.38244  0.91519  0.82796  1.0000
  C   C1686     1.0  0.37765  0.90016  0.82392  1.0000
  H   H2849     1.0  0.41613  0.88845  0.79074  1.0000
  H   H2850     1.0  0.42519  0.91375  0.79877  1.0000
  H   H2851     1.0  0.37298  0.92279  0.83818  1.0000
  H   H2852     1.0  0.36448  0.89617  0.83105  1.0000
  C   C1687     1.0  0.38160  0.80228  0.72202  1.0000
  C   C1688     1.0  0.37818  0.81588  0.73280  1.0000
  C   C1689     1.0  0.39270  0.81901  0.73921  1.0000
  C   C1690     1.0  0.41094  0.80877  0.73461  1.0000
  C   C1691     1.0  0.41435  0.79507  0.72394  1.0000
  C   C1692     1.0  0.39975  0.79172  0.71780  1.0000
  H   H2853     1.0  0.36418  0.82413  0.73615  1.0000
  H   H2854     1.0  0.38985  0.82965  0.74733  1.0000
  H   H2855     1.0  0.42842  0.78713  0.72023  1.0000
  H   H2856     1.0  0.40262  0.78131  0.70943  1.0000
  N   N120      1.0  0.45620  0.85885  0.69800  1.0000
  H   H2857     1.0  0.38917  0.76385  0.86585  1.0000
  H   H2858     1.0  0.44878  0.93150  0.81199  1.0000
  H   H2859     1.0  0.60296  0.84714  0.96387  1.0000
  H   H2860     1.0  0.63868  0.95781  0.80918  1.0000
  C   C1693     1.0  0.44393  0.95888  0.78316  1.0000
  C   C1694     1.0  0.47617  0.97597  0.76385  1.0000
  N   N121      1.0  0.45980  0.95501  0.79304  1.0000
  Fe  Fe237     1.0  0.32684  0.76604  0.69202  1.0000
  H   H2861     1.0  0.36616  0.87547  0.96220  1.0000
  N   N122      1.0  0.63411  0.85695  0.93380  1.0000
  H   H2862     1.0  0.50992  0.93400  0.85434  1.0000
  H   H2863     1.0  0.32421  0.73592  0.64742  1.0000
  S   S486      1.0  0.52834  0.96456  0.75937  1.0000
  H   H2864     1.0  0.44815  0.76457  0.82592  1.0000
  H   H2865     1.0  0.46162  0.94290  0.76139  1.0000
  H   H2866     1.0  0.63968  0.88439  0.97626  1.0000
  H   H2867     1.0  0.40846  0.78716  0.95095  1.0000
  C   C1695     1.0  0.51990  0.94192  0.85531  1.0000
  N   N123      1.0  0.44460  0.79453  0.93563  1.0000
  H   H2868     1.0  0.46729  0.92522  0.79355  1.0000
  C   C1696     1.0  0.47779  0.95798  0.77934  1.0000
  H   H2869     1.0  0.48449  0.94589  0.77240  1.0000
  C   C1697     1.0  0.63102  0.84206  0.92577  1.0000
  H   H2870     1.0  0.40823  0.79732  0.92664  1.0000
  C   C1698     1.0  0.41211  0.75966  0.84191  1.0000
  H   H2871     1.0  0.33234  0.74945  0.78460  1.0000
  C   C1699     1.0  0.43325  0.77184  0.80352  1.0000
  H   H2872     1.0  0.62801  0.94072  0.78543  1.0000
  H   H2873     1.0  0.52494  0.94884  0.87918  1.0000
  C   C1700     1.0  0.49088  0.97656  0.85523  1.0000
  N   N124      1.0  0.42880  0.74596  0.83360  1.0000
  C   C1701     1.0  0.37618  0.73951  0.62613  1.0000
  H   H2874     1.0  0.49227  0.82976  0.67275  1.0000
  C   C1702     1.0  0.44190  0.75711  0.81909  1.0000
  H   H2875     1.0  0.35723  0.75761  0.79304  1.0000
  H   H2876     1.0  0.53292  0.93124  0.85703  1.0000
  H   H2877     1.0  0.45808  0.81929  0.90423  1.0000
  H   H2878     1.0  0.41172  0.84786  0.71050  1.0000
  N   N125      1.0  0.40130  0.86334  0.87153  1.0000
  C   C1703     1.0  0.41918  0.84939  0.86659  1.0000
  C   C1704     1.0  0.39622  0.86139  0.89249  1.0000
  C   C1705     1.0  0.40359  0.88313  0.86252  1.0000
  C   C1706     1.0  0.38623  0.85943  0.86440  1.0000
  C   C1707     1.0  0.42792  0.85118  0.84550  1.0000
  C   C1708     1.0  0.39142  0.84249  0.90398  1.0000
  C   C1709     1.0  0.41973  0.88915  0.86665  1.0000
  C   C1710     1.0  0.36621  0.87051  0.87060  1.0000
  H   H2879     1.0  0.43001  0.85004  0.87370  1.0000
  H   H2880     1.0  0.41689  0.83481  0.87175  1.0000
  H   H2881     1.0  0.38431  0.87284  0.89663  1.0000
  H   H2882     1.0  0.40797  0.86299  0.89770  1.0000
  H   H2883     1.0  0.40556  0.88558  0.84705  1.0000
  H   H2884     1.0  0.39073  0.89344  0.86702  1.0000
  H   H2885     1.0  0.38922  0.86268  0.84881  1.0000
  H   H2886     1.0  0.38589  0.84425  0.86851  1.0000
  H   H2887     1.0  0.43251  0.86461  0.83905  1.0000
  H   H2888     1.0  0.44057  0.83981  0.84360  1.0000
  H   H2889     1.0  0.41827  0.84950  0.83765  1.0000
  H   H2890     1.0  0.40347  0.83059  0.90212  1.0000
  H   H2891     1.0  0.38777  0.84295  0.91910  1.0000
  H   H2892     1.0  0.37920  0.83961  0.90071  1.0000
  H   H2893     1.0  0.41756  0.88932  0.88166  1.0000
  H   H2894     1.0  0.42013  0.90374  0.85873  1.0000
  H   H2895     1.0  0.43356  0.88035  0.86198  1.0000
  H   H2896     1.0  0.36088  0.86677  0.88592  1.0000
  H   H2897     1.0  0.35669  0.86701  0.86374  1.0000
  H   H2898     1.0  0.36510  0.88587  0.86624  1.0000
  Fe  Fe238     1.0  0.36537  0.75733  0.66777  1.0000
  H   H2899     1.0  0.43936  0.95530  0.75710  1.0000
  H   H2900     1.0  0.41626  0.77276  0.84178  1.0000
  H   H2901     1.0  0.62118  0.96759  0.74674  1.0000
  C   C1711     1.0  0.46121  0.85111  0.71703  1.0000
  H   H2902     1.0  0.47815  0.91359  0.82228  1.0000
  H   H2903     1.0  0.46844  0.82845  0.67579  1.0000
  C   C1712     1.0  0.44024  0.85080  0.69723  1.0000
  C   C1713     1.0  0.44685  0.94702  0.76841  1.0000
  C   C1714     1.0  0.64355  0.96980  0.79869  1.0000
  C   C1715     1.0  0.42133  0.85680  0.71021  1.0000
  H   H2904     1.0  0.60679  0.82981  0.94175  1.0000
  H   H2905     1.0  0.57030  0.97675  0.81084  1.0000
  H   H2906     1.0  0.33738  0.76230  0.64193  1.0000
  H   H2907     1.0  0.61024  0.95020  0.85788  1.0000
  C   C1716     1.0  0.64473  0.86959  0.91799  1.0000
  C   C1717     1.0  0.57901  0.97082  0.82100  1.0000
  H   H2908     1.0  0.42246  0.88332  0.95527  1.0000
  H   H2909     1.0  0.37751  0.92279  0.96497  1.0000
  C   C1718     1.0  0.42609  0.80820  0.93799  1.0000
  C   C1719     1.0  0.46690  0.77538  0.91182  1.0000
  H   H2910     1.0  0.47867  0.82369  0.69596  1.0000
  C   C1720     1.0  0.37169  0.77588  0.76994  1.0000
  H   H2911     1.0  0.47655  0.82266  0.91219  1.0000
  C   C1721     1.0  0.40884  0.80014  0.94009  1.0000
  H   H2912     1.0  0.42178  0.97728  0.88956  1.0000
  C   C1722     1.0  0.47815  0.83266  0.68184  1.0000
  S   S487      1.0  0.61545  0.96769  0.89340  1.0000
  H   H2913     1.0  0.43770  0.88408  0.70596  1.0000
  H   H2914     1.0  0.43889  0.95241  0.83117  1.0000
  H   H2915     1.0  0.38695  0.77512  0.76474  1.0000
  H   H2916     1.0  0.44344  0.74341  0.85530  1.0000
  S   S488      1.0  0.58154  0.97374  0.73735  1.0000
  H   H2917     1.0  0.62237  0.89330  0.90905  1.0000
  H   H2918     1.0  0.47116  0.93592  0.82874  1.0000
  H   H2919     1.0  0.49021  0.93167  0.80907  1.0000
  C   C1723     1.0  0.63398  0.96573  0.75215  1.0000
  H   H2920     1.0  0.62736  0.81321  0.93380  1.0000
  H   H2921     1.0  0.35371  0.75208  0.96241  1.0000
  H   H2922     1.0  0.46656  0.88955  0.70832  1.0000
  H   H2923     1.0  0.62824  0.87459  0.89624  1.0000
  H   H2924     1.0  0.48484  0.85839  0.68233  1.0000
  C   C1724     1.0  0.44011  0.78386  0.97174  1.0000
  H   H2925     1.0  0.50848  0.95750  0.90710  1.0000
  H   H2926     1.0  0.49906  0.97500  0.84105  1.0000
  H   H2927     1.0  0.45833  0.83679  0.72304  1.0000
  C   C1725     1.0  0.42100  0.89020  0.96700  1.0000
  S   S489      1.0  0.42377  0.74357  0.93683  1.0000
  H   H2928     1.0  0.46730  0.96697  0.81246  1.0000
  H   H2929     1.0  0.46673  0.76918  0.90012  1.0000
  C   C1726     1.0  0.34523  0.74207  0.96272  1.0000
  S   S490      1.0  0.33787  0.76085  0.71792  1.0000
  C   C1727     1.0  0.44973  0.87990  0.69468  1.0000
  C   C1728     1.0  0.43793  0.96667  0.82220  1.0000
  C   C1729     1.0  0.46405  0.89123  0.69412  1.0000
  H   H2930     1.0  0.36442  0.78347  0.75843  1.0000
  H   H2931     1.0  0.45391  0.74780  0.81171  1.0000
  C   C1730     1.0  0.63381  0.88250  0.90313  1.0000
  C   C1731     1.0  0.61864  0.95491  0.78434  1.0000
  H   H2932     1.0  0.47948  0.96696  0.89262  1.0000
  H   H2933     1.0  0.54126  0.96903  0.84640  1.0000
  C   C1732     1.0  0.60555  0.98105  0.96509  1.0000
  C   C1733     1.0  0.51278  0.95098  0.87265  1.0000
  S   S491      1.0  0.54941  0.97808  0.78539  1.0000
  N   N126      1.0  0.50303  0.97138  0.86946  1.0000
  H   H2934     1.0  0.47366  0.79496  0.93381  1.0000
  H   H2935     1.0  0.46858  0.86129  0.66842  1.0000
  H   H2936     1.0  0.32463  0.76806  0.62369  1.0000
  H   H2937     1.0  0.47970  0.95051  0.86455  1.0000
  Fe  Fe239     1.0  0.64404  0.95064  0.89667  1.0000
  H   H2938     1.0  0.42527  0.79110  0.97509  1.0000
  C   C1734     1.0  0.44714  0.78661  0.91858  1.0000
  C   C1735     1.0  0.60097  0.95348  0.77888  1.0000
  H   H2939     1.0  0.47737  0.88798  0.68404  1.0000
  H   H2940     1.0  0.46776  0.97558  0.75407  1.0000
  Fe  Fe240     1.0  0.55786  0.96440  0.76072  1.0000
  C   C1736     1.0  0.37066  0.74919  0.74812  1.0000
  H   H2941     1.0  0.42393  0.81475  0.95014  1.0000
  C   C1737     1.0  0.62228  0.82612  0.93963  1.0000
  H   H2942     1.0  0.61766  0.88278  0.94191  1.0000
  H   H2943     1.0  0.47158  0.76354  0.92293  1.0000
  H   H2944     1.0  0.60443  0.94723  0.76635  1.0000
  H   H2945     1.0  0.45806  0.90638  0.68961  1.0000
  H   H2946     1.0  0.45990  0.76972  0.95142  1.0000
  H   H2947     1.0  0.32730  0.97767  0.61531  1.0000
  H   H2948     1.0  0.44462  0.88531  0.68134  1.0000
  C   C1738     1.0  0.47502  0.96580  0.85978  1.0000
  H   H2949     1.0  0.48677  0.86259  0.71177  1.0000
  H   H2950     1.0  0.44145  0.93400  0.77488  1.0000
  H   H2951     1.0  0.61356  0.86126  0.97226  1.0000
  H   H2952     1.0  0.64885  0.97328  0.72351  1.0000
  C   C1739     1.0  0.60570  0.86123  0.96182  1.0000
  H   H2953     1.0  0.35072  0.90767  0.94855  1.0000
  H   H2954     1.0  0.38078  0.74755  0.78378  1.0000
  H   H2955     1.0  0.44931  0.79231  0.97321  1.0000
  C   C1740     1.0  0.40081  0.88612  0.92479  1.0000
  H   H2956     1.0  0.48841  0.95858  0.78675  1.0000
  H   H2957     1.0  0.46312  0.97126  0.87045  1.0000
  H   H2958     1.0  0.64347  0.89032  0.89202  1.0000
  C   C1741     1.0  0.63372  0.89554  0.96585  1.0000
  C   C1742     1.0  0.42286  0.73421  0.82385  1.0000
  C   C1743     1.0  0.46234  0.93489  0.80353  1.0000
  H   H2959     1.0  0.43744  0.77704  0.92126  1.0000
  H   H2960     1.0  0.39785  0.74791  0.72921  1.0000
  S   S492      1.0  0.40350  0.85330  0.95131  1.0000
  C   C1744     1.0  0.61836  0.92425  0.93868  1.0000
  C   C1745     1.0  0.33242  0.77359  0.76283  1.0000
  C   C1746     1.0  0.63725  0.91557  0.93465  1.0000
  H   H2961     1.0  0.45283  0.83457  0.92038  1.0000
  C   C1747     1.0  0.47219  0.85376  0.68221  1.0000
  C   C1748     1.0  0.64498  0.90144  0.94837  1.0000
  H   H2962     1.0  0.44307  0.79769  0.90654  1.0000
  S   S493      1.0  0.38009  0.75174  0.69160  1.0000
  C   C1749     1.0  0.64652  0.96729  0.77846  1.0000
  H   H2963     1.0  0.48886  0.97348  0.91714  1.0000
  H   H2964     1.0  0.33535  0.74468  0.76211  1.0000
  H   H2965     1.0  0.60555  0.87165  0.93249  1.0000
  C   C1750     1.0  0.47628  0.92895  0.81664  1.0000
  H   H2966     1.0  0.36730  0.78494  0.78041  1.0000
  H   H2967     1.0  0.48277  0.84602  0.73301  1.0000
  H   H2968     1.0  0.41496  0.88031  0.91839  1.0000
  H   H2969     1.0  0.42576  0.82019  0.92575  1.0000
  H   H2970     1.0  0.50312  0.94236  0.88278  1.0000
  H   H2971     1.0  0.44367  0.83518  0.70104  1.0000
  C   C1751     1.0  0.45979  0.80473  0.93369  1.0000
  H   H2972     1.0  0.52338  0.95171  0.84190  1.0000
  C   C1752     1.0  0.60148  0.95601  0.84766  1.0000
  H   H2973     1.0  0.61230  0.93507  0.92811  1.0000
  C   C1753     1.0  0.46173  0.82126  0.91668  1.0000
  H   H2974     1.0  0.34116  0.74589  0.94892  1.0000
  C   C1754     1.0  0.64581  0.84890  0.94853  1.0000
  H   H2975     1.0  0.59227  0.92438  0.95882  1.0000
  H   H2976     1.0  0.64415  0.83553  0.91697  1.0000
  H   H2977     1.0  0.57887  0.96550  0.96042  1.0000
  H   H2978     1.0  0.49136  0.83798  0.71167  1.0000
  H   H2979     1.0  0.39915  0.91228  0.90423  1.0000
  C   C1755     1.0  0.48287  0.73855  0.97670  1.0000
  C   C1756     1.0  0.48168  0.84948  0.71810  1.0000
  H   H2980     1.0  0.39598  0.81061  0.94418  1.0000
  H   H2981     1.0  0.42909  0.76527  0.79423  1.0000
  C   C1757     1.0  0.40226  0.75337  0.86248  1.0000
  H   H2982     1.0  0.39862  0.93156  0.95442  1.0000
  N   N127      1.0  0.62892  0.96969  0.77159  1.0000
  C   C1758     1.0  0.45520  0.96836  0.80610  1.0000
  H   H2983     1.0  0.62632  0.82201  0.95336  1.0000
  H   H2984     1.0  0.42121  0.78225  0.80917  1.0000
  C   C1759     1.0  0.44550  0.77848  0.95242  1.0000
  H   H2985     1.0  0.36774  0.76402  0.74077  1.0000
  H   H2986     1.0  0.44476  0.76719  0.88231  1.0000
  H   H2987     1.0  0.45218  0.85970  0.72723  1.0000
  H   H2988     1.0  0.41415  0.74325  0.81378  1.0000
  Fe  Fe241     1.0  0.41411  0.75119  0.90987  1.0000
  H   H2989     1.0  0.47730  0.78445  0.90635  1.0000
  C   C1760     1.0  0.60704  0.91817  0.95604  1.0000
  C   C1761     1.0  0.64628  0.97789  0.73691  1.0000
  H   H2990     1.0  0.44395  0.77983  0.79457  1.0000
  Fe  Fe242     1.0  0.39213  0.98288  0.86375  1.0000
  H   H2991     1.0  0.46949  0.96812  0.84696  1.0000
  H   H2992     1.0  0.44110  0.97904  0.91082  1.0000
  H   H2993     1.0  0.45734  0.81088  0.94617  1.0000
  H   H2994     1.0  0.60477  0.98068  0.95082  1.0000
  S   S494      1.0  0.34442  0.73982  0.68317  1.0000
  Fe  Fe243     1.0  0.35424  0.98242  0.85684  1.0000
  H   H2995     1.0  0.33369  0.78214  0.77210  1.0000
  H   H2996     1.0  0.63358  0.98297  0.80113  1.0000
  S   S495      1.0  0.38065  0.75421  0.63843  1.0000
  H   H2997     1.0  0.38995  0.75760  0.96586  1.0000
  H   H2998     1.0  0.42482  0.97088  0.81688  1.0000
  H   H2999     1.0  0.64130  0.95081  0.75243  1.0000
  H   H3000     1.0  0.41107  0.75301  0.87218  1.0000
  C   C1762     1.0  0.49990  0.97188  0.90432  1.0000
  Fe  Fe244     1.0  0.52043  0.97615  0.78548  1.0000
  C   C1763     1.0  0.60154  0.97412  0.83688  1.0000
  C   C1764     1.0  0.49039  0.97550  0.88763  1.0000
  H   H3001     1.0  0.49027  0.97721  0.75529  1.0000
  H   H3002     1.0  0.43212  0.88196  0.97472  1.0000
  H   H3003     1.0  0.65011  0.87891  0.92353  1.0000
  Fe  Fe245     1.0  0.62958  0.97831  0.86390  1.0000
  S   S496      1.0  0.65236  0.97241  0.90609  1.0000
  H   H3004     1.0  0.43674  0.97642  0.83136  1.0000
  C   C1765     1.0  0.38517  0.74046  0.60733  1.0000
  S   S497      1.0  0.65079  0.92056  0.91194  1.0000
  N   N128      1.0  0.36092  0.74638  0.76850  1.0000
  C   C1766     1.0  0.34007  0.75259  0.76985  1.0000
  C   C1767     1.0  0.36755  0.75621  0.77968  1.0000
  H   H3005     1.0  0.33891  0.77897  0.74813  1.0000
  H   H3006     1.0  0.64808  0.86041  0.95374  1.0000
  C   C1768     1.0  0.57091  0.96274  0.97499  1.0000
  H   H3007     1.0  0.55848  0.95774  0.97477  1.0000
  H   H3008     1.0  0.43997  0.97401  0.77670  1.0000
  H   H3009     1.0  0.37901  0.94513  0.96692  1.0000
  C   C1769     1.0  0.38705  0.93052  0.96697  1.0000
  C   C1770     1.0  0.39210  0.74239  0.74419  1.0000
  C   C1771     1.0  0.59013  0.98155  0.82374  1.0000
  H   H3010     1.0  0.52542  0.98125  0.87424  1.0000
  H   H3011     1.0  0.39884  0.74741  0.75267  1.0000
  H   H3012     1.0  0.60498  0.96718  0.97456  1.0000
  H   H3013     1.0  0.36524  0.74169  0.74056  1.0000
  H   H3014     1.0  0.50839  0.98234  0.90248  1.0000
  C   C1772     1.0  0.32740  0.74306  0.97837  1.0000
  C   C1773     1.0  0.53122  0.98269  0.84510  1.0000
  Fe  Fe246     1.0  0.35744  0.73616  0.70742  1.0000
  S   S498      1.0  0.38229  0.98366  0.83814  1.0000
  C   C1774     1.0  0.49785  0.73564  0.96162  1.0000
  C   C1775     1.0  0.46574  0.73463  0.97691  1.0000
  H   H3015     1.0  0.61966  0.98355  0.96383  1.0000
  C   C1776     1.0  0.32188  0.98366  0.62810  1.0000
  C   C1777     1.0  0.43930  0.73416  0.84853  1.0000
  C   C1778     1.0  0.79192  0.02265  0.33526  1.0000
  S   S499      1.0  0.75790  0.09637  0.30552  1.0000
  S   S500      1.0  0.90717  0.19234  0.05165  1.0000
  C   C1779     1.0  0.85089  0.19235  0.03073  1.0000
  C   C1780     1.0  0.88692  0.99878  0.45448  1.0000
  H   H3016     1.0  0.67294  0.03835  0.15468  1.0000
  C   C1781     1.0  0.74761  0.05366  0.26380  1.0000
  Fe  Fe247     1.0  0.96348  0.06013  0.42129  1.0000
  S   S501      1.0  0.95073  0.03589  0.42408  1.0000
  S   S502      1.0  0.95538  0.08412  0.39785  1.0000
  Fe  Fe248     1.0  0.94578  0.03445  0.45479  1.0000
  H   H3017     1.0  0.65949  0.05781  0.26045  1.0000
  C   C1782     1.0  0.72727  0.19537  0.07785  1.0000
  H   H3018     1.0  0.89659  0.19503  0.14226  1.0000
  S   S503      1.0  0.95657  0.06007  0.45218  1.0000
  H   H3019     1.0  0.90714  0.21209  0.08212  1.0000
  Fe  Fe249     1.0  0.82943  0.12155  0.34204  1.0000
  S   S504      1.0  0.84563  0.12197  0.31264  1.0000
  S   S505      1.0  0.79792  0.13001  0.34849  1.0000
  Fe  Fe250     1.0  0.86448  0.10610  0.35869  1.0000
  S   S506      1.0  0.88349  0.10523  0.33051  1.0000
  S   S507      1.0  0.87302  0.09325  0.38668  1.0000
  Fe  Fe251     1.0  0.86575  0.13345  0.32096  1.0000
  S   S508      1.0  0.87851  0.15558  0.29872  1.0000
  Fe  Fe252     1.0  0.86175  0.09391  0.32449  1.0000
  S   S509      1.0  0.86958  0.06821  0.31226  1.0000
  S   S510      1.0  0.84828  0.13548  0.34976  1.0000
  S   S511      1.0  0.84399  0.09247  0.35334  1.0000
  S   S512      1.0  0.81986  0.02969  0.22954  1.0000
  S   S513      1.0  0.86631  0.01859  0.19342  1.0000
  Fe  Fe253     1.0  0.82822  0.03694  0.25249  1.0000
  S   S514      1.0  0.81891  0.06550  0.25928  1.0000
  Fe  Fe254     1.0  0.82106  0.15433  0.11947  1.0000
  S   S515      1.0  0.84050  0.13247  0.13596  1.0000
  S   S516      1.0  0.82673  0.18114  0.09889  1.0000
  Fe  Fe255     1.0  0.78683  0.13784  0.14181  1.0000
  S   S517      1.0  0.80327  0.11483  0.16025  1.0000
  S   S518      1.0  0.75534  0.14303  0.14845  1.0000
  Fe  Fe256     1.0  0.81764  0.13672  0.16116  1.0000
  S   S519      1.0  0.82262  0.13878  0.18843  1.0000
  Fe  Fe257     1.0  0.82457  0.11223  0.13374  1.0000
  S   S520      1.0  0.83942  0.08383  0.12775  1.0000
  S   S521      1.0  0.79938  0.16012  0.14510  1.0000
  S   S522      1.0  0.80693  0.13368  0.11485  1.0000
  S   S523      1.0  0.71845  0.21568  0.23454  1.0000
  C   C1783     1.0  0.83173  0.19357  0.28843  1.0000
  H   H3020     1.0  0.77827  0.02181  0.33300  1.0000
  H   H3021     1.0  0.78378  0.05395  0.28528  1.0000
  H   H3022     1.0  0.95963  0.02957  0.35122  1.0000
  S   S524      1.0  0.86475  0.20483  0.17134  1.0000
  H   H3023     1.0  0.78844  0.20835  0.18626  1.0000
  H   H3024     1.0  0.87284  0.05185  0.45221  1.0000
  H   H3025     1.0  0.77575  0.19748  0.20793  1.0000
  C   C1784     1.0  0.78237  0.07026  0.21838  1.0000
  H   H3026     1.0  0.77558  0.15014  0.30333  1.0000
  C   C1785     1.0  0.83436  0.15704  0.18387  1.0000
  C   C1786     1.0  0.83912  0.16165  0.19849  1.0000
  C   C1787     1.0  0.84839  0.17644  0.19473  1.0000
  C   C1788     1.0  0.85316  0.18636  0.17631  1.0000
  C   C1789     1.0  0.84832  0.18173  0.16178  1.0000
  C   C1790     1.0  0.83888  0.16716  0.16556  1.0000
  H   H3027     1.0  0.83570  0.15378  0.21264  1.0000
  H   H3028     1.0  0.85206  0.18004  0.20601  1.0000
  H   H3029     1.0  0.75907  0.08429  0.26967  1.0000
  H   H3030     1.0  0.85135  0.18971  0.14767  1.0000
  C   C1791     1.0  0.74423  0.13089  0.13931  1.0000
  C   C1792     1.0  0.75411  0.12057  0.12561  1.0000
  C   C1793     1.0  0.74467  0.11128  0.11845  1.0000
  C   C1794     1.0  0.72538  0.11235  0.12487  1.0000
  C   C1795     1.0  0.71547  0.12304  0.13825  1.0000
  C   C1796     1.0  0.72491  0.13223  0.14547  1.0000
  H   H3031     1.0  0.76898  0.11970  0.12057  1.0000
  H   H3032     1.0  0.75228  0.10330  0.10782  1.0000
  H   H3033     1.0  0.70062  0.12390  0.14332  1.0000
  H   H3034     1.0  0.71729  0.14035  0.15593  1.0000
  C   C1797     1.0  0.85750  0.03648  0.17567  1.0000
  C   C1798     1.0  0.84161  0.05053  0.17960  1.0000
  C   C1799     1.0  0.83576  0.06514  0.16502  1.0000
  C   C1800     1.0  0.84570  0.06561  0.14648  1.0000
  C   C1801     1.0  0.86119  0.05126  0.14259  1.0000
  C   C1802     1.0  0.86716  0.03690  0.15712  1.0000
  H   H3035     1.0  0.83410  0.05041  0.19385  1.0000
  H   H3036     1.0  0.82366  0.07603  0.16815  1.0000
  H   H3037     1.0  0.86887  0.05143  0.12831  1.0000
  H   H3038     1.0  0.87940  0.02609  0.15394  1.0000
  C   C1803     1.0  0.77697  0.99800  0.24032  1.0000
  C   C1804     1.0  0.83314  0.06653  0.27372  1.0000
  C   C1805     1.0  0.84497  0.05024  0.28117  1.0000
  C   C1806     1.0  0.85632  0.05098  0.29272  1.0000
  C   C1807     1.0  0.85578  0.06798  0.29706  1.0000
  C   C1808     1.0  0.84391  0.08430  0.28963  1.0000
  C   C1809     1.0  0.83254  0.08355  0.27805  1.0000
  H   H3039     1.0  0.84513  0.03689  0.27848  1.0000
  H   H3040     1.0  0.86537  0.03827  0.29849  1.0000
  H   H3041     1.0  0.84345  0.09746  0.29280  1.0000
  H   H3042     1.0  0.82327  0.09611  0.27253  1.0000
  C   C1810     1.0  0.86214  0.17261  0.28732  1.0000
  C   C1811     1.0  0.84420  0.17888  0.29731  1.0000
  H   H3043     1.0  0.95368  0.02006  0.37557  1.0000
  H   H3044     1.0  0.76075  0.05492  0.18257  1.0000
  C   C1812     1.0  0.85457  0.19487  0.25920  1.0000
  C   C1813     1.0  0.86728  0.18054  0.26824  1.0000
  H   H3045     1.0  0.84018  0.17280  0.31205  1.0000
  C   C1814     1.0  0.75209  0.01507  0.21601  1.0000
  H   H3046     1.0  0.85861  0.20092  0.24448  1.0000
  H   H3047     1.0  0.88113  0.17556  0.26047  1.0000
  C   C1815     1.0  0.78662  0.12076  0.33661  1.0000
  C   C1816     1.0  0.76710  0.12292  0.34135  1.0000
  C   C1817     1.0  0.75793  0.11573  0.33179  1.0000
  C   C1818     1.0  0.76830  0.10665  0.31726  1.0000
  C   C1819     1.0  0.78771  0.10491  0.31227  1.0000
  C   C1820     1.0  0.79687  0.11169  0.32206  1.0000
  H   H3048     1.0  0.75910  0.12999  0.35257  1.0000
  C   C1821     1.0  0.75160  0.22637  0.22840  1.0000
  H   H3049     1.0  0.79575  0.09801  0.30097  1.0000
  H   H3050     1.0  0.81188  0.10982  0.31837  1.0000
  C   C1822     1.0  0.93250  0.08673  0.39466  1.0000
  C   C1823     1.0  0.92769  0.09628  0.37741  1.0000
  C   C1824     1.0  0.90954  0.09829  0.37467  1.0000
  C   C1825     1.0  0.89602  0.09100  0.38930  1.0000
  C   C1826     1.0  0.90085  0.08147  0.40653  1.0000
  C   C1827     1.0  0.91902  0.07925  0.40917  1.0000
  H   H3051     1.0  0.93803  0.10213  0.36614  1.0000
  H   H3052     1.0  0.90595  0.10571  0.36136  1.0000
  H   H3053     1.0  0.89054  0.07582  0.41793  1.0000
  H   H3054     1.0  0.92248  0.07210  0.42259  1.0000
  N   N129      1.0  0.92989  0.03625  0.36334  1.0000
  H   H3055     1.0  0.86575  0.19008  0.03142  1.0000
  H   H3056     1.0  0.73387  0.18548  0.06823  1.0000
  H   H3057     1.0  0.78343  0.05765  0.12403  1.0000
  H   H3058     1.0  0.80547  0.07045  0.34313  1.0000
  H   H3059     1.0  0.67403  0.16131  0.29046  1.0000
  H   H3060     1.0  0.82313  0.07160  0.46776  1.0000
  H   H3061     1.0  0.71117  0.19478  0.28070  1.0000
  H   H3062     1.0  0.94029  0.21255  0.07937  1.0000
  H   H3063     1.0  0.68027  0.15925  0.13357  1.0000
  H   H3064     1.0  0.74333  0.02867  0.25711  1.0000
  C   C1828     1.0  0.88807  0.17139  0.12401  1.0000
  C   C1829     1.0  0.90750  0.02040  0.44807  1.0000
  C   C1830     1.0  0.75903  0.09233  0.25515  1.0000
  H   H3065     1.0  0.86356  0.03393  0.43571  1.0000
  H   H3066     1.0  0.91516  0.03025  0.43820  1.0000
  H   H3067     1.0  0.70537  0.04610  0.29206  1.0000
  H   H3068     1.0  0.83675  0.07098  0.42303  1.0000
  H   H3069     1.0  0.77324  0.17536  0.29841  1.0000
  C   C1831     1.0  0.88485  0.18950  0.06513  1.0000
  C   C1832     1.0  0.88182  0.17134  0.07353  1.0000
  C   C1833     1.0  0.86423  0.16856  0.08443  1.0000
  C   C1834     1.0  0.84945  0.18395  0.08674  1.0000
  C   C1835     1.0  0.85253  0.20212  0.07848  1.0000
  C   C1836     1.0  0.87019  0.20491  0.06781  1.0000
  H   H3070     1.0  0.89312  0.15935  0.07158  1.0000
  H   H3071     1.0  0.86199  0.15451  0.09067  1.0000
  H   H3072     1.0  0.87853  0.20685  0.99037  1.0000
  H   H3073     1.0  0.89529  0.21983  0.98899  1.0000
  S   S525      1.0  0.67643  0.09624  0.31181  1.0000
  Fe  Fe258     1.0  0.84986  0.01506  0.22313  1.0000
  N   N130      1.0  0.75903  0.17754  0.19105  1.0000
  C   C1837     1.0  0.76920  0.19350  0.18249  1.0000
  C   C1838     1.0  0.74988  0.17553  0.17645  1.0000
  C   C1839     1.0  0.77327  0.15987  0.19622  1.0000
  C   C1840     1.0  0.74479  0.18240  0.20809  1.0000
  C   C1841     1.0  0.78275  0.19559  0.19355  1.0000
  C   C1842     1.0  0.73574  0.19286  0.16891  1.0000
  C   C1843     1.0  0.68751  0.01220  0.32595  1.0000
  S   S526      1.0  0.94261  0.22589  0.03744  1.0000
  H   H3074     1.0  0.77760  0.19212  0.16821  1.0000
  H   H3075     1.0  0.75915  0.20721  0.18058  1.0000
  H   H3076     1.0  0.74230  0.16386  0.18163  1.0000
  H   H3077     1.0  0.76073  0.17182  0.16413  1.0000
  H   H3078     1.0  0.78683  0.16027  0.18607  1.0000
  S   S527      1.0  0.66510  0.22935  0.23921  1.0000
  C   C1844     1.0  0.81589  0.06249  0.33316  1.0000
  C   C1845     1.0  0.79630  0.05007  0.30901  1.0000
  Fe  Fe259     1.0  0.65639  0.11844  0.08972  1.0000
  H   H3079     1.0  0.79497  0.18366  0.19408  1.0000
  S   S528      1.0  0.82120  0.01163  0.27341  1.0000
  H   H3080     1.0  0.74224  0.20504  0.16157  1.0000
  H   H3081     1.0  0.73018  0.18931  0.15840  1.0000
  H   H3082     1.0  0.72356  0.19683  0.18004  1.0000
  H   H3083     1.0  0.91630  0.17425  0.11154  1.0000
  C   C1846     1.0  0.72023  0.15580  0.09109  1.0000
  C   C1847     1.0  0.76793  0.06345  0.16966  1.0000
  H   H3084     1.0  0.82132  0.03873  0.43782  1.0000
  C   C1848     1.0  0.79529  0.02836  0.15820  1.0000
  C   C1849     1.0  0.74617  0.00388  0.23344  1.0000
  H   H3085     1.0  0.76255  0.06108  0.36671  1.0000
  C   C1850     1.0  0.78168  0.04663  0.30023  1.0000
  H   H3086     1.0  0.66479  0.11812  0.45174  1.0000
  H   H3087     1.0  0.73187  0.00226  0.23796  1.0000
  H   H3088     1.0  0.69567  0.17014  0.15270  1.0000
  H   H3089     1.0  0.81622  0.07081  0.31872  1.0000
  H   H3090     1.0  0.87138  0.20814  0.12779  1.0000
  Fe  Fe260     1.0  0.97895  0.01829  0.42671  1.0000
  H   H3091     1.0  0.89138  0.99507  0.38365  1.0000
  C   C1851     1.0  0.88502  0.21191  0.99897  1.0000
  H   H3092     1.0  0.66764  0.18303  0.27490  1.0000
  Fe  Fe261     1.0  0.68697  0.00201  0.25159  1.0000
  H   H3093     1.0  0.66523  0.06645  0.19320  1.0000
  H   H3094     1.0  0.74292  0.11706  0.33576  1.0000
  H   H3095     1.0  0.71940  0.16139  0.07617  1.0000
  H   H3096     1.0  0.78661  0.05093  0.36650  1.0000
  H   H3097     1.0  0.87239  0.21895  0.06156  1.0000
  H   H3098     1.0  0.75374  0.16813  0.08798  1.0000
  H   H3099     1.0  0.91176  0.23041  0.12139  1.0000
  H   H3100     1.0  0.93066  0.98933  0.40661  1.0000
  C   C1852     1.0  0.66215  0.13277  0.44371  1.0000
  C   C1853     1.0  0.87958  0.21216  0.11336  1.0000
  H   H3101     1.0  0.88798  0.17076  0.13882  1.0000
  S   S529      1.0  0.69638  0.11198  0.25766  1.0000
  C   C1854     1.0  0.73675  0.22648  0.22062  1.0000
  C   C1855     1.0  0.74582  0.17392  0.10059  1.0000
  C   C1856     1.0  0.81638  0.04423  0.47484  1.0000
  H   H3102     1.0  0.90668  0.21940  0.24148  1.0000
  H   H3103     1.0  0.75179  0.21947  0.24282  1.0000
  C   C1857     1.0  0.90692  0.22014  0.13396  1.0000
  H   H3104     1.0  0.93892  0.20339  0.10377  1.0000
  S   S530      1.0  0.68361  0.02652  0.20045  1.0000
  H   H3105     1.0  0.90090  0.18252  0.09579  1.0000
  H   H3106     1.0  0.68797  0.13988  0.22543  1.0000
  H   H3107     1.0  0.84116  0.21407  0.08033  1.0000
  H   H3108     1.0  0.73279  0.08882  0.25275  1.0000
  H   H3109     1.0  0.93353  0.99853  0.34297  1.0000
  C   C1858     1.0  0.73824  0.21122  0.07077  1.0000
  C   C1859     1.0  0.83640  0.03451  0.43183  1.0000
  S   S531      1.0  0.70516  0.98978  0.22710  1.0000
  H   H3110     1.0  0.86104  0.06607  0.42249  1.0000
  S   S532      1.0  0.79165  0.98885  0.25646  1.0000
  H   H3111     1.0  0.84893  0.17921  0.02828  1.0000
  C   C1860     1.0  0.83691  0.20165  0.26943  1.0000
  C   C1861     1.0  0.67672  0.13829  0.19020  1.0000
  N   N131      1.0  0.67657  0.18547  0.29897  1.0000
  H   H3112     1.0  0.87339  0.20747  0.10403  1.0000
  C   C1862     1.0  0.68962  0.17373  0.31167  1.0000
  H   H3113     1.0  0.66555  0.12768  0.28461  1.0000
  C   C1863     1.0  0.68024  0.20495  0.29058  1.0000
  H   H3114     1.0  0.70839  0.16411  0.27713  1.0000
  C   C1864     1.0  0.68845  0.18118  0.32915  1.0000
  Fe  Fe262     1.0  0.66660  0.03488  0.22718  1.0000
  S   S533      1.0  0.91989  0.02819  0.47567  1.0000
  H   H3115     1.0  0.93507  0.98568  0.46793  1.0000
  H   H3116     1.0  0.70442  0.17167  0.30419  1.0000
  H   H3117     1.0  0.68695  0.15927  0.31677  1.0000
  H   H3118     1.0  0.70477  0.21052  0.29684  1.0000
  C   C1865     1.0  0.84892  0.03668  0.44386  1.0000
  H   H3119     1.0  0.80154  0.99858  0.32165  1.0000
  S   S534      1.0  0.65625  0.17056  0.40679  1.0000
  H   H3120     1.0  0.94146  0.01994  0.33193  1.0000
  S   S535      1.0  0.69145  0.03107  0.23931  1.0000
  C   C1866     1.0  0.67301  0.14690  0.38246  1.0000
  H   H3121     1.0  0.70056  0.17333  0.33567  1.0000
  H   H3122     1.0  0.80577  0.04030  0.46978  1.0000
  H   H3123     1.0  0.67575  0.17871  0.33995  1.0000
  H   H3124     1.0  0.84374  0.22231  0.31178  1.0000
  H   H3125     1.0  0.77285  0.17446  0.10496  1.0000
  C   C1867     1.0  0.69667  0.17184  0.27013  1.0000
  N   N132      1.0  0.80309  0.15844  0.27011  1.0000
  C   C1868     1.0  0.80086  0.13909  0.27054  1.0000
  C   C1869     1.0  0.80204  0.15970  0.28995  1.0000
  C   C1870     1.0  0.82159  0.16215  0.25819  1.0000
  C   C1871     1.0  0.78780  0.17271  0.26179  1.0000
  C   C1872     1.0  0.80423  0.13391  0.25133  1.0000
  C   C1873     1.0  0.83902  0.14831  0.26407  1.0000
  C   C1874     1.0  0.78733  0.19344  0.26114  1.0000
  H   H3126     1.0  0.81030  0.12811  0.27879  1.0000
  H   H3127     1.0  0.78653  0.13715  0.27803  1.0000
  H   H3128     1.0  0.80789  0.17153  0.29032  1.0000
  H   H3129     1.0  0.81102  0.14711  0.29711  1.0000
  H   H3130     1.0  0.82238  0.16261  0.24320  1.0000
  H   H3131     1.0  0.82315  0.17632  0.25831  1.0000
  H   H3132     1.0  0.78912  0.17194  0.24701  1.0000
  H   H3133     1.0  0.77375  0.16965  0.26887  1.0000
  H   H3134     1.0  0.80173  0.11956  0.25366  1.0000
  H   H3135     1.0  0.79450  0.14333  0.24254  1.0000
  H   H3136     1.0  0.81886  0.13354  0.24351  1.0000
  H   H3137     1.0  0.83924  0.13361  0.26407  1.0000
  H   H3138     1.0  0.84030  0.14933  0.27800  1.0000
  H   H3139     1.0  0.85171  0.15211  0.25397  1.0000
  H   H3140     1.0  0.79487  0.20006  0.24727  1.0000
  H   H3141     1.0  0.79352  0.19536  0.27200  1.0000
  C   C1875     1.0  0.70087  0.20692  0.28529  1.0000
  N   N133      1.0  0.86915  0.08244  0.20201  1.0000
  C   C1876     1.0  0.87828  0.06211  0.20184  1.0000
  C   C1877     1.0  0.85691  0.08892  0.18776  1.0000
  C   C1878     1.0  0.85739  0.08334  0.22144  1.0000
  C   C1879     1.0  0.88435  0.09333  0.19742  1.0000
  C   C1880     1.0  0.89073  0.05221  0.21628  1.0000
  C   C1881     1.0  0.86714  0.08904  0.16720  1.0000
  C   C1882     1.0  0.84105  0.10039  0.22335  1.0000
  C   C1883     1.0  0.87831  0.11489  0.19438  1.0000
  H   H3142     1.0  0.86749  0.05372  0.20422  1.0000
  H   H3143     1.0  0.88740  0.06042  0.18798  1.0000
  H   H3144     1.0  0.84851  0.10328  0.18790  1.0000
  H   H3145     1.0  0.84630  0.08014  0.19138  1.0000
  H   H3146     1.0  0.85089  0.07084  0.22738  1.0000
  H   H3147     1.0  0.86620  0.08281  0.23131  1.0000
  H   H3148     1.0  0.89223  0.08903  0.20888  1.0000
  H   H3149     1.0  0.89526  0.08975  0.18504  1.0000
  H   H3150     1.0  0.90356  0.05785  0.21303  1.0000
  H   H3151     1.0  0.88320  0.05282  0.23088  1.0000
  H   H3152     1.0  0.89538  0.03712  0.21563  1.0000
  H   H3153     1.0  0.87772  0.09789  0.16245  1.0000
  H   H3154     1.0  0.87356  0.07473  0.16465  1.0000
  H   H3155     1.0  0.85676  0.09514  0.15811  1.0000
  H   H3156     1.0  0.82947  0.09950  0.21742  1.0000
  H   H3157     1.0  0.84525  0.11394  0.21694  1.0000
  H   H3158     1.0  0.83525  0.10029  0.23843  1.0000
  H   H3159     1.0  0.87504  0.11955  0.20784  1.0000
  H   H3160     1.0  0.86638  0.12097  0.18734  1.0000
  H   H3161     1.0  0.88992  0.12123  0.18482  1.0000
  C   C1884     1.0  0.65689  0.18708  0.31063  1.0000
  C   C1885     1.0  0.76905  0.14098  0.19623  1.0000
  H   H3162     1.0  0.75256  0.10714  0.25613  1.0000
  C   C1886     1.0  0.66494  0.08276  0.26386  1.0000
  H   H3163     1.0  0.73441  0.14735  0.09219  1.0000
  H   H3164     1.0  0.89315  0.22656  0.14181  1.0000
  C   C1887     1.0  0.90690  0.01748  0.46725  1.0000
  H   H3165     1.0  0.67333  0.15068  0.19658  1.0000
  C   C1888     1.0  0.87149  0.22445  0.01224  1.0000
  H   H3166     1.0  0.68844  0.20441  0.11059  1.0000
  H   H3167     1.0  0.85765  0.09194  0.43726  1.0000
  H   H3168     1.0  0.95168  0.00058  0.41901  1.0000
  H   H3169     1.0  0.72809  0.20719  0.11084  1.0000
  H   H3170     1.0  0.81808  0.19881  0.29640  1.0000
  H   H3171     1.0  0.78366  0.16083  0.31722  1.0000
  H   H3172     1.0  0.68621  0.12776  0.36369  1.0000
  H   H3173     1.0  0.71221  0.16434  0.11749  1.0000
  H   H3174     1.0  0.72461  0.16527  0.20989  1.0000
  H   H3175     1.0  0.68869  0.19627  0.32583  1.0000
  Fe  Fe263     1.0  0.91406  0.22101  0.03947  1.0000
  H   H3176     1.0  0.68374  0.14186  0.39066  1.0000
  S   S536      1.0  0.65640  0.10915  0.06331  1.0000
  H   H3177     1.0  0.91739  0.21729  0.14276  1.0000
  S   S537      1.0  0.87385  0.98776  0.44642  1.0000
  C   C1889     1.0  0.71854  0.19813  0.11149  1.0000
  H   H3178     1.0  0.69962  0.17870  0.10022  1.0000
  H   H3179     1.0  0.84369  0.10002  0.42009  1.0000
  H   H3180     1.0  0.75159  0.18440  0.21852  1.0000
  C   C1890     1.0  0.84514  0.20887  0.01482  1.0000
  N   N134      1.0  0.76776  0.05675  0.15262  1.0000
  C   C1891     1.0  0.74761  0.06068  0.15091  1.0000
  C   C1892     1.0  0.77491  0.03579  0.15578  1.0000
  C   C1893     1.0  0.74395  0.05334  0.13532  1.0000
  H   H3181     1.0  0.73876  0.05475  0.16437  1.0000
  H   H3182     1.0  0.74168  0.07602  0.14801  1.0000
  S   S538      1.0  0.67741  0.13435  0.09074  1.0000
  H   H3183     1.0  0.76582  0.02863  0.16823  1.0000
  H   H3184     1.0  0.77425  0.03025  0.14382  1.0000
  H   H3185     1.0  0.72924  0.05935  0.13383  1.0000
  H   H3186     1.0  0.75299  0.05767  0.12151  1.0000
  H   H3187     1.0  0.74541  0.03790  0.13895  1.0000
  H   H3188     1.0  0.77045  0.03657  0.36759  1.0000
  C   C1894     1.0  0.77781  0.05471  0.33978  1.0000
  C   C1895     1.0  0.77447  0.05030  0.36135  1.0000
  H   H3189     1.0  0.77857  0.06973  0.33489  1.0000
  H   H3190     1.0  0.81272  0.03512  0.34976  1.0000
  S   S539      1.0  0.85867  0.02417  0.24482  1.0000
  H   H3191     1.0  0.76475  0.05387  0.33629  1.0000
  S   S540      1.0  0.66287  0.12575  0.13689  1.0000
  H   H3192     1.0  0.69575  0.16305  0.26087  1.0000
  Fe  Fe264     1.0  0.98457  0.04023  0.45313  1.0000
  H   H3193     1.0  0.90499  0.06726  0.33084  1.0000
  N   N135      1.0  0.79460  0.04255  0.32981  1.0000
  H   H3194     1.0  0.82477  0.03537  0.32634  1.0000
  H   H3195     1.0  0.70114  0.22173  0.09522  1.0000
  H   H3196     1.0  0.77013  0.07957  0.12830  1.0000
  H   H3197     1.0  0.89328  0.19955  0.00714  1.0000
  Fe  Fe265     1.0  0.81605  0.00270  0.24974  1.0000
  C   C1896     1.0  0.69979  0.21173  0.10892  1.0000
  H   H3198     1.0  0.79866  0.03371  0.16890  1.0000
  H   H3199     1.0  0.77262  0.20133  0.26368  1.0000
  C   C1897     1.0  0.97691  0.98617  0.40340  1.0000
  H   H3200     1.0  0.97181  0.04566  0.36651  1.0000
  H   H3201     1.0  0.68071  0.12534  0.20058  1.0000
  H   H3202     1.0  0.79533  0.06548  0.30549  1.0000
  C   C1898     1.0  0.81229  0.04288  0.33512  1.0000
  C   C1899     1.0  0.92630  0.05219  0.34691  1.0000
  C   C1900     1.0  0.67779  0.14357  0.23761  1.0000
  C   C1901     1.0  0.95017  0.03269  0.36453  1.0000
  Fe  Fe266     1.0  0.85117  0.99791  0.26423  1.0000
  H   H3203     1.0  0.75511  0.05572  0.27361  1.0000
  H   H3204     1.0  0.78343  0.03155  0.30047  1.0000
  C   C1902     1.0  0.77891  0.06647  0.13476  1.0000
  H   H3205     1.0  0.92052  0.05454  0.38322  1.0000
  H   H3206     1.0  0.81478  0.06630  0.45040  1.0000
  H   H3207     1.0  0.77366  0.09200  0.24732  1.0000
  C   C1903     1.0  0.79646  0.07223  0.13618  1.0000
  H   H3208     1.0  0.77805  0.04420  0.23654  1.0000
  H   H3209     1.0  0.83300  0.23032  0.29161  1.0000
  C   C1904     1.0  0.95634  0.04890  0.36846  1.0000
  H   H3210     1.0  0.79774  0.01286  0.16292  1.0000
  H   H3211     1.0  0.93899  0.05172  0.33539  1.0000
  H   H3212     1.0  0.77539  0.02593  0.19732  1.0000
  H   H3213     1.0  0.77061  0.13946  0.18168  1.0000
  H   H3214     1.0  0.92367  0.06599  0.35089  1.0000
  H   H3215     1.0  0.76717  0.05241  0.30694  1.0000
  H   H3216     1.0  0.79087  0.01727  0.35059  1.0000
  H   H3217     1.0  0.82981  0.06097  0.33624  1.0000
  H   H3218     1.0  0.81025  0.04434  0.30104  1.0000
  C   C1905     1.0  0.68682  0.00042  0.31474  1.0000
  H   H3219     1.0  0.80524  0.03122  0.14462  1.0000
  H   H3220     1.0  0.70472  0.02482  0.27217  1.0000
  H   H3221     1.0  0.89127  0.05675  0.37438  1.0000
  C   C1906     1.0  0.75867  0.99513  0.24545  1.0000
  H   H3222     1.0  0.65654  0.02833  0.27000  1.0000
  C   C1907     1.0  0.84701  0.07001  0.43154  1.0000
  C   C1908     1.0  0.78239  0.16161  0.30273  1.0000
  H   H3223     1.0  0.86359  0.21606  0.27948  1.0000
  Fe  Fe267     1.0  0.69342  0.22063  0.22172  1.0000
  S   S541      1.0  0.82066  0.21982  0.20829  1.0000
  H   H3224     1.0  0.76049  0.19717  0.09558  1.0000
  H   H3225     1.0  0.79721  0.01092  0.21863  1.0000
  H   H3226     1.0  0.74550  0.02588  0.28053  1.0000
  H   H3227     1.0  0.71548  0.07868  0.23907  1.0000
  H   H3228     1.0  0.95074  0.05045  0.38318  1.0000
  H   H3229     1.0  0.89250  0.03162  0.38330  1.0000
  H   H3230     1.0  0.76603  0.02586  0.26251  1.0000
  C   C1909     1.0  0.80770  0.00824  0.32582  1.0000
  H   H3231     1.0  0.81678  0.01454  0.31300  1.0000
  H   H3232     1.0  0.78174  0.05989  0.24816  1.0000
  H   H3233     1.0  0.80416  0.07729  0.12180  1.0000
  C   C1910     1.0  0.84384  0.23214  0.29796  1.0000
  H   H3234     1.0  0.74077  0.15497  0.22572  1.0000
  C   C1911     1.0  0.91821  0.04123  0.38154  1.0000
  C   C1912     1.0  0.69963  0.02142  0.28710  1.0000
  C   C1913     1.0  0.77059  0.01746  0.21069  1.0000
  H   H3235     1.0  0.73522  0.19603  0.20419  1.0000
  Fe  Fe268     1.0  0.68561  0.11379  0.32603  1.0000
  C   C1914     1.0  0.89690  0.04410  0.38424  1.0000
  H   H3236     1.0  0.92250  0.03030  0.39367  1.0000
  H   H3237     1.0  0.87566  0.98836  0.40510  1.0000
  C   C1915     1.0  0.89186  0.22196  0.24908  1.0000
  C   C1916     1.0  0.78297  0.00903  0.22285  1.0000
  H   H3238     1.0  0.77857  0.06635  0.20697  1.0000
  H   H3239     1.0  0.74785  0.09454  0.23100  1.0000
  H   H3240     1.0  0.72196  0.17411  0.23022  1.0000
  H   H3241     1.0  0.76214  0.09356  0.15632  1.0000
  C   C1917     1.0  0.75874  0.18379  0.10545  1.0000
  H   H3242     1.0  0.81690  0.99980  0.33565  1.0000
  C   C1918     1.0  0.67420  0.17249  0.13786  1.0000
  H   H3243     1.0  0.68279  0.00848  0.34099  1.0000
  C   C1919     1.0  0.88634  0.99596  0.47360  1.0000
  C   C1920     1.0  0.91020  0.05259  0.33772  1.0000
  H   H3244     1.0  0.87370  0.17695  0.12141  1.0000
  H   H3245     1.0  0.76258  0.08876  0.18063  1.0000
  C   C1921     1.0  0.75831  0.08413  0.16994  1.0000
  S   S542      1.0  0.66456  0.09459  0.11304  1.0000
  H   H3246     1.0  0.71666  0.18989  0.12620  1.0000
  C   C1922     1.0  0.89758  0.01099  0.44168  1.0000
  H   H3247     1.0  0.71690  0.06246  0.22509  1.0000
  H   H3248     1.0  0.95332  0.00225  0.34876  1.0000
  S   S543      1.0  0.68574  0.19701  0.21510  1.0000
  Fe  Fe269     1.0  0.68390  0.11148  0.11531  1.0000
  C   C1923     1.0  0.90211  0.18269  0.11008  1.0000
  H   H3249     1.0  0.69968  0.18519  0.26082  1.0000
  H   H3250     1.0  0.95231  0.06245  0.35887  1.0000
  H   H3251     1.0  0.89817  0.23318  0.26919  1.0000
  H   H3252     1.0  0.65586  0.09006  0.03550  1.0000
  H   H3253     1.0  0.91985  0.19174  0.13059  1.0000
  Fe  Fe270     1.0  0.72681  0.09808  0.31215  1.0000
  H   H3254     1.0  0.80636  0.06064  0.14305  1.0000
  H   H3255     1.0  0.78235  0.06154  0.17158  1.0000
  H   H3256     1.0  0.79288  0.08403  0.14346  1.0000
  H   H3257     1.0  0.66094  0.14424  0.46695  1.0000
  H   H3258     1.0  0.88973  0.20862  0.25897  1.0000
  H   H3259     1.0  0.77625  0.15889  0.21013  1.0000
  S   S544      1.0  0.71428  0.09948  0.11659  1.0000
  H   H3260     1.0  0.74286  0.08590  0.17381  1.0000
  C   C1924     1.0  0.75095  0.03234  0.26575  1.0000
  H   H3261     1.0  0.85063  0.20367  0.00167  1.0000
  H   H3262     1.0  0.84191  0.19414  0.04459  1.0000
  C   C1925     1.0  0.65778  0.16136  0.38718  1.0000
  H   H3263     1.0  0.74673  0.07106  0.21692  1.0000
  H   H3264     1.0  0.70235  0.21912  0.27343  1.0000
  S   S545      1.0  0.73621  0.02704  0.20136  1.0000
  H   H3265     1.0  0.74928  0.04718  0.22817  1.0000
  N   N136      1.0  0.72662  0.18512  0.09791  1.0000
  H   H3266     1.0  0.77950  0.12935  0.20249  1.0000
  C   C1926     1.0  0.69246  0.00510  0.29523  1.0000
  C   C1927     1.0  0.73249  0.16815  0.21884  1.0000
  C   C1928     1.0  0.66479  0.16065  0.23597  1.0000
  C   C1929     1.0  0.70019  0.03339  0.29840  1.0000
  C   C1930     1.0  0.91185  0.21215  0.09485  1.0000
  H   H3267     1.0  0.71056  0.14594  0.09687  1.0000
  C   C1931     1.0  0.84036  0.23357  0.03152  1.0000
  C   C1932     1.0  0.74371  0.06157  0.23084  1.0000
  C   C1933     1.0  0.84498  0.09023  0.43374  1.0000
  C   C1934     1.0  0.77411  0.05915  0.23774  1.0000
  C   C1935     1.0  0.92633  0.01819  0.36151  1.0000
  H   H3268     1.0  0.89629  0.98533  0.26346  1.0000
  H   H3269     1.0  0.83501  0.16390  0.15424  1.0000
  Fe  Fe271     1.0  0.67919  0.99745  0.21512  1.0000
  S   S546      1.0  0.70630  0.08948  0.33881  1.0000
  C   C1936     1.0  0.72224  0.06439  0.23663  1.0000
  H   H3270     1.0  0.89030  0.04679  0.39851  1.0000
  C   C1937     1.0  0.74756  0.08543  0.24523  1.0000
  H   H3271     1.0  0.89794  0.04771  0.34740  1.0000
  H   H3272     1.0  0.77820  0.08564  0.21713  1.0000
  H   H3273     1.0  0.83972  0.04253  0.41723  1.0000
  H   H3274     1.0  0.91538  0.04489  0.32610  1.0000
  H   H3275     1.0  0.92741  0.00743  0.37461  1.0000
  S   S547      1.0  0.72071  0.07948  0.29692  1.0000
  H   H3276     1.0  0.79786  0.06665  0.21605  1.0000
  N   N137      1.0  0.75329  0.06494  0.24438  1.0000
  C   C1938     1.0  0.69390  0.02886  0.31789  1.0000
  H   H3277     1.0  0.75331  0.20559  0.06561  1.0000
  H   H3278     1.0  0.91189  0.01970  0.35992  1.0000
  H   H3279     1.0  0.73253  0.05847  0.26953  1.0000
  H   H3280     1.0  0.75368  0.18608  0.12002  1.0000
  H   H3281     1.0  0.69520  0.22019  0.11992  1.0000
  S   S548      1.0  0.97290  0.01452  0.45783  1.0000
  C   C1939     1.0  0.67544  0.19603  0.15401  1.0000
  H   H3282     1.0  0.67426  0.21116  0.27781  1.0000
  C   C1940     1.0  0.93950  0.00946  0.34524  1.0000
  H   H3283     1.0  0.67602  0.13606  0.43632  1.0000
  N   N138      1.0  0.89993  0.20255  0.11213  1.0000
  Fe  Fe272     1.0  0.69872  0.07284  0.32217  1.0000
  Fe  Fe273     1.0  0.70811  0.01944  0.21428  1.0000
  C   C1941     1.0  0.67780  0.17523  0.28394  1.0000
  H   H3284     1.0  0.74463  0.16149  0.11219  1.0000
  H   H3285     1.0  0.66774  0.08904  0.27423  1.0000
  H   H3286     1.0  0.71772  0.05384  0.24918  1.0000
  N   N139      1.0  0.84435  0.05537  0.44946  1.0000
  H   H3287     1.0  0.83236  0.09484  0.44412  1.0000
  H   H3288     1.0  0.82968  0.21132  0.01663  1.0000
  C   C1942     1.0  0.66192  0.06256  0.27208  1.0000
  S   S549      1.0  0.69331  0.04354  0.33287  1.0000
  H   H3289     1.0  0.67301  0.21430  0.30066  1.0000
  C   C1943     1.0  0.68284  0.17862  0.14880  1.0000
  H   H3290     1.0  0.91033  0.22717  0.09460  1.0000
  C   C1944     1.0  0.93300  0.20363  0.09179  1.0000
  H   H3291     1.0  0.73670  0.21945  0.08137  1.0000
  H   H3292     1.0  0.89804  0.01333  0.42685  1.0000
  H   H3293     1.0  0.68931  0.13958  0.17888  1.0000
  S   S550      1.0  0.68899  0.20509  0.16380  1.0000
  H   H3294     1.0  0.67549  0.05374  0.27504  1.0000
  Fe  Fe274     1.0  0.69913  0.10412  0.28762  1.0000
  S   S551      1.0  0.70680  0.12351  0.30062  1.0000
  H   H3295     1.0  0.71297  0.20099  0.07485  1.0000
  Fe  Fe275     1.0  0.67737  0.21752  0.18979  1.0000
  C   C1945     1.0  0.66048  0.14515  0.35675  1.0000
  C   C1946     1.0  0.71391  0.17145  0.10243  1.0000
  C   C1947     1.0  0.67444  0.13890  0.36721  1.0000
  C   C1948     1.0  0.90610  0.20152  0.12981  1.0000
  H   H3296     1.0  0.75501  0.13897  0.20414  1.0000
  H   H3297     1.0  0.68146  0.98780  0.32121  1.0000
  C   C1949     1.0  0.66079  0.13722  0.18168  1.0000
  H   H3298     1.0  0.87506  0.21852  0.02631  1.0000
  C   C1950     1.0  0.67839  0.13185  0.25522  1.0000
  H   H3299     1.0  0.93629  0.18943  0.08873  1.0000
  H   H3300     1.0  0.89210  0.15674  0.12193  1.0000
  C   C1951     1.0  0.94564  0.98507  0.40211  1.0000
  C   C1952     1.0  0.95754  0.99162  0.40903  1.0000
  H   H3301     1.0  0.73254  0.22153  0.05909  1.0000
  H   H3302     1.0  0.66461  0.16993  0.22244  1.0000
  S   S552      1.0  0.66149  0.13555  0.33757  1.0000
  Fe  Fe276     1.0  0.82918  0.23176  0.22809  1.0000
  C   C1953     1.0  0.66525  0.13666  0.27097  1.0000
  Fe  Fe277     1.0  0.65664  0.20784  0.22977  1.0000
  C   C1954     1.0  0.65832  0.18397  0.13165  1.0000
  N   N140      1.0  0.85081  0.22687  0.01371  1.0000
  Fe  Fe278     1.0  0.84785  0.22501  0.18949  1.0000
  H   H3303     1.0  0.66060  0.03203  0.29990  1.0000
  H   H3304     1.0  0.67740  0.08243  0.25217  1.0000
  H   H3305     1.0  0.83925  0.01952  0.43104  1.0000
  S   S553      1.0  0.66055  0.00644  0.24114  1.0000
  H   H3306     1.0  0.85664  0.06951  0.46316  1.0000
  C   C1955     1.0  0.86345  0.22812  0.28527  1.0000
  C   C1956     1.0  0.82452  0.06030  0.46026  1.0000
  S   S554      1.0  0.82125  0.22065  0.25913  1.0000
  H   H3307     1.0  0.87408  0.22215  0.29417  1.0000
  H   H3308     1.0  0.84869  0.02478  0.45605  1.0000
  H   H3309     1.0  0.66506  0.12382  0.17662  1.0000
  C   C1957     1.0  0.85829  0.05538  0.46044  1.0000
  H   H3310     1.0  0.88322  0.22536  0.23844  1.0000
  H   H3311     1.0  0.65525  0.01399  0.17333  1.0000
  H   H3312     1.0  0.66574  0.06485  0.30322  1.0000
  S   S555      1.0  0.84549  0.98717  0.24175  1.0000
  H   H3313     1.0  0.84381  0.22289  0.04400  1.0000
  S   S556      1.0  0.68934  0.99057  0.28185  1.0000
  H   H3314     1.0  0.66085  0.14814  0.16874  1.0000
  C   C1958     1.0  0.65903  0.20710  0.14858  1.0000
  C   C1959     1.0  0.65849  0.03965  0.15304  1.0000
  H   H3315     1.0  0.75388  0.98673  0.25903  1.0000
  H   H3316     1.0  0.65975  0.03363  0.14080  1.0000
  H   H3317     1.0  0.65606  0.08338  0.16300  1.0000
  H   H3318     1.0  0.65489  0.19483  0.32186  1.0000
  Fe  Fe279     1.0  0.65513  0.14779  0.11236  1.0000
  H   H3319     1.0  0.84318  0.00425  0.66359  1.0000
  C   C1960     1.0  0.94392  0.23319  0.69258  1.0000
  H   H3320     1.0  0.71733  0.17569  0.61369  1.0000
  S   S557      1.0  0.68991  0.03168  0.68834  1.0000
  H   H3321     1.0  0.69948  0.20527  0.78413  1.0000
  C   C1961     1.0  0.70600  0.02602  0.90269  1.0000
  Fe  Fe280     1.0  0.73356  0.10458  0.77869  1.0000
  S   S558      1.0  0.71321  0.11313  0.80352  1.0000
  S   S559      1.0  0.72097  0.11326  0.75314  1.0000
  Fe  Fe281     1.0  0.76258  0.08462  0.80151  1.0000
  S   S560      1.0  0.74380  0.09084  0.82877  1.0000
  S   S561      1.0  0.79167  0.06763  0.80230  1.0000
  Fe  Fe282     1.0  0.72178  0.08376  0.81870  1.0000
  S   S562      1.0  0.69503  0.07489  0.83524  1.0000
  Fe  Fe283     1.0  0.73657  0.11961  0.81146  1.0000
  S   S563      1.0  0.72603  0.14563  0.82315  1.0000
  S   S564      1.0  0.74129  0.07449  0.79326  1.0000
  S   S565      1.0  0.75658  0.11419  0.78472  1.0000
  Fe  Fe284     1.0  0.87876  0.07195  0.66796  1.0000
  S   S566      1.0  0.85225  0.06130  0.67712  1.0000
  S   S567      1.0  0.89962  0.06354  0.64234  1.0000
  Fe  Fe285     1.0  0.86506  0.09930  0.69464  1.0000
  S   S568      1.0  0.83720  0.09108  0.70521  1.0000
  S   S569      1.0  0.86580  0.12044  0.71049  1.0000
  Fe  Fe286     1.0  0.85363  0.06185  0.70618  1.0000
  S   S570      1.0  0.84651  0.03949  0.73143  1.0000
  Fe  Fe287     1.0  0.83803  0.09145  0.67549  1.0000
  S   S571      1.0  0.81348  0.10432  0.66168  1.0000
  S   S572      1.0  0.88176  0.06966  0.69745  1.0000
  S   S573      1.0  0.86430  0.10252  0.66449  1.0000
  Fe  Fe288     1.0  0.77424  0.08793  0.58226  1.0000
  S   S574      1.0  0.75710  0.07688  0.60995  1.0000
  S   S575      1.0  0.77901  0.11751  0.57259  1.0000
  Fe  Fe289     1.0  0.78554  0.04994  0.57050  1.0000
  S   S576      1.0  0.76943  0.03557  0.59759  1.0000
  S   S577      1.0  0.80566  0.03729  0.54673  1.0000
  Fe  Fe290     1.0  0.74704  0.06183  0.59406  1.0000
  S   S578      1.0  0.71602  0.06351  0.60192  1.0000
  Fe  Fe291     1.0  0.78073  0.05196  0.61118  1.0000
  S   S579      1.0  0.79101  0.04067  0.63797  1.0000
  S   S580      1.0  0.76216  0.07508  0.56585  1.0000
  S   S581      1.0  0.79889  0.06400  0.58469  1.0000
  C   C1962     1.0  0.85725  0.04229  0.47993  1.0000
  C   C1963     1.0  0.78875  0.99277  0.54055  1.0000
  H   H3322     1.0  0.75714  0.07855  0.65315  1.0000
  C   C1964     1.0  0.71025  0.20886  0.78919  1.0000
  H   H3323     1.0  0.70787  0.09210  0.70698  1.0000
  C   C1965     1.0  0.85175  0.22103  0.63817  1.0000
  H   H3324     1.0  0.69827  0.04239  0.93249  1.0000
  H   H3325     1.0  0.71712  0.18657  0.65670  1.0000
  H   H3326     1.0  0.80519  0.19552  0.77772  1.0000
  C   C1966     1.0  0.81463  0.99911  0.51492  1.0000
  S   S582      1.0  0.77909  0.21094  0.63684  1.0000
  H   H3327     1.0  0.85843  0.02752  0.47958  1.0000
  H   H3328     1.0  0.94563  0.03637  0.65154  1.0000
  H   H3329     1.0  0.72394  0.04367  0.78358  1.0000
  H   H3330     1.0  0.84715  0.01225  0.60215  1.0000
  H   H3331     1.0  0.93134  0.03991  0.53917  1.0000
  C   C1967     1.0  0.68902  0.00134  0.78614  1.0000
  H   H3332     1.0  0.73113  0.09889  0.64220  1.0000
  H   H3333     1.0  0.81570  0.14405  0.65357  1.0000
  Fe  Fe292     1.0  0.85933  0.20884  0.72897  1.0000
  C   C1968     1.0  0.87206  0.20855  0.78574  1.0000
  H   H3334     1.0  0.96085  0.99441  0.53560  1.0000
  H   H3335     1.0  0.72246  0.05976  0.70549  1.0000
  C   C1969     1.0  0.91939  0.02329  0.52838  1.0000
  H   H3336     1.0  0.68344  0.02444  0.76202  1.0000
  H   H3337     1.0  0.66671  0.00486  0.83618  1.0000
  H   H3338     1.0  0.73926  0.10989  0.66852  1.0000
  H   H3339     1.0  0.75226  0.13476  0.63401  1.0000
  C   C1970     1.0  0.80278  0.01900  0.53798  1.0000
  H   H3340     1.0  0.93563  0.06032  0.51353  1.0000
  H   H3341     1.0  0.95283  0.17510  0.73560  1.0000
  C   C1971     1.0  0.96073  0.00324  0.52125  1.0000
  H   H3342     1.0  0.94118  0.19628  0.75717  1.0000
  C   C1972     1.0  0.81524  0.01448  0.52168  1.0000
  H   H3343     1.0  0.77965  0.01160  0.55989  1.0000
  C   C1973     1.0  0.67994  0.06683  0.94105  1.0000
  C   C1974     1.0  0.82593  0.20567  0.80712  1.0000
  H   H3344     1.0  0.82565  0.02275  0.51441  1.0000
  C   C1975     1.0  0.77435  0.13150  0.58915  1.0000
  C   C1976     1.0  0.78038  0.14847  0.58354  1.0000
  C   C1977     1.0  0.76025  0.13852  0.61998  1.0000
  C   C1978     1.0  0.76439  0.12645  0.60747  1.0000
  H   H3345     1.0  0.76458  0.07092  0.67439  1.0000
  H   H3346     1.0  0.75964  0.11343  0.61191  1.0000
  C   C1979     1.0  0.90805  0.03973  0.64099  1.0000
  C   C1980     1.0  0.90591  0.02536  0.65686  1.0000
  C   C1981     1.0  0.91320  0.00654  0.65535  1.0000
  H   H3347     1.0  0.85709  0.21570  0.81230  1.0000
  C   C1982     1.0  0.92447  0.01631  0.62203  1.0000
  C   C1983     1.0  0.91728  0.03514  0.62356  1.0000
  H   H3348     1.0  0.89884  0.02873  0.67036  1.0000
  H   H3349     1.0  0.97146  0.01493  0.58810  1.0000
  C   C1984     1.0  0.80665  0.08681  0.65543  1.0000
  C   C1985     1.0  0.80822  0.06872  0.66661  1.0000
  C   C1986     1.0  0.80339  0.05459  0.66119  1.0000
  C   C1987     1.0  0.79695  0.05852  0.64459  1.0000
  C   C1988     1.0  0.79529  0.07664  0.63345  1.0000
  C   C1989     1.0  0.79996  0.09080  0.63897  1.0000
  H   H3350     1.0  0.81286  0.06568  0.67962  1.0000
  H   H3351     1.0  0.80459  0.04064  0.66992  1.0000
  H   H3352     1.0  0.79046  0.07980  0.62054  1.0000
  H   H3353     1.0  0.79854  0.10479  0.63035  1.0000
  C   C1990     1.0  0.72299  0.15096  0.67908  1.0000
  H   H3354     1.0  0.70557  0.07929  0.67691  1.0000
  C   C1991     1.0  0.87965  0.14734  0.71635  1.0000
  C   C1992     1.0  0.88167  0.13541  0.70432  1.0000
  C   C1993     1.0  0.89522  0.13663  0.68763  1.0000
  H   H3355     1.0  0.70656  0.10035  0.64606  1.0000
  H   H3356     1.0  0.84091  0.99802  0.57994  1.0000
  H   H3357     1.0  0.86924  0.14651  0.72924  1.0000
  H   H3358     1.0  0.89687  0.12744  0.67825  1.0000
  C   C1994     1.0  0.75272  0.07996  0.66806  1.0000
  C   C1995     1.0  0.69477  0.05108  0.84367  1.0000
  C   C1996     1.0  0.71126  0.03735  0.84281  1.0000
  C   C1997     1.0  0.71042  0.01840  0.84989  1.0000
  C   C1998     1.0  0.69313  0.01320  0.85775  1.0000
  C   C1999     1.0  0.67675  0.02704  0.85900  1.0000
  C   C2000     1.0  0.67755  0.04593  0.85183  1.0000
  H   H3359     1.0  0.72461  0.04132  0.83666  1.0000
  H   H3360     1.0  0.72316  0.00772  0.84904  1.0000
  H   H3361     1.0  0.75080  0.20912  0.69593  1.0000
  C   C2001     1.0  0.74712  0.23123  0.67174  1.0000
  C   C2002     1.0  0.80562  0.05959  0.78220  1.0000
  C   C2003     1.0  0.82088  0.04463  0.78439  1.0000
  C   C2004     1.0  0.83303  0.03840  0.76874  1.0000
  C   C2005     1.0  0.83037  0.04741  0.75068  1.0000
  C   C2006     1.0  0.81507  0.06245  0.74839  1.0000
  C   C2007     1.0  0.80258  0.06844  0.76417  1.0000
  H   H3362     1.0  0.82332  0.03776  0.79827  1.0000
  H   H3363     1.0  0.84473  0.02674  0.77062  1.0000
  H   H3364     1.0  0.81268  0.06920  0.73450  1.0000
  H   H3365     1.0  0.79080  0.08001  0.76239  1.0000
  H   H3366     1.0  0.70515  0.22608  0.55741  1.0000
  C   C2008     1.0  0.95917  0.22369  0.73321  1.0000
  C   C2009     1.0  0.73386  0.17407  0.83315  1.0000
  C   C2010     1.0  0.74140  0.15712  0.82717  1.0000
  C   C2011     1.0  0.76080  0.15066  0.82306  1.0000
  H   H3367     1.0  0.72729  0.02314  0.80153  1.0000
  H   H3368     1.0  0.86650  0.16613  0.66410  1.0000
  H   H3369     1.0  0.71886  0.17906  0.83644  1.0000
  H   H3370     1.0  0.76664  0.13751  0.81854  1.0000
  H   H3371     1.0  0.91893  0.04621  0.61122  1.0000
  C   C2012     1.0  0.69746  0.04109  0.66451  1.0000
  C   C2013     1.0  0.71332  0.03122  0.65410  1.0000
  C   C2014     1.0  0.71935  0.03833  0.63495  1.0000
  C   C2015     1.0  0.70912  0.05499  0.62602  1.0000
  C   C2016     1.0  0.69322  0.06485  0.63642  1.0000
  C   C2017     1.0  0.68766  0.05814  0.65574  1.0000
  H   H3372     1.0  0.72102  0.01808  0.66085  1.0000
  H   H3373     1.0  0.73164  0.03068  0.62697  1.0000
  H   H3374     1.0  0.68544  0.07788  0.62958  1.0000
  H   H3375     1.0  0.67568  0.06606  0.66372  1.0000
  C   C2018     1.0  0.67658  0.07876  0.76459  1.0000
  C   C2019     1.0  0.67852  0.09284  0.74835  1.0000
  C   C2020     1.0  0.69181  0.10386  0.74494  1.0000
  C   C2021     1.0  0.70292  0.10101  0.75795  1.0000
  C   C2022     1.0  0.69959  0.08815  0.77492  1.0000
  C   C2023     1.0  0.68661  0.07697  0.77817  1.0000
  H   H3376     1.0  0.96615  0.03952  0.58940  1.0000
  H   H3377     1.0  0.69352  0.11438  0.73217  1.0000
  H   H3378     1.0  0.70700  0.08664  0.78565  1.0000
  H   H3379     1.0  0.68442  0.06686  0.79121  1.0000
  C   C2024     1.0  0.70535  0.18156  0.68724  1.0000
  C   C2025     1.0  0.70731  0.14820  0.67123  1.0000
  C   C2026     1.0  0.71463  0.19323  0.66879  1.0000
  H   H3380     1.0  0.73324  0.15694  0.66695  1.0000
  H   H3381     1.0  0.69153  0.18044  0.68567  1.0000
  H   H3382     1.0  0.70185  0.19028  0.69795  1.0000
  H   H3383     1.0  0.69885  0.16165  0.66506  1.0000
  H   H3384     1.0  0.71377  0.14038  0.65977  1.0000
  H   H3385     1.0  0.69805  0.13966  0.68194  1.0000
  H   H3386     1.0  0.70514  0.20712  0.66571  1.0000
  C   C2027     1.0  0.66018  0.13345  0.78335  1.0000
  H   H3387     1.0  0.72792  0.19598  0.66985  1.0000
  H   H3388     1.0  0.68315  0.02785  0.81911  1.0000
  N   N141      1.0  0.98358  0.01460  0.62078  1.0000
  H   H3389     1.0  0.72158  0.99302  0.80248  1.0000
  H   H3390     1.0  0.70529  0.06254  0.87195  1.0000
  H   H3391     1.0  0.67222  0.04919  0.61908  1.0000
  H   H3392     1.0  0.76240  0.10597  0.65576  1.0000
  H   H3393     1.0  0.77718  0.22086  0.78120  1.0000
  H   H3394     1.0  0.87006  0.99531  0.52710  1.0000
  C   C2028     1.0  0.71309  0.19843  0.58879  1.0000
  H   H3395     1.0  0.91694  0.03324  0.51519  1.0000
  C   C2029     1.0  0.73357  0.17001  0.57795  1.0000
  N   N142      1.0  0.83656  0.10483  0.77803  1.0000
  C   C2030     1.0  0.84654  0.08595  0.77337  1.0000
  C   C2031     1.0  0.83655  0.10332  0.79833  1.0000
  C   C2032     1.0  0.84772  0.11908  0.76580  1.0000
  C   C2033     1.0  0.81715  0.10946  0.77414  1.0000
  C   C2034     1.0  0.85073  0.08485  0.75257  1.0000
  C   C2035     1.0  0.84099  0.13925  0.76915  1.0000
  C   C2036     1.0  0.80215  0.12387  0.78433  1.0000
  H   H3396     1.0  0.86015  0.08102  0.77796  1.0000
  H   H3397     1.0  0.83826  0.07507  0.78104  1.0000
  H   H3398     1.0  0.82999  0.11668  0.80298  1.0000
  H   H3399     1.0  0.85117  0.10015  0.80037  1.0000
  H   H3400     1.0  0.86262  0.11435  0.76718  1.0000
  H   H3401     1.0  0.84792  0.12044  0.75075  1.0000
  H   H3402     1.0  0.81763  0.11445  0.75883  1.0000
  H   H3403     1.0  0.83824  0.09068  0.74626  1.0000
  H   H3404     1.0  0.86234  0.09183  0.74429  1.0000
  H   H3405     1.0  0.85552  0.06992  0.75137  1.0000
  H   H3406     1.0  0.82736  0.14601  0.76516  1.0000
  H   H3407     1.0  0.85103  0.14784  0.75992  1.0000
  H   H3408     1.0  0.84053  0.14018  0.78361  1.0000
  H   H3409     1.0  0.80744  0.13320  0.78973  1.0000
  C   C2037     1.0  0.73718  0.05424  0.67273  1.0000
  C   C2038     1.0  0.75205  0.03800  0.68078  1.0000
  H   H3410     1.0  0.72374  0.04941  0.67780  1.0000
  H   H3411     1.0  0.74087  0.05524  0.65730  1.0000
  H   H3412     1.0  0.74838  0.03407  0.69629  1.0000
  H   H3413     1.0  0.75275  0.02542  0.67546  1.0000
  H   H3414     1.0  0.76623  0.04107  0.67618  1.0000
  N   N143      1.0  0.82796  0.17485  0.68758  1.0000
  C   C2039     1.0  0.84093  0.18640  0.67350  1.0000
  C   C2040     1.0  0.80829  0.18443  0.68540  1.0000
  C   C2041     1.0  0.83267  0.15592  0.68248  1.0000
  C   C2042     1.0  0.73184  0.06988  0.69860  1.0000
  C   C2043     1.0  0.86201  0.17780  0.67169  1.0000
  C   C2044     1.0  0.80253  0.20523  0.68680  1.0000
  C   C2045     1.0  0.82012  0.14206  0.69379  1.0000
  H   H3415     1.0  0.74525  0.06337  0.70335  1.0000
  H   H3416     1.0  0.83786  0.18933  0.65927  1.0000
  H   H3417     1.0  0.83883  0.20031  0.67699  1.0000
  H   H3418     1.0  0.79781  0.17723  0.69592  1.0000
  H   H3419     1.0  0.80621  0.18382  0.67154  1.0000
  H   H3420     1.0  0.83267  0.15765  0.66741  1.0000
  H   H3421     1.0  0.84708  0.14841  0.68406  1.0000
  H   H3422     1.0  0.75830  0.10025  0.68087  1.0000
  H   H3423     1.0  0.81142  0.09654  0.77816  1.0000
  H   H3424     1.0  0.86590  0.17295  0.68551  1.0000
  H   H3425     1.0  0.65572  0.03867  0.67528  1.0000
  H   H3426     1.0  0.71374  0.06009  0.90543  1.0000
  H   H3427     1.0  0.95074  0.99875  0.51584  1.0000
  H   H3428     1.0  0.82382  0.12994  0.68687  1.0000
  H   H3429     1.0  0.80505  0.14786  0.69422  1.0000
  H   H3430     1.0  0.82292  0.13627  0.70809  1.0000
  N   N144      1.0  0.73498  0.07298  0.67754  1.0000
  H   H3431     1.0  0.79328  0.13304  0.77449  1.0000
  C   C2046     1.0  0.71752  0.15961  0.58198  1.0000
  N   N145      1.0  0.85997  0.02786  0.62941  1.0000
  C   C2047     1.0  0.85715  0.02813  0.64988  1.0000
  C   C2048     1.0  0.86445  0.04645  0.61829  1.0000
  H   H3432     1.0  0.67168  0.12238  0.77787  1.0000
  C   C2049     1.0  0.84223  0.02484  0.62645  1.0000
  H   H3433     1.0  0.92052  0.20706  0.74723  1.0000
  H   H3434     1.0  0.92642  0.21306  0.70519  1.0000
  H   H3435     1.0  0.86519  0.19691  0.78705  1.0000
  C   C2050     1.0  0.84098  0.02600  0.60619  1.0000
  H   H3436     1.0  0.86887  0.03282  0.65234  1.0000
  H   H3437     1.0  0.84424  0.03839  0.65438  1.0000
  H   H3438     1.0  0.86794  0.04709  0.60301  1.0000
  H   H3439     1.0  0.87727  0.04842  0.62143  1.0000
  H   H3440     1.0  0.75749  0.20297  0.54112  1.0000
  H   H3441     1.0  0.87763  0.01544  0.59452  1.0000
  H   H3442     1.0  0.83968  0.01079  0.63430  1.0000
  H   H3443     1.0  0.82984  0.03450  0.63271  1.0000
  N   N146      1.0  0.95452  0.02384  0.52190  1.0000
  C   C2051     1.0  0.96117  0.19254  0.69942  1.0000
  H   H3444     1.0  0.96745  0.22083  0.74414  1.0000
  C   C2052     1.0  0.66004  0.07278  0.88838  1.0000
  H   H3445     1.0  0.83851  0.19613  0.81163  1.0000
  H   H3446     1.0  0.70719  0.16987  0.78576  1.0000
  C   C2053     1.0  0.70572  0.07344  0.87893  1.0000
  H   H3447     1.0  0.66974  0.09538  0.73846  1.0000
  S   S583      1.0  0.94547  0.98591  0.58126  1.0000
  C   C2054     1.0  0.66313  0.01164  0.82232  1.0000
  H   H3448     1.0  0.84739  0.03704  0.59579  1.0000
  H   H3449     1.0  0.82601  0.02999  0.60522  1.0000
  H   H3450     1.0  0.92134  0.00882  0.52653  1.0000
  H   H3451     1.0  0.77856  0.98427  0.54797  1.0000
  H   H3452     1.0  0.68666  0.04405  0.88648  1.0000
  H   H3453     1.0  0.82665  0.03143  0.47910  1.0000
  C   C2055     1.0  0.70068  0.06793  0.90046  1.0000
  H   H3454     1.0  0.70933  0.16308  0.76437  1.0000
  C   C2056     1.0  0.66627  0.07056  0.90681  1.0000
  C   C2057     1.0  0.66173  0.11937  0.81596  1.0000
  C   C2058     1.0  0.68456  0.05120  0.92987  1.0000
  H   H3455     1.0  0.81675  0.21185  0.81900  1.0000
  S   S584      1.0  0.66974  0.20419  0.75532  1.0000
  H   H3456     1.0  0.80874  0.04930  0.48788  1.0000
  H   H3457     1.0  0.86789  0.98596  0.56058  1.0000
  H   H3458     1.0  0.73397  0.17965  0.74771  1.0000
  H   H3459     1.0  0.98292  0.02484  0.52174  1.0000
  H   H3460     1.0  0.84733  0.00567  0.53826  1.0000
  H   H3461     1.0  0.66735  0.01058  0.64386  1.0000
  H   H3462     1.0  0.72794  0.15380  0.77668  1.0000
  C   C2059     1.0  0.78744  0.22190  0.76824  1.0000
  C   C2060     1.0  0.95382  0.03510  0.50235  1.0000
  C   C2061     1.0  0.96616  0.20763  0.72225  1.0000
  C   C2062     1.0  0.77179  0.17802  0.77740  1.0000
  C   C2063     1.0  0.85667  0.99210  0.53604  1.0000
  H   H3463     1.0  0.71332  0.22257  0.78106  1.0000
  C   C2064     1.0  0.94243  0.05559  0.50031  1.0000
  H   H3464     1.0  0.67418  0.04217  0.93671  1.0000
  H   H3465     1.0  0.75134  0.19289  0.58418  1.0000
  S   S585      1.0  0.83062  0.21236  0.61861  1.0000
  C   C2065     1.0  0.93685  0.21823  0.70934  1.0000
  H   H3466     1.0  0.92440  0.18310  0.75871  1.0000
  H   H3467     1.0  0.68388  0.17153  0.72727  1.0000
  H   H3468     1.0  0.86768  0.10876  0.61885  1.0000
  H   H3469     1.0  0.74415  0.16461  0.56626  1.0000
  S   S586      1.0  0.66386  0.21638  0.71136  1.0000
  C   C2066     1.0  0.76134  0.19516  0.55463  1.0000
  H   H3470     1.0  0.73128  0.19067  0.54423  1.0000
  H   H3471     1.0  0.95168  0.06537  0.49191  1.0000
  C   C2067     1.0  0.82408  0.12747  0.59399  1.0000
  H   H3472     1.0  0.77983  0.18531  0.76435  1.0000
  H   H3473     1.0  0.66598  0.07605  0.94028  1.0000
  H   H3474     1.0  0.88696  0.01044  0.63299  1.0000
  H   H3475     1.0  0.66303  0.10763  0.84519  1.0000
  C   C2068     1.0  0.87616  0.01193  0.62496  1.0000
  H   H3476     1.0  0.76182  0.22917  0.66549  1.0000
  H   H3477     1.0  0.83582  0.06341  0.61800  1.0000
  H   H3478     1.0  0.76234  0.18920  0.73697  1.0000
  C   C2069     1.0  0.78935  0.00823  0.54732  1.0000
  H   H3479     1.0  0.86512  0.12610  0.59852  1.0000
  H   H3480     1.0  0.80832  0.15842  0.72404  1.0000
  H   H3481     1.0  0.77343  0.20021  0.55567  1.0000
  C   C2070     1.0  0.75492  0.17292  0.77369  1.0000
  H   H3482     1.0  0.71456  0.19526  0.75780  1.0000
  H   H3483     1.0  0.80320  0.18323  0.72367  1.0000
  H   H3484     1.0  0.75051  0.16189  0.78590  1.0000
  C   C2071     1.0  0.83790  0.16481  0.61183  1.0000
  H   H3485     1.0  0.72212  0.07869  0.64315  1.0000
  N   N147      1.0  0.71686  0.16254  0.69393  1.0000
  H   H3486     1.0  0.73063  0.13667  0.68459  1.0000
  H   H3487     1.0  0.69233  0.15085  0.70749  1.0000
  H   H3488     1.0  0.69779  0.03625  0.77683  1.0000
  C   C2072     1.0  0.70648  0.02444  0.78515  1.0000
  C   C2073     1.0  0.70507  0.15249  0.71094  1.0000
  H   H3489     1.0  0.74436  0.16927  0.68522  1.0000
  H   H3490     1.0  0.81219  0.09003  0.81099  1.0000
  H   H3491     1.0  0.79250  0.11660  0.79603  1.0000
  C   C2074     1.0  0.81706  0.20892  0.74987  1.0000
  H   H3492     1.0  0.70672  0.04164  0.80470  1.0000
  C   C2075     1.0  0.71985  0.09106  0.64930  1.0000
  H   H3493     1.0  0.72050  0.07501  0.87443  1.0000
  C   C2076     1.0  0.82667  0.08836  0.81253  1.0000
  C   C2077     1.0  0.65576  0.15428  0.69986  1.0000
  C   C2078     1.0  0.71655  0.03355  0.79455  1.0000
  H   H3494     1.0  0.71749  0.01740  0.77470  1.0000
  C   C2079     1.0  0.71804  0.08576  0.67073  1.0000
  H   H3495     1.0  0.95222  0.05545  0.53803  1.0000
  H   H3496     1.0  0.82581  0.08983  0.82697  1.0000
  H   H3497     1.0  0.84255  0.16423  0.62479  1.0000
  H   H3498     1.0  0.78818  0.15237  0.56941  1.0000
  C   C2080     1.0  0.72288  0.08712  0.70760  1.0000
  H   H3499     1.0  0.82638  0.17747  0.61058  1.0000
  H   H3500     1.0  0.83451  0.07390  0.81151  1.0000
  C   C2081     1.0  0.80794  0.15510  0.64392  1.0000
  H   H3501     1.0  0.81135  0.16884  0.64251  1.0000
  H   H3502     1.0  0.80722  0.20788  0.69838  1.0000
  H   H3503     1.0  0.83530  0.18572  0.70801  1.0000
  H   H3504     1.0  0.75185  0.21257  0.76534  1.0000
  H   H3505     1.0  0.94814  0.02787  0.49475  1.0000
  H   H3506     1.0  0.72407  0.18087  0.79907  1.0000
  H   H3507     1.0  0.71403  0.09921  0.67545  1.0000
  H   H3508     1.0  0.72341  0.08291  0.72270  1.0000
  C   C2082     1.0  0.76621  0.15554  0.61428  1.0000
  H   H3509     1.0  0.79288  0.15637  0.65068  1.0000
  C   C2083     1.0  0.90634  0.15017  0.68289  1.0000
  C   C2084     1.0  0.74094  0.22019  0.68915  1.0000
  C   C2085     1.0  0.93158  0.19429  0.74943  1.0000
  H   H3510     1.0  0.92858  0.22568  0.72061  1.0000
  C   C2086     1.0  0.75291  0.10012  0.66862  1.0000
  H   H3511     1.0  0.80166  0.16106  0.61677  1.0000
  C   C2087     1.0  0.89046  0.16091  0.71154  1.0000
  H   H3512     1.0  0.77057  0.20935  0.73690  1.0000
  H   H3513     1.0  0.67237  0.15777  0.76875  1.0000
  H   H3514     1.0  0.84883  0.17447  0.58177  1.0000
  H   H3515     1.0  0.73020  0.09882  0.70155  1.0000
  C   C2088     1.0  0.77641  0.16039  0.59607  1.0000
  C   C2089     1.0  0.73418  0.16510  0.69835  1.0000
  N   N148      1.0  0.72826  0.19114  0.57343  1.0000
  H   H3516     1.0  0.70671  0.01484  0.89534  1.0000
  H   H3517     1.0  0.73256  0.21752  0.75473  1.0000
  C   C2090     1.0  0.85384  0.16964  0.59512  1.0000
  H   H3518     1.0  0.97662  0.05051  0.53754  1.0000
  N   N149      1.0  0.69483  0.01090  0.79816  1.0000
  C   C2091     1.0  0.81109  0.14985  0.62479  1.0000
  H   H3519     1.0  0.69078  0.07536  0.93665  1.0000
  H   H3520     1.0  0.91651  0.15145  0.66980  1.0000
  H   H3521     1.0  0.85859  0.18159  0.59700  1.0000
  H   H3522     1.0  0.84432  0.04719  0.48989  1.0000
  H   H3523     1.0  0.68247  0.14397  0.78817  1.0000
  H   H3524     1.0  0.76015  0.16560  0.76177  1.0000
  H   H3525     1.0  0.86616  0.15800  0.59392  1.0000
  H   H3526     1.0  0.74144  0.21424  0.57081  1.0000
  H   H3527     1.0  0.73098  0.17688  0.70565  1.0000
  N   N150      1.0  0.83090  0.14738  0.61344  1.0000
  S   S587      1.0  0.91546  0.18133  0.68813  1.0000
  H   H3528     1.0  0.94745  0.22827  0.67924  1.0000
  C   C2092     1.0  0.74486  0.20634  0.75797  1.0000
  H   H3529     1.0  0.80829  0.21420  0.67348  1.0000
  C   C2093     1.0  0.74524  0.19883  0.57153  1.0000
  H   H3530     1.0  0.96654  0.02184  0.65798  1.0000
  H   H3531     1.0  0.85328  0.01172  0.67834  1.0000
  H   H3532     1.0  0.66237  0.15820  0.68530  1.0000
  S   S588      1.0  0.77947  0.19384  0.82879  1.0000
  H   H3533     1.0  0.84306  0.13240  0.63741  1.0000
  C   C2094     1.0  0.90368  0.16261  0.69471  1.0000
  H   H3534     1.0  0.82050  0.15765  0.58779  1.0000
  H   H3535     1.0  0.97000  0.04273  0.62475  1.0000
  H   H3536     1.0  0.93136  0.05754  0.49243  1.0000
  C   C2095     1.0  0.70699  0.99665  0.81055  1.0000
  H   H3537     1.0  0.87017  0.18859  0.66346  1.0000
  H   H3538     1.0  0.80559  0.13689  0.62781  1.0000
  H   H3539     1.0  0.70685  0.01899  0.91737  1.0000
  C   C2096     1.0  0.77260  0.16155  0.82444  1.0000
  C   C2097     1.0  0.98009  0.99706  0.50890  1.0000
  C   C2098     1.0  0.72817  0.19348  0.78919  1.0000
  Fe  Fe293     1.0  0.89528  0.20497  0.70026  1.0000
  C   C2099     1.0  0.72614  0.18334  0.76135  1.0000
  C   C2100     1.0  0.67037  0.03461  0.62141  1.0000
  H   H3540     1.0  0.67241  0.00548  0.76540  1.0000
  C   C2101     1.0  0.74560  0.18514  0.83403  1.0000
  H   H3541     1.0  0.70808  0.00262  0.82204  1.0000
  H   H3542     1.0  0.82489  0.22530  0.72214  1.0000
  C   C2102     1.0  0.84248  0.13027  0.62363  1.0000
  C   C2103     1.0  0.83103  0.17309  0.70698  1.0000
  H   H3543     1.0  0.78761  0.15681  0.82098  1.0000
  C   C2104     1.0  0.83015  0.14527  0.59438  1.0000
  H   H3544     1.0  0.85366  0.07656  0.61205  1.0000
  H   H3545     1.0  0.83582  0.11796  0.62743  1.0000
  H   H3546     1.0  0.70804  0.19252  0.55731  1.0000
  C   C2105     1.0  0.81435  0.17034  0.72359  1.0000
  H   H3547     1.0  0.76640  0.18010  0.55435  1.0000
  H   H3548     1.0  0.82386  0.12763  0.57933  1.0000
  H   H3549     1.0  0.78144  0.16501  0.78272  1.0000
  H   H3550     1.0  0.66842  0.00390  0.67583  1.0000
  H   H3551     1.0  0.73687  0.14468  0.72486  1.0000
  H   H3552     1.0  0.84383  0.14511  0.58448  1.0000
  C   C2106     1.0  0.66911  0.14958  0.78329  1.0000
  H   H3553     1.0  0.91163  0.99549  0.66775  1.0000
  S   S589      1.0  0.66225  0.06288  0.76796  1.0000
  C   C2107     1.0  0.85474  0.23000  0.65088  1.0000
  H   H3554     1.0  0.76766  0.18675  0.78809  1.0000
  C   C2108     1.0  0.85542  0.00940  0.66395  1.0000
  S   S590      1.0  0.79463  0.20322  0.59431  1.0000
  C   C2109     1.0  0.67628  0.01416  0.77292  1.0000
  C   C2110     1.0  0.74490  0.14781  0.71025  1.0000
  H   H3555     1.0  0.67583  0.03303  0.90863  1.0000
  C   C2111     1.0  0.76496  0.17902  0.82948  1.0000
  H   H3556     1.0  0.88831  0.17025  0.72083  1.0000
  H   H3557     1.0  0.70162  0.99394  0.77739  1.0000
  S   S591      1.0  0.67494  0.07259  0.71385  1.0000
  H   H3558     1.0  0.70401  0.21054  0.80386  1.0000
  H   H3559     1.0  0.69666  0.15132  0.74099  1.0000
  H   H3560     1.0  0.80977  0.12681  0.60221  1.0000
  H   H3561     1.0  0.73963  0.19847  0.83817  1.0000
  H   H3562     1.0  0.74853  0.13519  0.70415  1.0000
  H   H3563     1.0  0.70732  0.17050  0.72894  1.0000
  H   H3564     1.0  0.71232  0.13777  0.71570  1.0000
  C   C2112     1.0  0.86299  0.12411  0.61386  1.0000
  H   H3565     1.0  0.81726  0.22875  0.78577  1.0000
  H   H3566     1.0  0.69947  0.19546  0.58885  1.0000
  H   H3567     1.0  0.87218  0.13140  0.61728  1.0000
  H   H3568     1.0  0.89553  0.00321  0.49483  1.0000
  H   H3569     1.0  0.90636  0.02577  0.53914  1.0000
  N   N151      1.0  0.73859  0.18902  0.77045  1.0000
  C   C2113     1.0  0.66510  0.02600  0.64249  1.0000
  H   H3570     1.0  0.84615  0.06617  0.63593  1.0000
  H   H3571     1.0  0.78104  0.17344  0.59146  1.0000
  C   C2114     1.0  0.80327  0.20741  0.76622  1.0000
  H   H3572     1.0  0.65977  0.15940  0.79206  1.0000
  H   H3573     1.0  0.75819  0.15081  0.71102  1.0000
  H   H3574     1.0  0.84290  0.16128  0.71003  1.0000
  S   S592      1.0  0.76045  0.17074  0.62991  1.0000
  H   H3575     1.0  0.87160  0.99829  0.62960  1.0000
  C   C2115     1.0  0.69784  0.16218  0.72784  1.0000
  C   C2116     1.0  0.96611  0.04943  0.53027  1.0000
  H   H3576     1.0  0.81806  0.19690  0.80387  1.0000
  H   H3577     1.0  0.81930  0.16749  0.73682  1.0000
  C   C2117     1.0  0.75782  0.20386  0.73881  1.0000
  C   C2118     1.0  0.96653  0.02868  0.62756  1.0000
  H   H3578     1.0  0.75060  0.21214  0.72732  1.0000
  Fe  Fe294     1.0  0.66707  0.05134  0.70367  1.0000
  C   C2119     1.0  0.84896  0.06394  0.62146  1.0000
  H   H3579     1.0  0.82590  0.00146  0.56461  1.0000
  H   H3580     1.0  0.72905  0.22495  0.54457  1.0000
  H   H3581     1.0  0.83398  0.11448  0.59887  1.0000
  C   C2120     1.0  0.96847  0.02869  0.52985  1.0000
  C   C2121     1.0  0.89614  0.00540  0.47999  1.0000
  H   H3582     1.0  0.73726  0.19787  0.79584  1.0000
  S   S593      1.0  0.71449  0.21023  0.71963  1.0000
  S   S594      1.0  0.83849  0.19295  0.74886  1.0000
  S   S595      1.0  0.88909  0.20360  0.73110  1.0000
  Fe  Fe295     1.0  0.77040  0.19797  0.61805  1.0000
  H   H3583     1.0  0.86291  0.21050  0.63244  1.0000
  H   H3584     1.0  0.69674  0.08695  0.87354  1.0000
  S   S596      1.0  0.86564  0.20764  0.69893  1.0000
  H   H3585     1.0  0.70610  0.16349  0.59376  1.0000
  H   H3586     1.0  0.98161  0.00538  0.49441  1.0000
  H   H3587     1.0  0.74039  0.16496  0.59017  1.0000
  H   H3588     1.0  0.93157  0.01293  0.60857  1.0000
  Fe  Fe296     1.0  0.80176  0.21854  0.61242  1.0000
  C   C2122     1.0  0.94238  0.18783  0.73114  1.0000
  H   H3589     1.0  0.83823  0.21368  0.77770  1.0000
  H   H3590     1.0  0.71181  0.16172  0.56935  1.0000
  C   C2123     1.0  0.88680  0.01324  0.60439  1.0000
  H   H3591     1.0  0.66306  0.02156  0.78071  1.0000
  H   H3592     1.0  0.69747  0.08132  0.90531  1.0000
  H   H3593     1.0  0.97388  0.19535  0.73106  1.0000
  C   C2124     1.0  0.92258  0.00195  0.63797  1.0000
  Fe  Fe297     1.0  0.76387  0.22389  0.82338  1.0000
  C   C2125     1.0  0.68749  0.04045  0.90143  1.0000
  H   H3594     1.0  0.89498  0.02442  0.59997  1.0000
  C   C2126     1.0  0.71729  0.16655  0.77290  1.0000
  S   S597      1.0  0.75078  0.22418  0.60758  1.0000
  H   H3595     1.0  0.78708  0.20971  0.68915  1.0000
  C   C2127     1.0  0.95700  0.02418  0.64838  1.0000
  C   C2128     1.0  0.83434  0.22532  0.63315  1.0000
  H   H3596     1.0  0.87821  0.98669  0.48357  1.0000
  C   C2129     1.0  0.72118  0.19731  0.55547  1.0000
  H   H3597     1.0  0.70509  0.19801  0.61871  1.0000
  C   C2130     1.0  0.93574  0.02609  0.53523  1.0000
  C   C2131     1.0  0.85980  0.22313  0.79735  1.0000
  H   H3598     1.0  0.86918  0.04260  0.48569  1.0000
  H   H3599     1.0  0.95544  0.03063  0.61978  1.0000
  H   H3600     1.0  0.72319  0.14431  0.58603  1.0000
  H   H3601     1.0  0.95064  0.18940  0.69345  1.0000
  C   C2132     1.0  0.67837  0.02203  0.80962  1.0000
  Fe  Fe298     1.0  0.68343  0.21915  0.72762  1.0000
  H   H3602     1.0  0.96836  0.02055  0.54444  1.0000
  H   H3603     1.0  0.66025  0.00118  0.81630  1.0000
  H   H3604     1.0  0.96873  0.20207  0.68782  1.0000
  N   N152      1.0  0.95166  0.20186  0.71587  1.0000
  H   H3605     1.0  0.96928  0.05802  0.51593  1.0000
  H   H3606     1.0  0.97159  0.98669  0.65311  1.0000
  H   H3607     1.0  0.86833  0.99840  0.66191  1.0000
  H   H3608     1.0  0.96819  0.03572  0.49413  1.0000
  H   H3609     1.0  0.72974  0.19406  0.61017  1.0000
  N   N153      1.0  0.68491  0.05766  0.90913  1.0000
  H   H3610     1.0  0.93251  0.18293  0.72579  1.0000
  H   H3611     1.0  0.71835  0.03233  0.89565  1.0000
  H   H3612     1.0  0.67945  0.06022  0.95610  1.0000
  C   C2133     1.0  0.97867  0.99612  0.62206  1.0000
  C   C2134     1.0  0.81444  0.22428  0.73502  1.0000
  H   H3613     1.0  0.65694  0.09625  0.79928  1.0000
  H   H3614     1.0  0.82426  0.99590  0.50230  1.0000
  H   H3615     1.0  0.93657  0.01599  0.54883  1.0000
  H   H3616     1.0  0.68152  0.99019  0.79465  1.0000
  H   H3617     1.0  0.66592  0.08490  0.90832  1.0000
  H   H3618     1.0  0.66344  0.02324  0.86538  1.0000
  H   H3619     1.0  0.68415  0.02648  0.61535  1.0000
  H   H3620     1.0  0.67500  0.10991  0.81067  1.0000
  H   H3621     1.0  0.71197  0.22143  0.53440  1.0000
  C   C2135     1.0  0.72203  0.22367  0.69778  1.0000
  C   C2136     1.0  0.71675  0.19096  0.60885  1.0000
  H   H3622     1.0  0.89712  0.99985  0.60316  1.0000
  H   H3623     1.0  0.95010  0.01222  0.65149  1.0000
  H   H3624     1.0  0.66479  0.05656  0.85260  1.0000
  C   C2137     1.0  0.71668  0.21868  0.54776  1.0000
  H   H3625     1.0  0.66585  0.13167  0.81793  1.0000
  C   C2138     1.0  0.83078  0.22083  0.78952  1.0000
  H   H3626     1.0  0.96890  0.16228  0.71132  1.0000
  S   S598      1.0  0.69225  0.98936  0.86489  1.0000
  H   H3627     1.0  0.96436  0.99846  0.61950  1.0000
  H   H3628     1.0  0.67143  0.03482  0.80072  1.0000
  H   H3629     1.0  0.86818  0.22644  0.65477  1.0000
  H   H3630     1.0  0.71070  0.21398  0.58632  1.0000
  H   H3631     1.0  0.88516  0.20221  0.79102  1.0000
  H   H3632     1.0  0.97688  0.21244  0.70989  1.0000
  C   C2139     1.0  0.97572  0.17412  0.70329  1.0000
  H   H3633     1.0  0.87624  0.21497  0.77075  1.0000
  H   H3634     1.0  0.67087  0.07615  0.87577  1.0000
  Fe  Fe299     1.0  0.77540  0.23056  0.58496  1.0000
  H   H3635     1.0  0.67612  0.02787  0.64862  1.0000
  H   H3636     1.0  0.94437  0.22570  0.74053  1.0000
  H   H3637     1.0  0.65640  0.18009  0.70675  1.0000
  H   H3638     1.0  0.85090  0.98552  0.52803  1.0000
  H   H3639     1.0  0.66024  0.03428  0.61344  1.0000
  C   C2140     1.0  0.83198  0.99089  0.57590  1.0000
  C   C2141     1.0  0.81541  0.98795  0.59254  1.0000
  H   H3640     1.0  0.80831  0.00172  0.59633  1.0000
  C   C2142     1.0  0.80163  0.98794  0.52451  1.0000
  H   H3641     1.0  0.98609  0.17543  0.71055  1.0000
  H   H3642     1.0  0.98359  0.17032  0.68972  1.0000
  Fe  Fe300     1.0  0.65528  0.06399  0.74068  1.0000
  C   C2143     1.0  0.97747  0.02711  0.58710  1.0000
  H   H3643     1.0  0.98527  0.03069  0.57243  1.0000
  S   S599      1.0  0.74264  0.23282  0.80537  1.0000
  H   H3644     1.0  0.65571  0.05994  0.88813  1.0000
  H   H3645     1.0  0.84956  0.22479  0.97598  1.0000
  H   H3646     1.0  0.86882  0.23288  0.79654  1.0000
  H   H3647     1.0  0.98800  0.98895  0.61079  1.0000
  H   H3648     1.0  0.65475  0.06563  0.91813  1.0000
  Fe  Fe301     1.0  0.94284  0.34396  0.09579  1.0000
  S   S600      1.0  0.96330  0.33074  0.11453  1.0000
  S   S601      1.0  0.94277  0.33840  0.06804  1.0000
  Fe  Fe302     1.0  0.91825  0.36831  0.12223  1.0000
  S   S602      1.0  0.93634  0.35762  0.14369  1.0000
  S   S603      1.0  0.89052  0.38844  0.12389  1.0000
  Fe  Fe303     1.0  0.96027  0.35997  0.11868  1.0000
  C   C2144     1.0  0.69983  0.27278  0.21510  1.0000
  Fe  Fe304     1.0  0.93807  0.32933  0.13809  1.0000
  S   S604      1.0  0.93597  0.30239  0.15967  1.0000
  S   S605      1.0  0.94184  0.37323  0.09777  1.0000
  S   S606      1.0  0.91806  0.33991  0.11891  1.0000
  H   H3649     1.0  0.97424  0.40732  0.16264  1.0000
  Fe  Fe305     1.0  0.89974  0.26174  0.02191  1.0000
  H   H3650     1.0  0.84790  0.25517  0.99688  1.0000
  H   H3651     1.0  0.75028  0.25218  0.17706  1.0000
  Fe  Fe306     1.0  0.84684  0.40476  0.04306  1.0000
  S   S607      1.0  0.85188  0.37785  0.06412  1.0000
  S   S608      1.0  0.82155  0.41614  0.03013  1.0000
  Fe  Fe307     1.0  0.92637  0.25180  0.04820  1.0000
  C   C2145     1.0  0.81851  0.39213  0.97982  1.0000
  C   C2146     1.0  0.72846  0.45212  0.38407  1.0000
  H   H3652     1.0  0.82520  0.35194  0.02017  1.0000
  S   S609      1.0  0.92642  0.27033  0.01960  1.0000
  H   H3653     1.0  0.65869  0.30003  0.34408  1.0000
  C   C2147     1.0  0.82884  0.36247  0.02551  1.0000
  C   C2148     1.0  0.81176  0.47325  0.08985  1.0000
  Fe  Fe308     1.0  0.84332  0.26316  0.19760  1.0000
  S   S610      1.0  0.85262  0.29067  0.19099  1.0000
  Fe  Fe309     1.0  0.80925  0.24965  0.19587  1.0000
  S   S611      1.0  0.78208  0.25831  0.18610  1.0000
  S   S612      1.0  0.81547  0.26141  0.21716  1.0000
  S   S613      1.0  0.83579  0.25396  0.17524  1.0000
  H   H3654     1.0  0.83743  0.39699  0.09490  1.0000
  Fe  Fe310     1.0  0.68010  0.41900  0.35776  1.0000
  H   H3655     1.0  0.87455  0.27156  0.26601  1.0000
  S   S614      1.0  0.68228  0.39550  0.34365  1.0000
  Fe  Fe311     1.0  0.68836  0.45647  0.35719  1.0000
  S   S615      1.0  0.67441  0.45519  0.38753  1.0000
  H   H3656     1.0  0.91918  0.44131  0.10644  1.0000
  Fe  Fe312     1.0  0.68914  0.42499  0.39216  1.0000
  S   S616      1.0  0.70076  0.41369  0.41845  1.0000
  C   C2149     1.0  0.81207  0.46625  0.07431  1.0000
  S   S617      1.0  0.70506  0.42683  0.36230  1.0000
  H   H3657     1.0  0.97083  0.46840  0.12135  1.0000
  H   H3658     1.0  0.82460  0.35995  0.04103  1.0000
  S   S618      1.0  0.70437  0.32701  0.45222  1.0000
  H   H3659     1.0  0.66770  0.28162  0.46419  1.0000
  H   H3660     1.0  0.84639  0.30250  0.99187  1.0000
  H   H3661     1.0  0.85306  0.26867  0.28120  1.0000
  C   C2150     1.0  0.70288  0.35121  0.44321  1.0000
  C   C2151     1.0  0.70303  0.36316  0.45444  1.0000
  C   C2152     1.0  0.70253  0.38232  0.44671  1.0000
  C   C2153     1.0  0.70156  0.38964  0.42783  1.0000
  C   C2154     1.0  0.70122  0.37771  0.41668  1.0000
  C   C2155     1.0  0.70218  0.35850  0.42429  1.0000
  H   H3662     1.0  0.83618  0.25459  0.04784  1.0000
  C   C2156     1.0  0.89131  0.46529  0.02065  1.0000
  H   H3663     1.0  0.70059  0.38321  0.40208  1.0000
  H   H3664     1.0  0.70226  0.34928  0.41549  1.0000
  H   H3665     1.0  0.79691  0.37722  0.98273  1.0000
  H   H3666     1.0  0.91634  0.45176  0.05824  1.0000
  H   H3667     1.0  0.75082  0.30320  0.45249  1.0000
  H   H3668     1.0  0.85912  0.25032  0.03389  1.0000
  H   H3669     1.0  0.82024  0.37605  0.01971  1.0000
  H   H3670     1.0  0.88257  0.44081  0.97939  1.0000
  C   C2157     1.0  0.85919  0.26465  0.23912  1.0000
  C   C2158     1.0  0.76540  0.24509  0.19924  1.0000
  C   C2159     1.0  0.84960  0.36355  0.01900  1.0000
  C   C2160     1.0  0.75072  0.24491  0.19138  1.0000
  H   H3671     1.0  0.68776  0.29951  0.24456  1.0000
  Fe  Fe313     1.0  0.65856  0.24823  0.21251  1.0000
  H   H3672     1.0  0.65704  0.31352  0.38749  1.0000
  C   C2161     1.0  0.87341  0.47533  0.02687  1.0000
  H   H3673     1.0  0.70368  0.35763  0.46902  1.0000
  C   C2162     1.0  0.66363  0.39681  0.33324  1.0000
  H   H3674     1.0  0.77204  0.31314  0.46271  1.0000
  H   H3675     1.0  0.90024  0.30204  0.09378  1.0000
  C   C2163     1.0  0.97467  0.32263  0.02095  1.0000
  C   C2164     1.0  0.97906  0.39165  0.14110  1.0000
  H   H3676     1.0  0.89881  0.32216  0.10202  1.0000
  C   C2165     1.0  0.75424  0.47310  0.32876  1.0000
  C   C2166     1.0  0.73569  0.47060  0.33380  1.0000
  C   C2167     1.0  0.80178  0.47700  0.06087  1.0000
  H   H3677     1.0  0.88410  0.41749  0.07775  1.0000
  H   H3678     1.0  0.90148  0.41345  0.04632  1.0000
  H   H3679     1.0  0.76571  0.46106  0.32793  1.0000
  H   H3680     1.0  0.73290  0.45669  0.33680  1.0000
  C   C2168     1.0  0.85935  0.34617  0.98512  1.0000
  H   H3681     1.0  0.76005  0.47970  0.26906  1.0000
  H   H3682     1.0  0.75731  0.27906  0.46488  1.0000
  H   H3683     1.0  0.85109  0.27179  0.12725  1.0000
  S   S619      1.0  0.68751  0.24068  0.19522  1.0000
  C   C2169     1.0  0.86243  0.32175  0.12482  1.0000
  S   S620      1.0  0.84351  0.44931  0.00420  1.0000
  H   H3684     1.0  0.85948  0.23870  0.11154  1.0000
  H   H3685     1.0  0.97678  0.30486  0.98774  1.0000
  S   S621      1.0  0.89407  0.44466  0.01288  1.0000
  C   C2170     1.0  0.91289  0.29898  0.16899  1.0000
  C   C2171     1.0  0.89776  0.31429  0.16877  1.0000
  C   C2172     1.0  0.87944  0.31146  0.17604  1.0000
  C   C2173     1.0  0.87602  0.29330  0.18320  1.0000
  C   C2174     1.0  0.89113  0.27793  0.18342  1.0000
  C   C2175     1.0  0.90955  0.28081  0.17656  1.0000
  H   H3686     1.0  0.90016  0.32836  0.16313  1.0000
  H   H3687     1.0  0.86782  0.32341  0.17585  1.0000
  H   H3688     1.0  0.88864  0.26388  0.18887  1.0000
  H   H3689     1.0  0.92122  0.26891  0.17676  1.0000
  H   H3690     1.0  0.83482  0.32814  0.04508  1.0000
  C   C2176     1.0  0.95491  0.33183  0.18596  1.0000
  H   H3691     1.0  0.75621  0.34295  0.45225  1.0000
  C   C2177     1.0  0.93908  0.31603  0.07012  1.0000
  C   C2178     1.0  0.93188  0.31251  0.05646  1.0000
  C   C2179     1.0  0.92954  0.29443  0.05760  1.0000
  C   C2180     1.0  0.93486  0.27979  0.07213  1.0000
  C   C2181     1.0  0.94204  0.28334  0.08578  1.0000
  C   C2182     1.0  0.94388  0.30150  0.08495  1.0000
  H   H3692     1.0  0.92809  0.32379  0.04503  1.0000
  H   H3693     1.0  0.92373  0.29183  0.04719  1.0000
  H   H3694     1.0  0.94948  0.30417  0.09551  1.0000
  C   C2183     1.0  0.86272  0.38165  0.08017  1.0000
  C   C2184     1.0  0.88190  0.37473  0.07910  1.0000
  C   C2185     1.0  0.89051  0.37718  0.09228  1.0000
  C   C2186     1.0  0.87993  0.38632  0.10675  1.0000
  C   C2187     1.0  0.86084  0.39374  0.10748  1.0000
  C   C2188     1.0  0.85224  0.39144  0.09416  1.0000
  H   H3695     1.0  0.89015  0.36747  0.06810  1.0000
  H   H3696     1.0  0.90535  0.37194  0.09119  1.0000
  H   H3697     1.0  0.85263  0.40099  0.11850  1.0000
  H   H3698     1.0  0.94623  0.27202  0.09702  1.0000
  H   H3699     1.0  0.93031  0.41716  0.11061  1.0000
  S   S622      1.0  0.85771  0.23433  0.21038  1.0000
  H   H3700     1.0  0.85217  0.37074  0.02879  1.0000
  N   N154      1.0  0.86370  0.34535  0.01805  1.0000
  H   H3701     1.0  0.94166  0.32674  0.18976  1.0000
  C   C2189     1.0  0.86049  0.33492  0.00512  1.0000
  H   H3702     1.0  0.87181  0.32220  0.00388  1.0000
  H   H3703     1.0  0.85265  0.45789  0.10321  1.0000
  H   H3704     1.0  0.75789  0.46991  0.37121  1.0000
  C   C2190     1.0  0.74543  0.43757  0.37649  1.0000
  C   C2191     1.0  0.84932  0.32041  0.04526  1.0000
  H   H3705     1.0  0.88260  0.36157  0.99743  1.0000
  S   S623      1.0  0.66470  0.44875  0.35015  1.0000
  H   H3706     1.0  0.89603  0.34421  0.03446  1.0000
  H   H3707     1.0  0.75521  0.44419  0.36451  1.0000
  N   N155      1.0  0.73279  0.46610  0.39240  1.0000
  H   H3708     1.0  0.81968  0.46471  0.10022  1.0000
  H   H3709     1.0  0.86971  0.24878  0.30669  1.0000
  H   H3710     1.0  0.67180  0.26809  0.36273  1.0000
  H   H3711     1.0  0.82000  0.45236  0.07297  1.0000
  H   H3712     1.0  0.86219  0.34155  0.04781  1.0000
  H   H3713     1.0  0.75335  0.48155  0.06909  1.0000
  H   H3714     1.0  0.85928  0.27804  0.24243  1.0000
  H   H3715     1.0  0.84789  0.26779  0.23127  1.0000
  C   C2192     1.0  0.97605  0.48091  0.11379  1.0000
  H   H3716     1.0  0.96899  0.30552  0.17774  1.0000
  C   C2193     1.0  0.98403  0.40262  0.15069  1.0000
  C   C2194     1.0  0.76598  0.23561  0.21771  1.0000
  C   C2195     1.0  0.90700  0.47176  0.02065  1.0000
  H   H3717     1.0  0.75838  0.44975  0.40118  1.0000
  H   H3718     1.0  0.72144  0.44717  0.43084  1.0000
  H   H3719     1.0  0.68185  0.27958  0.37462  1.0000
  C   C2196     1.0  0.86839  0.29248  0.11406  1.0000
  S   S624      1.0  0.89812  0.24596  0.05167  1.0000
  C   C2197     1.0  0.73651  0.23549  0.20199  1.0000
  H   H3720     1.0  0.66621  0.37099  0.45995  1.0000
  C   C2198     1.0  0.91726  0.42709  0.10747  1.0000
  C   C2199     1.0  0.85712  0.29381  0.98339  1.0000
  C   C2200     1.0  0.74417  0.47832  0.37707  1.0000
  H   H3721     1.0  0.67426  0.31780  0.23068  1.0000
  H   H3722     1.0  0.87351  0.31722  0.07846  1.0000
  H   H3723     1.0  0.95943  0.33037  0.19907  1.0000
  H   H3724     1.0  0.74038  0.42786  0.37121  1.0000
  H   H3725     1.0  0.84063  0.25466  0.26442  1.0000
  H   H3726     1.0  0.89761  0.30660  0.13315  1.0000
  H   H3727     1.0  0.85265  0.30879  0.03773  1.0000
  H   H3728     1.0  0.69656  0.25875  0.22173  1.0000
  H   H3729     1.0  0.87761  0.32295  0.03747  1.0000
  C   C2201     1.0  0.86776  0.26107  0.27714  1.0000
  H   H3730     1.0  0.85903  0.29967  0.10405  1.0000
  H   H3731     1.0  0.87653  0.27077  0.29740  1.0000
  H   H3732     1.0  0.90363  0.36206  0.01542  1.0000
  H   H3733     1.0  0.88027  0.29389  0.14630  1.0000
  H   H3734     1.0  0.92712  0.42427  0.07874  1.0000
  C   C2202     1.0  0.85622  0.28220  0.13145  1.0000
  H   H3735     1.0  0.84743  0.32955  0.01063  1.0000
  H   H3736     1.0  0.85403  0.23694  0.25240  1.0000
  H   H3737     1.0  0.91155  0.40970  0.09274  1.0000
  S   S625      1.0  0.93292  0.25690  0.07346  1.0000
  S   S626      1.0  0.86735  0.40694  0.01573  1.0000
  H   H3738     1.0  0.70587  0.27281  0.20007  1.0000
  C   C2203     1.0  0.88016  0.32566  0.08365  1.0000
  H   H3739     1.0  0.91612  0.42889  0.04508  1.0000
  C   C2204     1.0  0.89191  0.42845  0.06908  1.0000
  H   H3740     1.0  0.87661  0.34565  0.11347  1.0000
  N   N156      1.0  0.71979  0.29445  0.21768  1.0000
  C   C2205     1.0  0.73222  0.29413  0.19852  1.0000
  C   C2206     1.0  0.71365  0.27600  0.22501  1.0000
  C   C2207     1.0  0.73002  0.29690  0.23113  1.0000
  C   C2208     1.0  0.70335  0.31070  0.21594  1.0000
  C   C2209     1.0  0.74236  0.31057  0.18973  1.0000
  H   H3741     1.0  0.89206  0.25019  0.29081  1.0000
  C   C2210     1.0  0.74821  0.28217  0.23350  1.0000
  C   C2211     1.0  0.68838  0.31274  0.23409  1.0000
  H   H3742     1.0  0.74316  0.28104  0.19868  1.0000
  H   H3743     1.0  0.72411  0.29395  0.18832  1.0000
  H   H3744     1.0  0.70745  0.27378  0.24027  1.0000
  H   H3745     1.0  0.72591  0.26414  0.22381  1.0000
  H   H3746     1.0  0.73343  0.31105  0.22708  1.0000
  H   H3747     1.0  0.72088  0.29638  0.24537  1.0000
  H   H3748     1.0  0.70812  0.32420  0.21104  1.0000
  H   H3749     1.0  0.69634  0.31064  0.20475  1.0000
  H   H3750     1.0  0.75213  0.31109  0.19809  1.0000
  H   H3751     1.0  0.75102  0.30846  0.17580  1.0000
  H   H3752     1.0  0.73248  0.32426  0.18734  1.0000
  C   C2212     1.0  0.86385  0.33296  0.03734  1.0000
  H   H3753     1.0  0.85754  0.44930  0.08230  1.0000
  H   H3754     1.0  0.75871  0.28191  0.22017  1.0000
  H   H3755     1.0  0.74547  0.26789  0.23973  1.0000
  C   C2213     1.0  0.84419  0.25174  0.03394  1.0000
  H   H3756     1.0  0.97103  0.25709  0.04777  1.0000
  H   H3757     1.0  0.91712  0.40668  0.06188  1.0000
  C   C2214     1.0  0.88280  0.35007  0.01015  1.0000
  C   C2215     1.0  0.96910  0.29355  0.99500  1.0000
  N   N157      1.0  0.89775  0.43780  0.08134  1.0000
  C   C2216     1.0  0.87299  0.28299  0.99015  1.0000
  H   H3758     1.0  0.88133  0.36723  0.03049  1.0000
  H   H3759     1.0  0.68905  0.28135  0.34994  1.0000
  H   H3760     1.0  0.84700  0.35790  0.98529  1.0000
  H   H3761     1.0  0.86402  0.27435  0.14259  1.0000
  H   H3762     1.0  0.85440  0.31632  0.13897  1.0000
  H   H3763     1.0  0.82497  0.23566  0.03300  1.0000
  H   H3764     1.0  0.84992  0.31377  0.06011  1.0000
  C   C2217     1.0  0.88842  0.23804  0.25937  1.0000
  H   H3765     1.0  0.86124  0.47048  0.02682  1.0000
  H   H3766     1.0  0.95673  0.29474  0.02420  1.0000
  H   H3767     1.0  0.71823  0.44431  0.39434  1.0000
  C   C2218     1.0  0.73542  0.44129  0.42304  1.0000
  H   H3768     1.0  0.86644  0.46926  0.08257  1.0000
  H   H3769     1.0  0.90592  0.48302  0.07058  1.0000
  C   C2219     1.0  0.98277  0.26072  0.05120  1.0000
  H   H3770     1.0  0.66093  0.36421  0.42394  1.0000
  C   C2220     1.0  0.66179  0.29898  0.35796  1.0000
  H   H3771     1.0  0.88434  0.44801  0.10711  1.0000
  Fe  Fe314     1.0  0.82489  0.44416  0.03289  1.0000
  H   H3772     1.0  0.70278  0.39151  0.45538  1.0000
  H   H3773     1.0  0.89080  0.33111  0.07168  1.0000
  H   H3774     1.0  0.89314  0.46392  0.06096  1.0000
  H   H3775     1.0  0.97134  0.29006  0.04950  1.0000
  H   H3776     1.0  0.89324  0.33783  0.00549  1.0000
  C   C2221     1.0  0.90376  0.45535  0.06920  1.0000
  H   H3777     1.0  0.75308  0.42875  0.38744  1.0000
  H   H3778     1.0  0.97988  0.25854  0.06672  1.0000
  C   C2222     1.0  0.85506  0.24943  0.25687  1.0000
  H   H3779     1.0  0.85686  0.34900  0.13203  1.0000
  S   S627      1.0  0.66569  0.41488  0.38802  1.0000
  H   H3780     1.0  0.87685  0.42865  0.10524  1.0000
  H   H3781     1.0  0.66872  0.31083  0.35587  1.0000
  S   S628      1.0  0.87497  0.28285  0.01282  1.0000
  H   H3782     1.0  0.90592  0.42359  0.11965  1.0000
  S   S629      1.0  0.95907  0.24675  0.97998  1.0000
  C   C2223     1.0  0.90779  0.41894  0.05489  1.0000
  S   S630      1.0  0.80154  0.46830  0.04142  1.0000
  H   H3783     1.0  0.66991  0.36712  0.33429  1.0000
  Fe  Fe315     1.0  0.84238  0.42021  0.00271  1.0000
  H   H3784     1.0  0.89952  0.26435  0.98356  1.0000
  H   H3785     1.0  0.96550  0.38796  0.14568  1.0000
  C   C2224     1.0  0.90870  0.46842  0.07885  1.0000
  C   C2225     1.0  0.88685  0.27197  0.97897  1.0000
  H   H3786     1.0  0.92372  0.46438  0.07958  1.0000
  H   H3787     1.0  0.90004  0.46922  0.09296  1.0000
  H   H3788     1.0  0.96304  0.32451  0.15945  1.0000
  H   H3789     1.0  0.72142  0.45936  0.37219  1.0000
  H   H3790     1.0  0.83951  0.26420  0.02338  1.0000
  C   C2226     1.0  0.89005  0.31371  0.09961  1.0000
  S   S631      1.0  0.91340  0.23618  0.00993  1.0000
  H   H3791     1.0  0.74464  0.43541  0.43332  1.0000
  C   C2227     1.0  0.74388  0.45636  0.40739  1.0000
  H   H3792     1.0  0.91294  0.28037  0.11526  1.0000
  N   N158      1.0  0.87752  0.30625  0.11764  1.0000
  H   H3793     1.0  0.88101  0.24049  0.11545  1.0000
  H   H3794     1.0  0.95444  0.29947  0.99332  1.0000
  H   H3795     1.0  0.92089  0.46400  0.01580  1.0000
  N   N159      1.0  0.98697  0.28722  0.02162  1.0000
  C   C2228     1.0  0.89119  0.35623  0.02353  1.0000
  H   H3796     1.0  0.75906  0.48085  0.09048  1.0000
  H   H3797     1.0  0.74558  0.46668  0.41458  1.0000
  H   H3798     1.0  0.86974  0.33806  0.08767  1.0000
  H   H3799     1.0  0.66159  0.39032  0.43178  1.0000
  S   S632      1.0  0.84862  0.43210  0.04796  1.0000
  Fe  Fe316     1.0  0.86686  0.43539  0.01930  1.0000
  C   C2229     1.0  0.86359  0.45539  0.09056  1.0000
  H   H3800     1.0  0.84368  0.29196  0.13742  1.0000
  C   C2230     1.0  0.74619  0.29197  0.46424  1.0000
  H   H3801     1.0  0.85192  0.32741  0.11579  1.0000
  C   C2231     1.0  0.90325  0.27856  0.12901  1.0000
  C   C2232     1.0  0.91375  0.42430  0.08932  1.0000
  H   H3802     1.0  0.69077  0.32296  0.24093  1.0000
  C   C2233     1.0  0.66078  0.38041  0.33009  1.0000
  C   C2234     1.0  0.88925  0.29697  0.13216  1.0000
  H   H3803     1.0  0.91192  0.27400  0.13980  1.0000
  H   H3804     1.0  0.73447  0.42936  0.41767  1.0000
  H   H3805     1.0  0.87903  0.28171  0.10715  1.0000
  H   H3806     1.0  0.69893  0.48354  0.37868  1.0000
  H   H3807     1.0  0.88208  0.43868  0.06071  1.0000
  H   H3808     1.0  0.89618  0.26703  0.13051  1.0000
  H   H3809     1.0  0.96321  0.32448  0.01367  1.0000
  H   H3810     1.0  0.87813  0.33417  0.13739  1.0000
  H   H3811     1.0  0.75474  0.28570  0.24328  1.0000
  C   C2235     1.0  0.88107  0.44194  0.09685  1.0000
  C   C2236     1.0  0.86917  0.33844  0.12694  1.0000
  H   H3812     1.0  0.74265  0.47961  0.12028  1.0000
  H   H3813     1.0  0.85126  0.37391  0.00544  1.0000
  C   C2237     1.0  0.87713  0.25720  0.29395  1.0000
  H   H3814     1.0  0.68638  0.28312  0.21660  1.0000
  H   H3815     1.0  0.95149  0.34696  0.17939  1.0000
  C   C2238     1.0  0.67676  0.28089  0.36179  1.0000
  C   C2239     1.0  0.84438  0.24162  0.99758  1.0000
  H   H3816     1.0  0.82887  0.24444  0.99960  1.0000
  H   H3817     1.0  0.96699  0.27235  0.01983  1.0000
  H   H3818     1.0  0.98291  0.34698  0.18084  1.0000
  H   H3819     1.0  0.81167  0.39812  0.99200  1.0000
  H   H3820     1.0  0.66224  0.27852  0.27054  1.0000
  C   C2240     1.0  0.96943  0.28687  0.01608  1.0000
  H   H3821     1.0  0.66277  0.41315  0.44630  1.0000
  H   H3822     1.0  0.74653  0.34786  0.47533  1.0000
  C   C2241     1.0  0.96929  0.32064  0.17206  1.0000
  C   C2242     1.0  0.65965  0.27013  0.44505  1.0000
  Fe  Fe317     1.0  0.94029  0.24391  0.00890  1.0000
  H   H3823     1.0  0.83978  0.24634  0.30102  1.0000
  H   H3824     1.0  0.73423  0.28855  0.46089  1.0000
  H   H3825     1.0  0.87535  0.23842  0.00775  1.0000
  C   C2243     1.0  0.98428  0.28133  0.04266  1.0000
  H   H3826     1.0  0.98023  0.35352  0.15736  1.0000
  H   H3827     1.0  0.96915  0.32056  0.03627  1.0000
  S   S633      1.0  0.98749  0.36912  0.11500  1.0000
  H   H3828     1.0  0.98268  0.30884  0.20724  1.0000
  H   H3829     1.0  0.70542  0.46827  0.41086  1.0000
  C   C2244     1.0  0.65973  0.27231  0.46288  1.0000
  C   C2245     1.0  0.71460  0.47758  0.40111  1.0000
  H   H3830     1.0  0.66330  0.34845  0.44625  1.0000
  H   H3831     1.0  0.66747  0.27787  0.43271  1.0000
  H   H3832     1.0  0.66384  0.26532  0.24344  1.0000
  H   H3833     1.0  0.97496  0.28171  0.98764  1.0000
  H   H3834     1.0  0.87929  0.23876  0.09261  1.0000
  H   H3835     1.0  0.98255  0.29900  0.14700  1.0000
  H   H3836     1.0  0.98685  0.23596  0.00338  1.0000
  C   C2246     1.0  0.74949  0.33710  0.46681  1.0000
  H   H3837     1.0  0.73621  0.33477  0.46546  1.0000
  H   H3838     1.0  0.73678  0.47614  0.09016  1.0000
  H   H3839     1.0  0.97960  0.33602  0.01656  1.0000
  H   H3840     1.0  0.87247  0.25997  0.22949  1.0000
  N   N160      1.0  0.86865  0.24415  0.26968  1.0000
  C   C2247     1.0  0.76268  0.31909  0.47475  1.0000
  H   H3841     1.0  0.89346  0.25003  0.24890  1.0000
  H   H3842     1.0  0.72535  0.23535  0.19575  1.0000
  H   H3843     1.0  0.77723  0.23584  0.22389  1.0000
  H   H3844     1.0  0.65808  0.28959  0.39610  1.0000
  C   C2248     1.0  0.87489  0.23376  0.10794  1.0000
  H   H3845     1.0  0.69465  0.24079  0.69573  1.0000
  Fe  Fe318     1.0  0.76482  0.26433  0.82374  1.0000
  N   N161      1.0  0.66096  0.30842  0.80545  1.0000
  S   S634      1.0  0.78486  0.27960  0.82889  1.0000
  Fe  Fe319     1.0  0.72864  0.25399  0.82308  1.0000
  C   C2249     1.0  0.76076  0.36626  0.89719  1.0000
  S   S635      1.0  0.69719  0.25869  0.83138  1.0000
  H   H3846     1.0  0.85691  0.39244  0.94446  1.0000
  H   H3847     1.0  0.66303  0.37713  0.48988  1.0000
  Fe  Fe320     1.0  0.75901  0.25443  0.78877  1.0000
  S   S636      1.0  0.76701  0.25710  0.75760  1.0000
  C   C2250     1.0  0.76916  0.26791  0.70051  1.0000
  S   S637      1.0  0.74364  0.27669  0.80512  1.0000
  H   H3848     1.0  0.82066  0.26927  0.77458  1.0000
  H   H3849     1.0  0.90724  0.43596  0.97462  1.0000
  H   H3850     1.0  0.84820  0.32386  0.84513  1.0000
  C   C2251     1.0  0.73434  0.24535  0.66279  1.0000
  C   C2252     1.0  0.76893  0.28721  0.49333  1.0000
  C   C2253     1.0  0.88445  0.27092  0.96160  1.0000
  C   C2254     1.0  0.98291  0.24757  0.97517  1.0000
  H   H3851     1.0  0.90737  0.29854  0.78962  1.0000
  H   H3852     1.0  0.94946  0.26171  0.93172  1.0000
  S   S638      1.0  0.84402  0.25537  0.67412  1.0000
  C   C2255     1.0  0.89871  0.30885  0.79822  1.0000
  H   H3853     1.0  0.70457  0.25496  0.79213  1.0000
  H   H3854     1.0  0.75205  0.34236  0.91698  1.0000
  C   C2256     1.0  0.82327  0.24857  0.65272  1.0000
  C   C2257     1.0  0.87103  0.31705  0.82203  1.0000
  C   C2258     1.0  0.73580  0.26595  0.70510  1.0000
  H   H3855     1.0  0.93257  0.24592  0.69114  1.0000
  C   C2259     1.0  0.76124  0.38579  0.94689  1.0000
  H   H3856     1.0  0.78099  0.25054  0.67900  1.0000
  H   H3857     1.0  0.72139  0.32846  0.52278  1.0000
  H   H3858     1.0  0.91789  0.27583  0.81546  1.0000
  C   C2260     1.0  0.89198  0.47309  0.96256  1.0000
  C   C2261     1.0  0.74517  0.31120  0.50760  1.0000
  H   H3859     1.0  0.68638  0.31056  0.78413  1.0000
  Fe  Fe321     1.0  0.84350  0.33806  0.88995  1.0000
  S   S639      1.0  0.81296  0.34949  0.90020  1.0000
  S   S640      1.0  0.86171  0.35220  0.86444  1.0000
  Fe  Fe322     1.0  0.84504  0.30452  0.92156  1.0000
  S   S641      1.0  0.81470  0.31265  0.93448  1.0000
  S   S642      1.0  0.86575  0.27980  0.93321  1.0000
  Fe  Fe323     1.0  0.81000  0.31953  0.90495  1.0000
  S   S643      1.0  0.78547  0.31092  0.89955  1.0000
  Fe  Fe324     1.0  0.82016  0.34175  0.92876  1.0000
  S   S644      1.0  0.80727  0.35836  0.95198  1.0000
  S   S645      1.0  0.83999  0.30881  0.89265  1.0000
  S   S646      1.0  0.85088  0.33287  0.91791  1.0000
  H   H3860     1.0  0.83488  0.26939  0.75168  1.0000
  Fe  Fe325     1.0  0.96348  0.29555  0.77121  1.0000
  S   S647      1.0  0.96689  0.27495  0.79814  1.0000
  S   S648      1.0  0.95555  0.28897  0.74677  1.0000
  Fe  Fe326     1.0  0.97568  0.32595  0.78322  1.0000
  C   C2262     1.0  0.78356  0.28912  0.50318  1.0000
  H   H3861     1.0  0.82085  0.25231  0.76148  1.0000
  Fe  Fe327     1.0  0.95267  0.29956  0.81166  1.0000
  S   S649      1.0  0.93258  0.29194  0.83873  1.0000
  S   S650      1.0  0.94750  0.31989  0.78495  1.0000
  H   H3862     1.0  0.82875  0.26729  0.81966  1.0000
  H   H3863     1.0  0.83886  0.27211  0.79531  1.0000
  H   H3864     1.0  0.89502  0.26196  0.95326  1.0000
  Fe  Fe328     1.0  0.68202  0.30399  0.52155  1.0000
  S   S651      1.0  0.69409  0.29789  0.54736  1.0000
  H   H3865     1.0  0.91984  0.47954  0.95795  1.0000
  S   S652      1.0  0.67683  0.33312  0.50363  1.0000
  H   H3866     1.0  0.68651  0.32695  0.81036  1.0000
  H   H3867     1.0  0.90656  0.25709  0.82816  1.0000
  C   C2263     1.0  0.66059  0.30011  0.77458  1.0000
  H   H3868     1.0  0.66269  0.33597  0.78765  1.0000
  H   H3869     1.0  0.87574  0.27644  0.82988  1.0000
  C   C2264     1.0  0.88260  0.33636  0.85804  1.0000
  C   C2265     1.0  0.89606  0.34159  0.84207  1.0000
  C   C2266     1.0  0.91186  0.32816  0.83610  1.0000
  C   C2267     1.0  0.91394  0.30954  0.84602  1.0000
  C   C2268     1.0  0.90069  0.30450  0.86212  1.0000
  C   C2269     1.0  0.88535  0.31796  0.86834  1.0000
  H   H3870     1.0  0.89407  0.35589  0.83414  1.0000
  H   H3871     1.0  0.92217  0.33214  0.82370  1.0000
  H   H3872     1.0  0.90216  0.29012  0.86979  1.0000
  H   H3873     1.0  0.87557  0.31398  0.88105  1.0000
  H   H3874     1.0  0.93092  0.47033  0.91559  1.0000
  H   H3875     1.0  0.74739  0.37656  0.89720  1.0000
  C   C2270     1.0  0.86860  0.30015  0.79979  1.0000
  C   C2271     1.0  0.88731  0.28421  0.82438  1.0000
  H   H3876     1.0  0.78097  0.37212  0.92571  1.0000
  H   H3877     1.0  0.90864  0.33019  0.77493  1.0000
  H   H3878     1.0  0.73832  0.29610  0.65213  1.0000
  H   H3879     1.0  0.96190  0.23719  0.72393  1.0000
  H   H3880     1.0  0.65629  0.28945  0.56948  1.0000
  S   S653      1.0  0.84657  0.41150  0.97493  1.0000
  H   H3881     1.0  0.66066  0.29551  0.64151  1.0000
  C   C2272     1.0  0.81861  0.37278  0.95838  1.0000
  N   N162      1.0  0.75377  0.30444  0.48947  1.0000
  C   C2273     1.0  0.67953  0.24829  0.78914  1.0000
  H   H3882     1.0  0.84224  0.37150  0.93524  1.0000
  C   C2274     1.0  0.74891  0.25545  0.55348  1.0000
  C   C2275     1.0  0.74147  0.25811  0.53764  1.0000
  C   C2276     1.0  0.72434  0.27066  0.53585  1.0000
  C   C2277     1.0  0.71487  0.28102  0.54965  1.0000
  C   C2278     1.0  0.72227  0.27822  0.56553  1.0000
  C   C2279     1.0  0.73916  0.26538  0.56752  1.0000
  H   H3883     1.0  0.96427  0.30641  0.88173  1.0000
  H   H3884     1.0  0.71850  0.27240  0.52381  1.0000
  H   H3885     1.0  0.71501  0.28616  0.57628  1.0000
  C   C2280     1.0  0.76548  0.37619  0.93016  1.0000
  H   H3886     1.0  0.73910  0.25379  0.69838  1.0000
  H   H3887     1.0  0.88130  0.27283  0.79198  1.0000
  H   H3888     1.0  0.76265  0.35852  0.88598  1.0000
  S   S654      1.0  0.66848  0.24796  0.73201  1.0000
  C   C2281     1.0  0.91198  0.25693  0.74540  1.0000
  C   C2282     1.0  0.92211  0.26606  0.72883  1.0000
  C   C2283     1.0  0.93541  0.27570  0.72953  1.0000
  C   C2284     1.0  0.93874  0.27641  0.74675  1.0000
  C   C2285     1.0  0.92877  0.26707  0.76331  1.0000
  H   H3889     1.0  0.72295  0.24895  0.73061  1.0000
  H   H3890     1.0  0.91947  0.26602  0.71549  1.0000
  H   H3891     1.0  0.94303  0.28290  0.71663  1.0000
  H   H3892     1.0  0.93142  0.26725  0.77660  1.0000
  H   H3893     1.0  0.92540  0.45121  0.94648  1.0000
  H   H3894     1.0  0.74635  0.24932  0.73046  1.0000
  H   H3895     1.0  0.84271  0.30160  0.96053  1.0000
  S   S655      1.0  0.74849  0.24317  0.84317  1.0000
  C   C2286     1.0  0.66711  0.24800  0.82746  1.0000
  H   H3896     1.0  0.85838  0.29950  0.84845  1.0000
  H   H3897     1.0  0.72312  0.28597  0.67220  1.0000
  N   N163      1.0  0.75683  0.35946  0.93358  1.0000
  C   C2287     1.0  0.83560  0.37711  0.94770  1.0000
  H   H3898     1.0  0.93179  0.32349  0.89474  1.0000
  H   H3899     1.0  0.81230  0.25942  0.65813  1.0000
  C   C2288     1.0  0.78490  0.28764  0.84902  1.0000
  C   C2289     1.0  0.77012  0.28739  0.86467  1.0000
  C   C2290     1.0  0.77057  0.29446  0.88002  1.0000
  C   C2291     1.0  0.78588  0.30165  0.88006  1.0000
  C   C2292     1.0  0.80077  0.30170  0.86449  1.0000
  C   C2293     1.0  0.80021  0.29484  0.84905  1.0000
  H   H3900     1.0  0.75825  0.28192  0.86488  1.0000
  H   H3901     1.0  0.75897  0.29433  0.89195  1.0000
  H   H3902     1.0  0.81258  0.30726  0.86425  1.0000
  H   H3903     1.0  0.81166  0.29522  0.83701  1.0000
  H   H3904     1.0  0.79404  0.27569  0.50475  1.0000
  H   H3905     1.0  0.79129  0.30020  0.49495  1.0000
  H   H3906     1.0  0.73402  0.28696  0.49380  1.0000
  C   C2294     1.0  0.81012  0.38036  0.97445  1.0000
  C   C2295     1.0  0.78537  0.23787  0.75390  1.0000
  H   H3907     1.0  0.89012  0.28722  0.83691  1.0000
  H   H3908     1.0  0.77726  0.29157  0.51756  1.0000
  C   C2296     1.0  0.76093  0.32487  0.95191  1.0000
  H   H3909     1.0  0.84293  0.31019  0.83208  1.0000
  H   H3910     1.0  0.79746  0.25129  0.72611  1.0000
  H   H3911     1.0  0.76689  0.37642  0.95899  1.0000
  H   H3912     1.0  0.76116  0.38738  0.91840  1.0000
  C   C2297     1.0  0.91550  0.25739  0.76261  1.0000
  H   H3913     1.0  0.87890  0.47440  0.93260  1.0000
  Fe  Fe329     1.0  0.68543  0.31808  0.47984  1.0000
  H   H3914     1.0  0.74609  0.39142  0.95135  1.0000
  S   S656      1.0  0.89436  0.23611  0.69216  1.0000
  S   S657      1.0  0.78129  0.24405  0.80537  1.0000
  H   H3915     1.0  0.70560  0.25997  0.66465  1.0000
  H   H3916     1.0  0.72850  0.30115  0.70480  1.0000
  H   H3917     1.0  0.88570  0.32818  0.77534  1.0000
  C   C2298     1.0  0.79868  0.23885  0.73710  1.0000
  H   H3918     1.0  0.70734  0.31112  0.80185  1.0000
  H   H3919     1.0  0.77256  0.37360  0.89312  1.0000
  H   H3920     1.0  0.86540  0.33040  0.81291  1.0000
  H   H3921     1.0  0.85557  0.47210  0.96320  1.0000
  H   H3922     1.0  0.71495  0.31457  0.51095  1.0000
  S   S658      1.0  0.97902  0.30785  0.81117  1.0000
  C   C2299     1.0  0.95242  0.30957  0.87463  1.0000
  H   H3923     1.0  0.74661  0.28681  0.73218  1.0000
  H   H3924     1.0  0.72342  0.33551  0.49799  1.0000
  H   H3925     1.0  0.94219  0.30428  0.92111  1.0000
  Fe  Fe330     1.0  0.66257  0.28855  0.50037  1.0000
  H   H3926     1.0  0.72175  0.27383  0.70263  1.0000
  C   C2300     1.0  0.73945  0.29852  0.48301  1.0000
  S   S659      1.0  0.69262  0.28916  0.49753  1.0000
  C   C2301     1.0  0.73604  0.36370  0.94117  1.0000
  H   H3927     1.0  0.74444  0.29909  0.51975  1.0000
  S   S660      1.0  0.77042  0.23974  0.55544  1.0000
  H   H3928     1.0  0.76847  0.31517  0.96266  1.0000
  C   C2302     1.0  0.69257  0.31208  0.80956  1.0000
  H   H3929     1.0  0.88021  0.47227  0.97502  1.0000
  C   C2303     1.0  0.73327  0.25812  0.72634  1.0000
  C   C2304     1.0  0.82955  0.26007  0.76498  1.0000
  C   C2305     1.0  0.69107  0.25175  0.79927  1.0000
  C   C2306     1.0  0.74400  0.29650  0.70233  1.0000
  N   N164      1.0  0.89507  0.45701  0.95301  1.0000
  C   C2307     1.0  0.65633  0.30120  0.82638  1.0000
  H   H3930     1.0  0.73130  0.39204  0.92250  1.0000
  H   H3931     1.0  0.74885  0.25024  0.52688  1.0000
  H   H3932     1.0  0.91551  0.44344  0.93203  1.0000
  C   C2308     1.0  0.76134  0.35195  0.91591  1.0000
  C   C2309     1.0  0.70929  0.23807  0.68907  1.0000
  C   C2310     1.0  0.87714  0.28771  0.78523  1.0000
  Fe  Fe331     1.0  0.86372  0.23843  0.69331  1.0000
  H   H3933     1.0  0.78123  0.34210  0.94388  1.0000
  H   H3934     1.0  0.73271  0.36578  0.95582  1.0000
  H   H3935     1.0  0.66818  0.28966  0.60005  1.0000
  C   C2311     1.0  0.91352  0.45510  0.93920  1.0000
  H   H3936     1.0  0.75408  0.31937  0.51025  1.0000
  Fe  Fe332     1.0  0.76185  0.23789  0.62393  1.0000
  H   H3937     1.0  0.92629  0.27416  0.94091  1.0000
  H   H3938     1.0  0.87218  0.35148  0.97763  1.0000
  H   H3939     1.0  0.72749  0.26940  0.73436  1.0000
  H   H3940     1.0  0.74300  0.31152  0.72362  1.0000
  H   H3941     1.0  0.86639  0.28843  0.77740  1.0000
  H   H3942     1.0  0.88904  0.29251  0.77462  1.0000
  H   H3943     1.0  0.88060  0.32055  0.82878  1.0000
  N   N165      1.0  0.75023  0.27786  0.69626  1.0000
  H   H3944     1.0  0.97718  0.34863  0.81440  1.0000
  H   H3945     1.0  0.90082  0.30012  0.90281  1.0000
  H   H3946     1.0  0.95609  0.23750  0.69434  1.0000
  Fe  Fe333     1.0  0.88605  0.23496  0.72353  1.0000
  H   H3947     1.0  0.65755  0.28222  0.80189  1.0000
  C   C2312     1.0  0.85499  0.29325  0.96568  1.0000
  H   H3948     1.0  0.67513  0.29203  0.77101  1.0000
  H   H3949     1.0  0.76570  0.31856  0.93932  1.0000
  C   C2313     1.0  0.66179  0.24465  0.79828  1.0000
  N   N166      1.0  0.88158  0.30228  0.81077  1.0000
  C   C2314     1.0  0.71548  0.24898  0.67156  1.0000
  H   H3950     1.0  0.95787  0.28755  0.90943  1.0000
  H   H3951     1.0  0.92241  0.31560  0.87986  1.0000
  H   H3952     1.0  0.77949  0.27707  0.69377  1.0000
  H   H3953     1.0  0.74483  0.26350  0.57975  1.0000
  H   H3954     1.0  0.91039  0.26445  0.90459  1.0000
  C   C2315     1.0  0.89515  0.32784  0.78440  1.0000
  H   H3955     1.0  0.92765  0.25541  0.91908  1.0000
  H   H3956     1.0  0.76882  0.26500  0.71573  1.0000
  H   H3957     1.0  0.88829  0.31433  0.93080  1.0000
  C   C2316     1.0  0.92559  0.26079  0.90455  1.0000
  C   C2317     1.0  0.90520  0.27029  0.81737  1.0000
  C   C2318     1.0  0.83827  0.26080  0.80807  1.0000
  C   C2319     1.0  0.89510  0.43918  0.96784  1.0000
  H   H3958     1.0  0.93181  0.24912  0.89699  1.0000
  S   S661      1.0  0.74193  0.25818  0.64053  1.0000
  H   H3959     1.0  0.90312  0.32781  0.91329  1.0000
  C   C2320     1.0  0.83025  0.24488  0.80609  1.0000
  H   H3960     1.0  0.73007  0.35136  0.94251  1.0000
  H   H3961     1.0  0.90601  0.28524  0.92367  1.0000
  H   H3962     1.0  0.90802  0.31001  0.80687  1.0000
  S   S662      1.0  0.78506  0.24651  0.60055  1.0000
  C   C2321     1.0  0.84639  0.24675  0.77268  1.0000
  H   H3963     1.0  0.90863  0.41757  0.95078  1.0000
  H   H3964     1.0  0.71966  0.37554  0.91920  1.0000
  H   H3965     1.0  0.94578  0.27884  0.94560  1.0000
  C   C2322     1.0  0.86852  0.28153  0.95492  1.0000
  C   C2323     1.0  0.84388  0.38903  0.95296  1.0000
  H   H3966     1.0  0.85612  0.25538  0.77286  1.0000
  H   H3967     1.0  0.77697  0.28262  0.48014  1.0000
  H   H3968     1.0  0.88977  0.33971  0.79174  1.0000
  C   C2324     1.0  0.76573  0.34433  0.94807  1.0000
  H   H3969     1.0  0.69304  0.30334  0.82383  1.0000
  H   H3970     1.0  0.76831  0.39784  0.94255  1.0000
  H   H3971     1.0  0.86215  0.31412  0.79220  1.0000
  S   S663      1.0  0.85535  0.24001  0.72374  1.0000
  C   C2325     1.0  0.94088  0.27546  0.93452  1.0000
  C   C2326     1.0  0.75222  0.28178  0.67526  1.0000
  H   H3972     1.0  0.71157  0.38639  0.93925  1.0000
  H   H3973     1.0  0.76540  0.29721  0.71684  1.0000
  H   H3974     1.0  0.77574  0.34324  0.91399  1.0000
  C   C2327     1.0  0.73473  0.29356  0.66768  1.0000
  H   H3975     1.0  0.74952  0.30772  0.69102  1.0000
  C   C2328     1.0  0.75013  0.29780  0.71978  1.0000
  H   H3976     1.0  0.95292  0.32321  0.86457  1.0000
  H   H3977     1.0  0.76397  0.28910  0.66800  1.0000
  H   H3978     1.0  0.75581  0.26857  0.67006  1.0000
  H   H3979     1.0  0.95453  0.29904  0.86606  1.0000
  H   H3980     1.0  0.95027  0.27201  0.89098  1.0000
  C   C2329     1.0  0.68479  0.25170  0.81850  1.0000
  H   H3981     1.0  0.88336  0.42253  0.95551  1.0000
  H   H3982     1.0  0.90794  0.25017  0.77550  1.0000
  H   H3983     1.0  0.80667  0.24278  0.63648  1.0000
  H   H3984     1.0  0.91116  0.31262  0.93396  1.0000
  H   H3985     1.0  0.72985  0.30748  0.67151  1.0000
  H   H3986     1.0  0.85219  0.25560  0.81176  1.0000
  C   C2330     1.0  0.72421  0.38028  0.92965  1.0000
  C   C2331     1.0  0.85264  0.23763  0.97778  1.0000
  C   C2332     1.0  0.90880  0.47449  0.96961  1.0000
  H   H3987     1.0  0.90741  0.47433  0.91303  1.0000
  H   H3988     1.0  0.90526  0.26662  0.80420  1.0000
  H   H3989     1.0  0.85669  0.29425  0.80934  1.0000
  H   H3990     1.0  0.66205  0.24809  0.84222  1.0000
  H   H3991     1.0  0.76194  0.34848  0.96185  1.0000
  C   C2333     1.0  0.98611  0.35865  0.80847  1.0000
  H   H3992     1.0  0.98672  0.36306  0.83528  1.0000
  C   C2334     1.0  0.85425  0.31204  0.83770  1.0000
  N   N167      1.0  0.93019  0.29405  0.90352  1.0000
  C   C2335     1.0  0.93327  0.31129  0.88848  1.0000
  C   C2336     1.0  0.90980  0.29761  0.91311  1.0000
  C   C2337     1.0  0.93488  0.27756  0.89413  1.0000
  C   C2338     1.0  0.94300  0.29109  0.91674  1.0000
  H   H3993     1.0  0.93080  0.28202  0.88027  1.0000
  C   C2339     1.0  0.90304  0.31413  0.92326  1.0000
  H   H3994     1.0  0.68416  0.24880  0.77425  1.0000
  H   H3995     1.0  0.66348  0.28625  0.83003  1.0000
  H   H3996     1.0  0.79114  0.24292  0.69901  1.0000
  S   S664      1.0  0.89460  0.24498  0.74560  1.0000
  C   C2340     1.0  0.84051  0.24380  0.65824  1.0000
  C   C2341     1.0  0.83546  0.39654  0.96908  1.0000
  C   C2342     1.0  0.89574  0.42135  0.96122  1.0000
  H   H3997     1.0  0.76273  0.27517  0.50224  1.0000
  H   H3998     1.0  0.77233  0.32391  0.48035  1.0000
  C   C2343     1.0  0.82010  0.23921  0.64039  1.0000
  H   H3999     1.0  0.81594  0.25119  0.80354  1.0000
  H   H4000     1.0  0.85412  0.23846  0.76186  1.0000
  H   H4001     1.0  0.65808  0.31057  0.57507  1.0000
  H   H4002     1.0  0.74583  0.32524  0.95758  1.0000
  H   H4003     1.0  0.98362  0.25904  0.94577  1.0000
  C   C2344     1.0  0.77764  0.24898  0.69443  1.0000
  H   H4004     1.0  0.65785  0.27194  0.59913  1.0000
  H   H4005     1.0  0.91507  0.46102  0.97794  1.0000
  C   C2345     1.0  0.68202  0.30451  0.79930  1.0000
  H   H4006     1.0  0.68785  0.28919  0.80088  1.0000
  H   H4007     1.0  0.85751  0.33690  0.97683  1.0000
  C   C2346     1.0  0.72515  0.32321  0.50960  1.0000
  C   C2347     1.0  0.91613  0.47247  0.92334  1.0000
  H   H4008     1.0  0.67547  0.27850  0.62792  1.0000
  H   H4009     1.0  0.86784  0.23727  0.97362  1.0000
  H   H4010     1.0  0.66483  0.27121  0.65188  1.0000
  H   H4011     1.0  0.88242  0.45009  0.93379  1.0000
  H   H4012     1.0  0.85841  0.44733  0.96418  1.0000
  C   C2348     1.0  0.85981  0.46108  0.95484  1.0000
  C   C2349     1.0  0.87963  0.46062  0.94260  1.0000
  H   H4013     1.0  0.76854  0.23873  0.70110  1.0000
  H   H4014     1.0  0.84619  0.24943  0.96756  1.0000
  H   H4015     1.0  0.65991  0.31505  0.76759  1.0000
  H   H4016     1.0  0.84964  0.46431  0.94563  1.0000
  H   H4017     1.0  0.66160  0.30883  0.83391  1.0000
  S   S665      1.0  0.98511  0.35383  0.77367  1.0000
  C   C2350     1.0  0.66257  0.28141  0.63867  1.0000
  C   C2351     1.0  0.65574  0.24449  0.81746  1.0000
  H   H4018     1.0  0.72693  0.30984  0.48141  1.0000
  S   S666      1.0  0.65636  0.31591  0.48040  1.0000
  H   H4019     1.0  0.89554  0.40940  0.97349  1.0000
  H   H4020     1.0  0.82817  0.23553  0.82021  1.0000
  N   N168      1.0  0.84177  0.23390  0.79143  1.0000
  H   H4021     1.0  0.90083  0.67882  0.39574  1.0000
  H   H4022     1.0  0.78309  0.51584  0.08013  1.0000
  H   H4023     1.0  0.85721  0.49965  0.03750  1.0000
  C   C2352     1.0  0.92791  0.59310  0.07849  1.0000
  H   H4024     1.0  0.96180  0.62557  0.32596  1.0000
  Fe  Fe334     1.0  0.90474  0.52586  0.05212  1.0000
  S   S667      1.0  0.89874  0.52387  0.08316  1.0000
  S   S668      1.0  0.88302  0.51905  0.04116  1.0000
  C   C2353     1.0  0.95020  0.64858  0.29372  1.0000
  Fe  Fe335     1.0  0.90249  0.55350  0.07587  1.0000
  S   S669      1.0  0.88013  0.57648  0.08759  1.0000
  S   S670      1.0  0.93564  0.51485  0.04955  1.0000
  S   S671      1.0  0.90693  0.55601  0.04483  1.0000
  H   H4025     1.0  0.73524  0.49791  0.21832  1.0000
  S   S672      1.0  0.68421  0.63407  0.09318  1.0000
  C   C2354     1.0  0.96808  0.53402  0.00158  1.0000
  C   C2355     1.0  0.71142  0.72485  0.32826  1.0000
  H   H4026     1.0  0.89444  0.61160  0.07647  1.0000
  H   H4027     1.0  0.66222  0.58856  0.18103  1.0000
  S   S673      1.0  0.70228  0.61761  0.24609  1.0000
  S   S674      1.0  0.76746  0.54345  0.28924  1.0000
  Fe  Fe336     1.0  0.80750  0.55345  0.30598  1.0000
  S   S675      1.0  0.78978  0.57573  0.28819  1.0000
  S   S676      1.0  0.83314  0.55920  0.31184  1.0000
  Fe  Fe337     1.0  0.76603  0.56331  0.30707  1.0000
  S   S677      1.0  0.73799  0.58065  0.31650  1.0000
  Fe  Fe338     1.0  0.79289  0.55392  0.27184  1.0000
  S   S678      1.0  0.79729  0.56437  0.24042  1.0000
  S   S679      1.0  0.78320  0.54275  0.32656  1.0000
  Fe  Fe339     1.0  0.77775  0.56221  0.13064  1.0000
  S   S680      1.0  0.79587  0.53489  0.14122  1.0000
  S   S681      1.0  0.79021  0.58785  0.11896  1.0000
  Fe  Fe340     1.0  0.74416  0.54551  0.13815  1.0000
  S   S682      1.0  0.75918  0.51662  0.14989  1.0000
  S   S683      1.0  0.71364  0.55219  0.13745  1.0000
  Fe  Fe341     1.0  0.77115  0.53123  0.16470  1.0000
  S   S684      1.0  0.77491  0.51821  0.19430  1.0000
  Fe  Fe342     1.0  0.78272  0.52240  0.12544  1.0000
  S   S685      1.0  0.80223  0.49924  0.11162  1.0000
  S   S686      1.0  0.75380  0.55953  0.15532  1.0000
  S   S687      1.0  0.76681  0.55022  0.11253  1.0000
  C   C2356     1.0  0.93161  0.61325  0.27867  1.0000
  Fe  Fe343     1.0  0.88583  0.65764  0.29478  1.0000
  S   S688      1.0  0.89028  0.63272  0.31827  1.0000
  S   S689      1.0  0.89488  0.65583  0.26424  1.0000
  Fe  Fe344     1.0  0.86735  0.68423  0.32163  1.0000
  S   S690      1.0  0.86904  0.66141  0.34723  1.0000
  S   S691      1.0  0.85635  0.71455  0.32261  1.0000
  Fe  Fe345     1.0  0.89834  0.65214  0.33166  1.0000
  S   S692      1.0  0.92508  0.64805  0.34182  1.0000
  Fe  Fe346     1.0  0.86061  0.64448  0.33137  1.0000
  S   S693      1.0  0.83638  0.62947  0.34141  1.0000
  S   S694      1.0  0.89674  0.67577  0.30661  1.0000
  S   S695      1.0  0.85605  0.66869  0.30733  1.0000
  Fe  Fe347     1.0  0.81029  0.64421  0.17557  1.0000
  S   S696      1.0  0.82978  0.62472  0.19321  1.0000
  S   S697      1.0  0.78318  0.63630  0.17789  1.0000
  Fe  Fe348     1.0  0.83538  0.67186  0.16026  1.0000
  S   S698      1.0  0.85733  0.65448  0.17645  1.0000
  S   S699      1.0  0.83949  0.69921  0.14083  1.0000
  Fe  Fe349     1.0  0.85237  0.63019  0.16778  1.0000
  S   S700      1.0  0.87542  0.60543  0.16057  1.0000
  Fe  Fe350     1.0  0.83286  0.65046  0.20029  1.0000
  S   S701      1.0  0.82856  0.65072  0.23088  1.0000
  S   S702      1.0  0.83252  0.64802  0.14953  1.0000
  S   S703      1.0  0.81127  0.66965  0.18475  1.0000
  Fe  Fe351     1.0  0.95245  0.71004  0.39749  1.0000
  H   H4028     1.0  0.69121  0.52587  0.12147  1.0000
  S   S704      1.0  0.92954  0.69524  0.39844  1.0000
  H   H4029     1.0  0.74722  0.51860  0.27908  1.0000
  C   C2357     1.0  0.82314  0.72538  0.11435  1.0000
  C   C2358     1.0  0.92608  0.66186  0.35705  1.0000
  C   C2359     1.0  0.91092  0.66620  0.37152  1.0000
  C   C2360     1.0  0.91248  0.67597  0.38430  1.0000
  C   C2361     1.0  0.92894  0.68210  0.38243  1.0000
  C   C2362     1.0  0.94400  0.67813  0.36769  1.0000
  C   C2363     1.0  0.94266  0.66778  0.35525  1.0000
  H   H4030     1.0  0.89819  0.66147  0.37326  1.0000
  C   C2364     1.0  0.70273  0.49105  0.38735  1.0000
  H   H4031     1.0  0.95676  0.68275  0.36610  1.0000
  H   H4032     1.0  0.95453  0.66434  0.34422  1.0000
  C   C2365     1.0  0.87694  0.65335  0.25489  1.0000
  C   C2366     1.0  0.87901  0.65607  0.23544  1.0000
  C   C2367     1.0  0.86436  0.65505  0.22783  1.0000
  C   C2368     1.0  0.84754  0.65148  0.23969  1.0000
  C   C2369     1.0  0.84556  0.64864  0.25910  1.0000
  C   C2370     1.0  0.86028  0.64929  0.26668  1.0000
  H   H4033     1.0  0.89189  0.65918  0.22623  1.0000
  H   H4034     1.0  0.86602  0.65728  0.21283  1.0000
  H   H4035     1.0  0.83263  0.64580  0.26841  1.0000
  H   H4036     1.0  0.85872  0.64653  0.28169  1.0000
  C   C2371     1.0  0.82006  0.71320  0.13179  1.0000
  H   H4037     1.0  0.79929  0.70392  0.15559  1.0000
  C   C2372     1.0  0.79398  0.72351  0.32709  1.0000
  C   C2373     1.0  0.80399  0.70593  0.33444  1.0000
  C   C2374     1.0  0.82320  0.70322  0.33333  1.0000
  C   C2375     1.0  0.83223  0.71822  0.32534  1.0000
  Fe  Fe352     1.0  0.65600  0.64951  0.10636  1.0000
  C   C2376     1.0  0.72909  0.55087  0.25852  1.0000
  H   H4038     1.0  0.79706  0.69426  0.34044  1.0000
  H   H4039     1.0  0.83101  0.68947  0.33862  1.0000
  H   H4040     1.0  0.92062  0.59562  0.01975  1.0000
  H   H4041     1.0  0.71582  0.65845  0.32325  1.0000
  C   C2377     1.0  0.78798  0.60146  0.13533  1.0000
  C   C2378     1.0  0.79697  0.61656  0.13015  1.0000
  C   C2379     1.0  0.79557  0.62733  0.14317  1.0000
  C   C2380     1.0  0.78504  0.62312  0.16137  1.0000
  C   C2381     1.0  0.77586  0.60821  0.16648  1.0000
  C   C2382     1.0  0.77756  0.59725  0.15357  1.0000
  H   H4042     1.0  0.80512  0.61986  0.11609  1.0000
  H   H4043     1.0  0.80244  0.63903  0.13903  1.0000
  H   H4044     1.0  0.76777  0.60485  0.18056  1.0000
  H   H4045     1.0  0.77087  0.58553  0.15786  1.0000
  C   C2383     1.0  0.83346  0.57977  0.31870  1.0000
  C   C2384     1.0  0.81715  0.59081  0.32721  1.0000
  C   C2385     1.0  0.81822  0.60618  0.33382  1.0000
  C   C2386     1.0  0.83548  0.61099  0.33153  1.0000
  C   C2387     1.0  0.85168  0.60043  0.32227  1.0000
  C   C2388     1.0  0.85068  0.58475  0.31613  1.0000
  H   H4046     1.0  0.80383  0.58706  0.32937  1.0000
  H   H4047     1.0  0.80564  0.61420  0.34105  1.0000
  H   H4048     1.0  0.86505  0.60388  0.32054  1.0000
  H   H4049     1.0  0.86338  0.57624  0.30968  1.0000
  C   C2389     1.0  0.79043  0.55167  0.22800  1.0000
  C   C2390     1.0  0.78445  0.56083  0.21124  1.0000
  C   C2391     1.0  0.77978  0.55070  0.20064  1.0000
  C   C2392     1.0  0.78122  0.53134  0.20675  1.0000
  C   C2393     1.0  0.78738  0.52219  0.22341  1.0000
  C   C2394     1.0  0.79177  0.53235  0.23413  1.0000
  H   H4050     1.0  0.78337  0.57582  0.20649  1.0000
  H   H4051     1.0  0.77498  0.55787  0.18785  1.0000
  C   C2395     1.0  0.75023  0.51010  0.26838  1.0000
  C   C2396     1.0  0.71164  0.60485  0.26553  1.0000
  C   C2397     1.0  0.73044  0.59579  0.26327  1.0000
  C   C2398     1.0  0.73853  0.58824  0.27898  1.0000
  C   C2399     1.0  0.72777  0.58951  0.29693  1.0000
  C   C2400     1.0  0.70882  0.59800  0.29919  1.0000
  C   C2401     1.0  0.70075  0.60556  0.28348  1.0000
  H   H4052     1.0  0.73892  0.59522  0.24941  1.0000
  H   H4053     1.0  0.75326  0.58204  0.27707  1.0000
  H   H4054     1.0  0.70045  0.59894  0.31304  1.0000
  H   H4055     1.0  0.68608  0.61216  0.28525  1.0000
  C   C2402     1.0  0.96578  0.49478  0.10185  1.0000
  H   H4056     1.0  0.93416  0.58939  0.10578  1.0000
  H   H4057     1.0  0.71825  0.52647  0.29042  1.0000
  H   H4058     1.0  0.95960  0.59540  0.04138  1.0000
  C   C2403     1.0  0.80174  0.71319  0.14203  1.0000
  H   H4059     1.0  0.73665  0.61504  0.15291  1.0000
  C   C2404     1.0  0.69223  0.61139  0.10573  1.0000
  C   C2405     1.0  0.67969  0.60052  0.11750  1.0000
  C   C2406     1.0  0.68637  0.58221  0.12685  1.0000
  C   C2407     1.0  0.70562  0.57489  0.12497  1.0000
  C   C2408     1.0  0.71819  0.58584  0.11341  1.0000
  C   C2409     1.0  0.71150  0.60396  0.10365  1.0000
  H   H4060     1.0  0.66482  0.60603  0.11903  1.0000
  H   H4061     1.0  0.67656  0.57381  0.13574  1.0000
  H   H4062     1.0  0.73306  0.58039  0.11191  1.0000
  H   H4063     1.0  0.72127  0.61230  0.09454  1.0000
  S   S705      1.0  0.68374  0.67093  0.23841  1.0000
  C   C2410     1.0  0.87913  0.58386  0.10815  1.0000
  C   C2411     1.0  0.86449  0.59855  0.11332  1.0000
  C   C2412     1.0  0.86333  0.60532  0.12925  1.0000
  C   C2413     1.0  0.87688  0.59755  0.14014  1.0000
  C   C2414     1.0  0.89148  0.58271  0.13507  1.0000
  C   C2415     1.0  0.89256  0.57579  0.11917  1.0000
  H   H4064     1.0  0.85396  0.60477  0.10495  1.0000
  H   H4065     1.0  0.85188  0.61651  0.13311  1.0000
  H   H4066     1.0  0.90380  0.56431  0.11543  1.0000
  H   H4067     1.0  0.73342  0.66886  0.34397  1.0000
  H   H4068     1.0  0.68195  0.71522  0.23799  1.0000
  S   S706      1.0  0.98177  0.69799  0.40232  1.0000
  H   H4069     1.0  0.70971  0.50511  0.29862  1.0000
  H   H4070     1.0  0.98170  0.50335  0.15464  1.0000
  H   H4071     1.0  0.70550  0.70104  0.30861  1.0000
  H   H4072     1.0  0.70515  0.59965  0.14748  1.0000
  H   H4073     1.0  0.82838  0.70151  0.22020  1.0000
  H   H4074     1.0  0.89071  0.70405  0.36337  1.0000
  H   H4075     1.0  0.94615  0.60243  0.30823  1.0000
  H   H4076     1.0  0.97378  0.60405  0.31760  1.0000
  C   C2416     1.0  0.88676  0.49827  0.03327  1.0000
  C   C2417     1.0  0.74601  0.49123  0.12409  1.0000
  C   C2418     1.0  0.65836  0.70393  0.14276  1.0000
  H   H4077     1.0  0.65627  0.55589  0.36808  1.0000
  H   H4078     1.0  0.80796  0.72023  0.22407  1.0000
  H   H4079     1.0  0.69780  0.72304  0.32702  1.0000
  H   H4080     1.0  0.68993  0.59098  0.19170  1.0000
  N   N169      1.0  0.83361  0.54428  0.07191  1.0000
  C   C2419     1.0  0.83022  0.52895  0.06472  1.0000
  C   C2420     1.0  0.81598  0.55314  0.08407  1.0000
  C   C2421     1.0  0.84834  0.53531  0.08351  1.0000
  C   C2422     1.0  0.84163  0.55825  0.05553  1.0000
  C   C2423     1.0  0.81664  0.53489  0.05127  1.0000
  C   C2424     1.0  0.80347  0.57061  0.07423  1.0000
  C   C2425     1.0  0.84371  0.51917  0.10015  1.0000
  C   C2426     1.0  0.84863  0.57330  0.06059  1.0000
  H   H4081     1.0  0.84365  0.52126  0.05745  1.0000
  H   H4082     1.0  0.82445  0.51829  0.07645  1.0000
  H   H4083     1.0  0.81922  0.55767  0.09550  1.0000
  H   H4084     1.0  0.80714  0.54267  0.09147  1.0000
  H   H4085     1.0  0.86179  0.52967  0.07460  1.0000
  H   H4086     1.0  0.85149  0.54579  0.08947  1.0000
  H   H4087     1.0  0.85367  0.55086  0.04620  1.0000
  H   H4088     1.0  0.83172  0.56565  0.04618  1.0000
  H   H4089     1.0  0.81660  0.52234  0.04628  1.0000
  H   H4090     1.0  0.80212  0.53978  0.05858  1.0000
  H   H4091     1.0  0.82091  0.54535  0.03858  1.0000
  H   H4092     1.0  0.79009  0.57432  0.08415  1.0000
  H   H4093     1.0  0.80997  0.58300  0.07019  1.0000
  H   H4094     1.0  0.80005  0.56848  0.06175  1.0000
  H   H4095     1.0  0.85414  0.51565  0.10910  1.0000
  H   H4096     1.0  0.84474  0.50621  0.09534  1.0000
  H   H4097     1.0  0.82970  0.52299  0.10903  1.0000
  H   H4098     1.0  0.86388  0.56885  0.06014  1.0000
  H   H4099     1.0  0.84142  0.57616  0.07465  1.0000
  H   H4100     1.0  0.84593  0.58681  0.05045  1.0000
  C   C2427     1.0  0.74315  0.50663  0.32539  1.0000
  H   H4101     1.0  0.91679  0.61888  0.02319  1.0000
  H   H4102     1.0  0.66619  0.52461  0.34559  1.0000
  H   H4103     1.0  0.77968  0.71726  0.09284  1.0000
  Fe  Fe353     1.0  0.97612  0.71915  0.42037  1.0000
  C   C2428     1.0  0.97858  0.52599  0.98625  1.0000
  H   H4104     1.0  0.65706  0.72657  0.25840  1.0000
  H   H4105     1.0  0.86272  0.54289  0.15550  1.0000
  C   C2429     1.0  0.92935  0.60120  0.09463  1.0000
  H   H4106     1.0  0.67300  0.57144  0.33779  1.0000
  H   H4107     1.0  0.72925  0.50959  0.07074  1.0000
  H   H4108     1.0  0.88994  0.62532  0.04453  1.0000
  N   N170      1.0  0.95085  0.62936  0.29096  1.0000
  H   H4109     1.0  0.83320  0.58033  0.13846  1.0000
  C   C2430     1.0  0.92478  0.60444  0.02693  1.0000
  Fe  Fe354     1.0  0.92992  0.51580  0.07994  1.0000
  H   H4110     1.0  0.70293  0.50666  0.09766  1.0000
  N   N171      1.0  0.73555  0.51582  0.25667  1.0000
  H   H4111     1.0  0.74589  0.52056  0.32232  1.0000
  H   H4112     1.0  0.90475  0.64190  0.04142  1.0000
  C   C2431     1.0  0.81229  0.69858  0.24964  1.0000
  C   C2432     1.0  0.82242  0.69636  0.27830  1.0000
  C   C2433     1.0  0.80263  0.69696  0.29069  1.0000
  H   H4113     1.0  0.81627  0.68297  0.25272  1.0000
  H   H4114     1.0  0.79710  0.70227  0.25588  1.0000
  H   H4115     1.0  0.83019  0.70173  0.28556  1.0000
  H   H4116     1.0  0.82927  0.68127  0.27897  1.0000
  H   H4117     1.0  0.92425  0.60575  0.29212  1.0000
  H   H4118     1.0  0.80395  0.68948  0.30518  1.0000
  H   H4119     1.0  0.73627  0.52101  0.12038  1.0000
  H   H4120     1.0  0.79441  0.68949  0.28621  1.0000
  H   H4121     1.0  0.76204  0.69502  0.27826  1.0000
  Fe  Fe355     1.0  0.68289  0.64254  0.25625  1.0000
  Fe  Fe356     1.0  0.93742  0.54492  0.04507  1.0000
  H   H4122     1.0  0.92201  0.63932  0.28804  1.0000
  C   C2434     1.0  0.94646  0.61653  0.30981  1.0000
  H   H4123     1.0  0.90286  0.69907  0.33490  1.0000
  H   H4124     1.0  0.73776  0.60126  0.13687  1.0000
  H   H4125     1.0  0.93223  0.62208  0.31758  1.0000
  C   C2435     1.0  0.91031  0.71083  0.32911  1.0000
  C   C2436     1.0  0.73466  0.53599  0.24647  1.0000
  S   S707      1.0  0.70638  0.69429  0.26142  1.0000
  H   H4126     1.0  0.90728  0.59229  0.05252  1.0000
  H   H4127     1.0  0.86517  0.73118  0.38805  1.0000
  C   C2437     1.0  0.67823  0.71925  0.22405  1.0000
  C   C2438     1.0  0.67384  0.59457  0.17105  1.0000
  H   H4128     1.0  0.70795  0.51156  0.13535  1.0000
  C   C2439     1.0  0.73877  0.50609  0.08072  1.0000
  H   H4129     1.0  0.77259  0.72615  0.14316  1.0000
  H   H4130     1.0  0.93833  0.64012  0.26643  1.0000
  H   H4131     1.0  0.73605  0.50426  0.38835  1.0000
  H   H4132     1.0  0.67576  0.71375  0.28679  1.0000
  H   H4133     1.0  0.88789  0.71702  0.39152  1.0000
  C   C2440     1.0  0.98386  0.49834  0.04182  1.0000
  C   C2441     1.0  0.79084  0.50190  0.07878  1.0000
  H   H4134     1.0  0.96540  0.52124  0.08230  1.0000
  N   N172      1.0  0.92325  0.60715  0.06116  1.0000
  H   H4135     1.0  0.78333  0.50333  0.05270  1.0000
  C   C2442     1.0  0.76047  0.67615  0.33283  1.0000
  H   H4136     1.0  0.85959  0.56743  0.15232  1.0000
  H   H4137     1.0  0.91521  0.71118  0.31386  1.0000
  C   C2443     1.0  0.67972  0.71951  0.14867  1.0000
  C   C2444     1.0  0.70223  0.71597  0.26789  1.0000
  H   H4138     1.0  0.69540  0.52615  0.28895  1.0000
  C   C2445     1.0  0.84363  0.70327  0.24737  1.0000
  H   H4139     1.0  0.74476  0.66342  0.32203  1.0000
  H   H4140     1.0  0.68129  0.53403  0.35374  1.0000
  C   C2446     1.0  0.89537  0.63318  0.05163  1.0000
  C   C2447     1.0  0.92133  0.59590  0.04820  1.0000
  S   S708      1.0  0.96157  0.55745  0.02612  1.0000
  H   H4141     1.0  0.97604  0.51517  0.17343  1.0000
  H   H4142     1.0  0.70160  0.68843  0.33215  1.0000
  C   C2448     1.0  0.71324  0.67113  0.31207  1.0000
  H   H4143     1.0  0.70974  0.50230  0.37806  1.0000
  H   H4144     1.0  0.69956  0.67171  0.30894  1.0000
  H   H4145     1.0  0.95418  0.60434  0.33671  1.0000
  N   N173      1.0  0.74881  0.69096  0.12529  1.0000
  C   C2449     1.0  0.76195  0.70439  0.11795  1.0000
  C   C2450     1.0  0.74385  0.68840  0.14634  1.0000
  C   C2451     1.0  0.73136  0.70024  0.11763  1.0000
  C   C2452     1.0  0.75831  0.67281  0.11881  1.0000
  C   C2453     1.0  0.76756  0.71039  0.09643  1.0000
  C   C2454     1.0  0.76060  0.68185  0.15616  1.0000
  C   C2455     1.0  0.71566  0.68922  0.12331  1.0000
  C   C2456     1.0  0.75220  0.65474  0.13114  1.0000
  H   H4146     1.0  0.75579  0.71748  0.12349  1.0000
  H   H4147     1.0  0.77533  0.69823  0.12281  1.0000
  H   H4148     1.0  0.73449  0.67834  0.15287  1.0000
  H   H4149     1.0  0.73570  0.70181  0.15046  1.0000
  H   H4150     1.0  0.72514  0.71402  0.12179  1.0000
  H   H4151     1.0  0.73460  0.70334  0.10206  1.0000
  H   H4152     1.0  0.75649  0.67383  0.10443  1.0000
  H   H4153     1.0  0.77373  0.66999  0.11764  1.0000
  H   H4154     1.0  0.77189  0.69836  0.08937  1.0000
  C   C2457     1.0  0.90474  0.48819  0.02713  1.0000
  H   H4155     1.0  0.91684  0.49315  0.02720  1.0000
  H   H4156     1.0  0.75580  0.67570  0.17119  1.0000
  H   H4157     1.0  0.77183  0.67113  0.14994  1.0000
  H   H4158     1.0  0.71131  0.68464  0.13866  1.0000
  H   H4159     1.0  0.71947  0.67727  0.11619  1.0000
  H   H4160     1.0  0.70309  0.69857  0.11844  1.0000
  H   H4161     1.0  0.75644  0.65088  0.14482  1.0000
  H   H4162     1.0  0.75926  0.64289  0.12396  1.0000
  H   H4163     1.0  0.73705  0.65565  0.13368  1.0000
  N   N174      1.0  0.69712  0.61477  0.16992  1.0000
  C   C2458     1.0  0.68325  0.60295  0.18173  1.0000
  C   C2459     1.0  0.70616  0.61920  0.18332  1.0000
  C   C2460     1.0  0.71164  0.60306  0.15737  1.0000
  C   C2461     1.0  0.68669  0.63194  0.15856  1.0000
  H   H4164     1.0  0.79488  0.71148  0.29146  1.0000
  C   C2462     1.0  0.69298  0.63141  0.19692  1.0000
  C   C2463     1.0  0.72816  0.61171  0.14486  1.0000
  C   C2464     1.0  0.69633  0.64881  0.14985  1.0000
  H   H4165     1.0  0.92204  0.61689  0.26878  1.0000
  H   H4166     1.0  0.67160  0.61125  0.19054  1.0000
  H   H4167     1.0  0.71791  0.62625  0.17609  1.0000
  H   H4168     1.0  0.66606  0.51998  0.37009  1.0000
  C   C2465     1.0  0.95281  0.66380  0.27565  1.0000
  H   H4169     1.0  0.71414  0.54066  0.10458  1.0000
  H   H4170     1.0  0.68311  0.62821  0.14684  1.0000
  H   H4171     1.0  0.67289  0.63740  0.16711  1.0000
  C   C2466     1.0  0.90483  0.61992  0.06726  1.0000
  S   S709      1.0  0.65799  0.66291  0.12850  1.0000
  C   C2467     1.0  0.97473  0.54675  0.00723  1.0000
  H   H4172     1.0  0.68486  0.64447  0.18962  1.0000
  C   C2468     1.0  0.71587  0.72681  0.26048  1.0000
  H   H4173     1.0  0.73343  0.52216  0.21639  1.0000
  H   H4174     1.0  0.68976  0.50225  0.13258  1.0000
  C   C2469     1.0  0.96006  0.61266  0.32296  1.0000
  C   C2470     1.0  0.74197  0.50387  0.24204  1.0000
  H   H4175     1.0  0.69886  0.65147  0.13432  1.0000
  H   H4176     1.0  0.70972  0.64738  0.15366  1.0000
  H   H4177     1.0  0.68689  0.66166  0.15410  1.0000
  C   C2471     1.0  0.83012  0.56607  0.14348  1.0000
  H   H4178     1.0  0.67404  0.69277  0.16470  1.0000
  H   H4179     1.0  0.86066  0.68730  0.26804  1.0000
  C   C2472     1.0  0.71656  0.51273  0.26791  1.0000
  C   C2473     1.0  0.71207  0.68913  0.31863  1.0000
  H   H4180     1.0  0.84654  0.52164  0.18821  1.0000
  N   N175      1.0  0.76183  0.64260  0.23845  1.0000
  C   C2474     1.0  0.78176  0.63385  0.23055  1.0000
  C   C2475     1.0  0.76062  0.66333  0.23601  1.0000
  C   C2476     1.0  0.74933  0.63941  0.22745  1.0000
  C   C2477     1.0  0.75707  0.63313  0.25880  1.0000
  C   C2478     1.0  0.78554  0.61281  0.23025  1.0000
  C   C2479     1.0  0.77351  0.66881  0.24543  1.0000
  C   C2480     1.0  0.73146  0.65451  0.22492  1.0000
  C   C2481     1.0  0.73762  0.64077  0.26988  1.0000
  H   H4181     1.0  0.78636  0.64142  0.21590  1.0000
  H   H4182     1.0  0.79155  0.63499  0.23864  1.0000
  H   H4183     1.0  0.74624  0.67073  0.24145  1.0000
  H   H4184     1.0  0.76389  0.66987  0.22080  1.0000
  H   H4185     1.0  0.75696  0.63838  0.21288  1.0000
  H   H4186     1.0  0.74500  0.62576  0.23367  1.0000
  H   H4187     1.0  0.75768  0.61801  0.26023  1.0000
  H   H4188     1.0  0.76761  0.63350  0.26641  1.0000
  H   H4189     1.0  0.78436  0.60396  0.24458  1.0000
  H   H4190     1.0  0.77637  0.60960  0.22281  1.0000
  H   H4191     1.0  0.80008  0.60839  0.22268  1.0000
  H   H4192     1.0  0.78840  0.66512  0.23847  1.0000
  H   H4193     1.0  0.77003  0.68429  0.24391  1.0000
  H   H4194     1.0  0.77159  0.66262  0.26062  1.0000
  H   H4195     1.0  0.72247  0.64902  0.21914  1.0000
  H   H4196     1.0  0.73485  0.66732  0.21473  1.0000
  H   H4197     1.0  0.72315  0.65841  0.23820  1.0000
  H   H4198     1.0  0.73547  0.65576  0.27014  1.0000
  H   H4199     1.0  0.73609  0.63285  0.28464  1.0000
  H   H4200     1.0  0.72642  0.63849  0.26441  1.0000
  N   N176      1.0  0.72871  0.51344  0.09822  1.0000
  H   H4201     1.0  0.97319  0.51638  0.98179  1.0000
  H   H4202     1.0  0.70652  0.70253  0.21764  1.0000
  H   H4203     1.0  0.93652  0.65384  0.30257  1.0000
  C   C2482     1.0  0.66552  0.56656  0.32972  1.0000
  C   C2483     1.0  0.73533  0.54617  0.08024  1.0000
  H   H4204     1.0  0.93558  0.62786  0.03900  1.0000
  H   H4205     1.0  0.86934  0.71883  0.35884  1.0000
  H   H4206     1.0  0.96777  0.61606  0.03953  1.0000
  C   C2484     1.0  0.69974  0.51157  0.12523  1.0000
  H   H4207     1.0  0.76390  0.51277  0.25951  1.0000
  H   H4208     1.0  0.70143  0.63564  0.20442  1.0000
  C   C2485     1.0  0.71004  0.51799  0.28741  1.0000
  C   C2486     1.0  0.71213  0.50447  0.10768  1.0000
  C   C2487     1.0  0.74966  0.68972  0.28742  1.0000
  H   H4209     1.0  0.68334  0.62349  0.20786  1.0000
  H   H4210     1.0  0.83727  0.72546  0.10639  1.0000
  H   H4211     1.0  0.74778  0.54344  0.08631  1.0000
  H   H4212     1.0  0.73967  0.54407  0.06561  1.0000
  H   H4213     1.0  0.72862  0.56125  0.07953  1.0000
  C   C2488     1.0  0.96921  0.62111  0.27937  1.0000
  H   H4214     1.0  0.96937  0.62687  0.26418  1.0000
  H   H4215     1.0  0.66762  0.71102  0.22526  1.0000
  C   C2489     1.0  0.66719  0.53082  0.35691  1.0000
  H   H4216     1.0  0.70560  0.52046  0.25974  1.0000
  C   C2490     1.0  0.97278  0.51079  0.09200  1.0000
  H   H4217     1.0  0.83691  0.54226  0.12933  1.0000
  C   C2491     1.0  0.93818  0.61842  0.05244  1.0000
  H   H4218     1.0  0.71541  0.51039  0.23226  1.0000
  H   H4219     1.0  0.93783  0.62824  0.06123  1.0000
  H   H4220     1.0  0.82160  0.56408  0.19048  1.0000
  H   H4221     1.0  0.80677  0.57254  0.17451  1.0000
  H   H4222     1.0  0.82346  0.59856  0.15807  1.0000
  H   H4223     1.0  0.85686  0.71204  0.26596  1.0000
  N   N177      1.0  0.85222  0.58368  0.24867  1.0000
  C   C2492     1.0  0.83992  0.58432  0.23569  1.0000
  C   C2493     1.0  0.83965  0.58583  0.26742  1.0000
  C   C2494     1.0  0.86567  0.56480  0.25042  1.0000
  C   C2495     1.0  0.86259  0.59942  0.24024  1.0000
  C   C2496     1.0  0.85014  0.57988  0.21631  1.0000
  C   C2497     1.0  0.82441  0.60394  0.26769  1.0000
  C   C2498     1.0  0.87244  0.55649  0.26904  1.0000
  C   C2499     1.0  0.87424  0.60278  0.25239  1.0000
  H   H4224     1.0  0.83046  0.57428  0.24238  1.0000
  H   H4225     1.0  0.83066  0.59840  0.23283  1.0000
  H   H4226     1.0  0.84774  0.58528  0.27784  1.0000
  H   H4227     1.0  0.83243  0.57385  0.27322  1.0000
  H   H4228     1.0  0.85915  0.55381  0.24893  1.0000
  H   H4229     1.0  0.87829  0.56512  0.23886  1.0000
  H   H4230     1.0  0.87243  0.59709  0.22688  1.0000
  H   H4231     1.0  0.85273  0.61287  0.23636  1.0000
  H   H4232     1.0  0.83946  0.58038  0.20851  1.0000
  H   H4233     1.0  0.85848  0.59040  0.20778  1.0000
  H   H4234     1.0  0.85916  0.56564  0.21731  1.0000
  H   H4235     1.0  0.81353  0.60441  0.26018  1.0000
  H   H4236     1.0  0.81725  0.60433  0.28248  1.0000
  H   H4237     1.0  0.83036  0.61663  0.26203  1.0000
  H   H4238     1.0  0.86129  0.55078  0.28009  1.0000
  H   H4239     1.0  0.87697  0.56653  0.27424  1.0000
  H   H4240     1.0  0.88446  0.54451  0.26716  1.0000
  H   H4241     1.0  0.86559  0.60636  0.26578  1.0000
  H   H4242     1.0  0.88066  0.61497  0.24469  1.0000
  H   H4243     1.0  0.88591  0.59074  0.25497  1.0000
  H   H4244     1.0  0.73125  0.71406  0.29557  1.0000
  H   H4245     1.0  0.93983  0.60415  0.02089  1.0000
  H   H4246     1.0  0.94450  0.60383  0.27286  1.0000
  H   H4247     1.0  0.92285  0.70771  0.33517  1.0000
  H   H4248     1.0  0.86937  0.70632  0.39246  1.0000
  H   H4249     1.0  0.66759  0.60522  0.15996  1.0000
  H   H4250     1.0  0.79663  0.52516  0.24692  1.0000
  H   H4251     1.0  0.85659  0.55298  0.12639  1.0000
  H   H4252     1.0  0.95505  0.67633  0.27910  1.0000
  C   C2500     1.0  0.67097  0.70431  0.15321  1.0000
  C   C2501     1.0  0.95833  0.60676  0.04866  1.0000
  S   S710      1.0  0.68433  0.65049  0.28229  1.0000
  S   S711      1.0  0.81238  0.53214  0.28821  1.0000
  H   H4253     1.0  0.75677  0.50404  0.23483  1.0000
  H   H4254     1.0  0.83827  0.56451  0.11421  1.0000
  H   H4255     1.0  0.82440  0.53418  0.19991  1.0000
  Fe  Fe357     1.0  0.78628  0.52351  0.30732  1.0000
  H   H4256     1.0  0.78890  0.50716  0.22800  1.0000
  H   H4257     1.0  0.72430  0.54044  0.23733  1.0000
  N   N178      1.0  0.82357  0.70659  0.25813  1.0000
  C   C2502     1.0  0.81386  0.70504  0.22822  1.0000
  H   H4258     1.0  0.90191  0.57647  0.14354  1.0000
  S   S712      1.0  0.94586  0.72900  0.41804  1.0000
  H   H4259     1.0  0.72355  0.62406  0.13420  1.0000
  H   H4260     1.0  0.84724  0.69008  0.24205  1.0000
  H   H4261     1.0  0.73715  0.48448  0.36505  1.0000
  H   H4262     1.0  0.75073  0.51294  0.07324  1.0000
  H   H4263     1.0  0.93136  0.58211  0.04938  1.0000
  H   H4264     1.0  0.96503  0.65912  0.26490  1.0000
  H   H4265     1.0  0.82535  0.51426  0.19130  1.0000
  H   H4266     1.0  0.75166  0.70775  0.30441  1.0000
  H   H4267     1.0  0.93959  0.61039  0.09014  1.0000
  H   H4268     1.0  0.71762  0.58936  0.16583  1.0000
  H   H4269     1.0  0.73874  0.49188  0.13879  1.0000
  S   S713      1.0  0.78148  0.49384  0.31796  1.0000
  H   H4270     1.0  0.75617  0.72103  0.09064  1.0000
  H   H4271     1.0  0.75508  0.67482  0.29316  1.0000
  H   H4272     1.0  0.66170  0.72211  0.19486  1.0000
  C   C2503     1.0  0.88201  0.71826  0.36399  1.0000
  C   C2504     1.0  0.72463  0.50413  0.33048  1.0000
  H   H4273     1.0  0.83569  0.52952  0.15896  1.0000
  H   H4274     1.0  0.69209  0.70251  0.20259  1.0000
  C   C2505     1.0  0.72483  0.70602  0.33398  1.0000
  H   H4275     1.0  0.87275  0.70097  0.24800  1.0000
  H   H4276     1.0  0.91719  0.58433  0.08437  1.0000
  N   N179      1.0  0.73001  0.69258  0.32088  1.0000
  C   C2506     1.0  0.82610  0.58979  0.17171  1.0000
  H   H4277     1.0  0.70995  0.53670  0.08416  1.0000
  Fe  Fe358     1.0  0.68301  0.67953  0.26480  1.0000
  H   H4278     1.0  0.68373  0.58287  0.16506  1.0000
  S   S714      1.0  0.69707  0.71896  0.16032  1.0000
  H   H4279     1.0  0.97429  0.49227  0.03745  1.0000
  C   C2507     1.0  0.85912  0.70099  0.25809  1.0000
  H   H4280     1.0  0.84568  0.71463  0.23467  1.0000
  H   H4281     1.0  0.76663  0.69388  0.15560  1.0000
  C   C2508     1.0  0.93543  0.63152  0.28087  1.0000
  C   C2509     1.0  0.73061  0.50912  0.22654  1.0000
  H   H4282     1.0  0.71437  0.55215  0.26629  1.0000
  H   H4283     1.0  0.97076  0.60569  0.28135  1.0000
  C   C2510     1.0  0.82163  0.57026  0.17551  1.0000
  H   H4284     1.0  0.67760  0.58044  0.30178  1.0000
  H   H4285     1.0  0.71703  0.48606  0.40987  1.0000
  H   H4286     1.0  0.72383  0.66952  0.29912  1.0000
  H   H4287     1.0  0.76951  0.68173  0.31952  1.0000
  S   S715      1.0  0.93313  0.54534  0.07552  1.0000
  H   H4288     1.0  0.90645  0.62904  0.07585  1.0000
  H   H4289     1.0  0.73744  0.70988  0.33546  1.0000
  H   H4290     1.0  0.91602  0.71680  0.36367  1.0000
  H   H4291     1.0  0.84060  0.58909  0.17255  1.0000
  H   H4292     1.0  0.96057  0.64847  0.30164  1.0000
  H   H4293     1.0  0.81759  0.71814  0.17393  1.0000
  C   C2511     1.0  0.68639  0.72202  0.28103  1.0000
  H   H4294     1.0  0.73860  0.54862  0.26809  1.0000
  C   C2512     1.0  0.74154  0.67464  0.32999  1.0000
  C   C2513     1.0  0.86078  0.55253  0.18049  1.0000
  C   C2514     1.0  0.81528  0.72727  0.25651  1.0000
  H   H4295     1.0  0.71321  0.51622  0.33119  1.0000
  H   H4296     1.0  0.74840  0.53765  0.23702  1.0000
  H   H4297     1.0  0.73974  0.69085  0.27852  1.0000
  H   H4298     1.0  0.84979  0.55080  0.19330  1.0000
  C   C2515     1.0  0.74065  0.70168  0.30240  1.0000
  H   H4299     1.0  0.91552  0.60876  0.10123  1.0000
  H   H4300     1.0  0.71283  0.60600  0.19198  1.0000
  C   C2516     1.0  0.79115  0.49487  0.06317  1.0000
  C   C2517     1.0  0.87115  0.49187  0.03296  1.0000
  H   H4301     1.0  0.95467  0.53064  0.00878  1.0000
  C   C2518     1.0  0.80113  0.49102  0.09222  1.0000
  H   H4302     1.0  0.87225  0.53993  0.18205  1.0000
  H   H4303     1.0  0.71829  0.69933  0.34835  1.0000
  C   C2519     1.0  0.83144  0.52686  0.18825  1.0000
  H   H4304     1.0  0.81655  0.59730  0.18253  1.0000
  C   C2520     1.0  0.84126  0.55553  0.12774  1.0000
  H   H4305     1.0  0.67523  0.55391  0.32520  1.0000
  H   H4306     1.0  0.80553  0.69753  0.22383  1.0000
  H   H4307     1.0  0.88304  0.64293  0.05801  1.0000
  C   C2521     1.0  0.69568  0.71162  0.20989  1.0000
  H   H4308     1.0  0.96354  0.60062  0.06182  1.0000
  H   H4309     1.0  0.71604  0.49765  0.27046  1.0000
  C   C2522     1.0  0.85456  0.55505  0.16191  1.0000
  H   H4310     1.0  0.94119  0.58284  0.07505  1.0000
  H   H4311     1.0  0.81300  0.54083  0.16929  1.0000
  C   C2523     1.0  0.87586  0.71856  0.38510  1.0000
  H   H4312     1.0  0.94004  0.66848  0.26967  1.0000
  H   H4313     1.0  0.73001  0.56472  0.24901  1.0000
  H   H4314     1.0  0.76816  0.66192  0.33844  1.0000
  H   H4315     1.0  0.75632  0.50286  0.36994  1.0000
  N   N180      1.0  0.83400  0.55739  0.16286  1.0000
  C   C2524     1.0  0.82816  0.53876  0.16901  1.0000
  H   H4316     1.0  0.81503  0.56786  0.14371  1.0000
  H   H4317     1.0  0.86675  0.56460  0.18004  1.0000
  C   C2525     1.0  0.78662  0.72583  0.13502  1.0000
  C   C2526     1.0  0.72105  0.53421  0.09222  1.0000
  H   H4318     1.0  0.75873  0.68474  0.34323  1.0000
  S   S716      1.0  0.94429  0.49192  0.09947  1.0000
  C   C2527     1.0  0.66379  0.58157  0.31158  1.0000
  S   S717      1.0  0.77054  0.72631  0.32648  1.0000
  C   C2528     1.0  0.75805  0.49112  0.32453  1.0000
  H   H4319     1.0  0.82366  0.73271  0.28008  1.0000
  H   H4320     1.0  0.72797  0.72246  0.25002  1.0000
  H   H4321     1.0  0.75550  0.51400  0.10284  1.0000
  S   S718      1.0  0.69729  0.48378  0.34118  1.0000
  C   C2529     1.0  0.74186  0.51075  0.11104  1.0000
  H   H4322     1.0  0.66317  0.72937  0.06352  1.0000
  H   H4323     1.0  0.97735  0.51341  0.04138  1.0000
  H   H4324     1.0  0.98597  0.62784  0.29641  1.0000
  H   H4325     1.0  0.93815  0.73044  0.34279  1.0000
  H   H4326     1.0  0.65978  0.59590  0.31453  1.0000
  H   H4327     1.0  0.70245  0.72217  0.19918  1.0000
  C   C2530     1.0  0.89720  0.72979  0.33203  1.0000
  C   C2531     1.0  0.90943  0.73176  0.35914  1.0000
  H   H4328     1.0  0.88422  0.73066  0.32734  1.0000
  C   C2532     1.0  0.72081  0.48612  0.33478  1.0000
  H   H4329     1.0  0.68943  0.49802  0.39546  1.0000
  H   H4330     1.0  0.74169  0.48892  0.24861  1.0000
  H   H4331     1.0  0.76120  0.48721  0.12419  1.0000
  C   C2533     1.0  0.74873  0.49451  0.38268  1.0000
  H   H4332     1.0  0.71627  0.48906  0.11197  1.0000
  S   S719      1.0  0.96081  0.73202  0.37235  1.0000
  C   C2534     1.0  0.75364  0.48942  0.27880  1.0000
  H   H4333     1.0  0.75813  0.48925  0.39279  1.0000
  H   H4334     1.0  0.98449  0.49129  0.05648  1.0000
  C   C2535     1.0  0.98747  0.50577  0.16567  1.0000
  S   S720      1.0  0.98661  0.71225  0.44755  1.0000
  H   H4335     1.0  0.80012  0.72966  0.26307  1.0000
  H   H4336     1.0  0.76389  0.48727  0.28765  1.0000
  N   N181      1.0  0.89242  0.73314  0.35170  1.0000
  H   H4337     1.0  0.68405  0.73212  0.06750  1.0000
  C   C2536     1.0  0.82001  0.73239  0.17233  1.0000
  C   C2537     1.0  0.98720  0.62449  0.28275  1.0000
  H   H4338     1.0  0.74071  0.48550  0.28817  1.0000
  H   H4339     1.0  0.82387  0.73251  0.18541  1.0000
  C   C2538     1.0  0.74725  0.48492  0.08318  1.0000
  H   H4340     1.0  0.90400  0.48481  0.97885  1.0000
  H   H4341     1.0  0.71784  0.73348  0.31508  1.0000
  H   H4342     1.0  0.70838  0.73316  0.33921  1.0000
  H   H4343     1.0  0.88757  0.48682  0.95325  1.0000
  H   H4344     1.0  0.91305  0.48557  0.92851  1.0000
  Fe  Fe359     1.0  0.75645  0.79314  0.28928  1.0000
  S   S721      1.0  0.78037  0.76910  0.28327  1.0000
  S   S722      1.0  0.76557  0.81916  0.29035  1.0000
  Fe  Fe360     1.0  0.72750  0.77158  0.28897  1.0000
  H   H4345     1.0  0.83363  0.76753  0.12283  1.0000
  Fe  Fe361     1.0  0.86146  0.96529  0.46854  1.0000
  C   C2539     1.0  0.90799  0.80213  0.38143  1.0000
  Fe  Fe362     1.0  0.76540  0.76632  0.26265  1.0000
  C   C2540     1.0  0.86791  0.84975  0.46594  1.0000
  S   S723      1.0  0.73864  0.77563  0.31219  1.0000
  S   S724      1.0  0.74269  0.79175  0.26666  1.0000
  C   C2541     1.0  0.89283  0.84561  0.40646  1.0000
  S   S725      1.0  0.69364  0.77227  0.15561  1.0000
  H   H4346     1.0  0.71080  0.86458  0.29531  1.0000
  H   H4347     1.0  0.89133  0.76933  0.32570  1.0000
  S   S726      1.0  0.72993  0.78905  0.13003  1.0000
  H   H4348     1.0  0.80885  0.92961  0.29466  1.0000
  Fe  Fe363     1.0  0.72078  0.77491  0.15983  1.0000
  S   S727      1.0  0.72043  0.78940  0.18223  1.0000
  Fe  Fe364     1.0  0.70385  0.78422  0.12529  1.0000
  S   S728      1.0  0.68140  0.80738  0.11418  1.0000
  H   H4349     1.0  0.69380  0.85153  0.11872  1.0000
  S   S729      1.0  0.71752  0.75613  0.11794  1.0000
  H   H4350     1.0  0.85003  0.93995  0.39826  1.0000
  S   S730      1.0  0.83462  0.83743  0.34901  1.0000
  S   S731      1.0  0.77944  0.83991  0.36085  1.0000
  Fe  Fe365     1.0  0.83987  0.86296  0.35515  1.0000
  S   S732      1.0  0.85658  0.88307  0.33419  1.0000
  S   S733      1.0  0.81011  0.87259  0.36950  1.0000
  Fe  Fe366     1.0  0.93363  0.90990  0.36216  1.0000
  S   S734      1.0  0.95335  0.91307  0.37786  1.0000
  S   S735      1.0  0.91112  0.89408  0.37765  1.0000
  Fe  Fe367     1.0  0.94966  0.93422  0.32627  1.0000
  S   S736      1.0  0.97116  0.93974  0.33865  1.0000
  H   H4351     1.0  0.90214  0.85578  0.40044  1.0000
  Fe  Fe368     1.0  0.97522  0.90885  0.35184  1.0000
  C   C2542     1.0  0.69909  0.74856  0.28086  1.0000
  Fe  Fe369     1.0  0.94785  0.94336  0.36373  1.0000
  H   H4352     1.0  0.89010  0.80314  0.42125  1.0000
  S   S737      1.0  0.95574  0.90301  0.33729  1.0000
  S   S738      1.0  0.92613  0.94048  0.35025  1.0000
  H   H4353     1.0  0.89286  0.81808  0.45420  1.0000
  H   H4354     1.0  0.84706  0.90181  0.29314  1.0000
  N   N182      1.0  0.66980  0.73992  0.21974  1.0000
  H   H4355     1.0  0.91005  0.80632  0.42792  1.0000
  H   H4356     1.0  0.77225  0.77324  0.33415  1.0000
  H   H4357     1.0  0.67497  0.84644  0.11335  1.0000
  H   H4358     1.0  0.82084  0.76242  0.18585  1.0000
  H   H4359     1.0  0.70957  0.91635  0.30651  1.0000
  H   H4360     1.0  0.83959  0.95757  0.42279  1.0000
  C   C2543     1.0  0.81485  0.88511  0.44782  1.0000
  H   H4361     1.0  0.87460  0.80667  0.45801  1.0000
  C   C2544     1.0  0.82442  0.89484  0.45447  1.0000
  H   H4362     1.0  0.79699  0.76280  0.19645  1.0000
  H   H4363     1.0  0.76644  0.77664  0.35748  1.0000
  H   H4364     1.0  0.77303  0.87501  0.30955  1.0000
  H   H4365     1.0  0.67008  0.89686  0.12883  1.0000
  H   H4366     1.0  0.90531  0.73748  0.37209  1.0000
  S   S739      1.0  0.93747  0.96618  0.38040  1.0000
  S   S740      1.0  0.94584  0.94685  0.29659  1.0000
  Fe  Fe370     1.0  0.80567  0.84549  0.36581  1.0000
  H   H4367     1.0  0.68114  0.74689  0.13126  1.0000
  C   C2545     1.0  0.86207  0.93657  0.28056  1.0000
  H   H4368     1.0  0.74562  0.88089  0.25794  1.0000
  H   H4369     1.0  0.86626  0.75214  0.34782  1.0000
  H   H4370     1.0  0.74458  0.75226  0.19001  1.0000
  Fe  Fe371     1.0  0.84205  0.82286  0.37680  1.0000
  H   H4371     1.0  0.88493  0.75956  0.39187  1.0000
  C   C2546     1.0  0.66445  0.78682  0.05238  1.0000
  C   C2547     1.0  0.71814  0.85641  0.30664  1.0000
  C   C2548     1.0  0.91020  0.76861  0.38962  1.0000
  H   H4372     1.0  0.77937  0.79247  0.37064  1.0000
  H   H4373     1.0  0.79048  0.74334  0.18088  1.0000
  H   H4374     1.0  0.80752  0.78958  0.19950  1.0000
  H   H4375     1.0  0.75006  0.90501  0.29843  1.0000
  H   H4376     1.0  0.91430  0.81396  0.37906  1.0000
  H   H4377     1.0  0.73939  0.85939  0.27271  1.0000
  C   C2549     1.0  0.95124  0.93732  0.47596  1.0000
  C   C2550     1.0  0.65525  0.97209  0.19639  1.0000
  C   C2551     1.0  0.68972  0.82761  0.15281  1.0000
  H   H4378     1.0  0.82799  0.91501  0.32851  1.0000
  H   H4379     1.0  0.73334  0.89908  0.31923  1.0000
  C   C2552     1.0  0.84137  0.89926  0.44374  1.0000
  H   H4380     1.0  0.81060  0.78231  0.12305  1.0000
  H   H4381     1.0  0.86183  0.93001  0.37847  1.0000
  C   C2553     1.0  0.87005  0.95198  0.41908  1.0000
  H   H4382     1.0  0.92056  0.93802  0.46044  1.0000
  H   H4383     1.0  0.76150  0.78594  0.14871  1.0000
  C   C2554     1.0  0.86954  0.89086  0.34567  1.0000
  C   C2555     1.0  0.86525  0.88779  0.36516  1.0000
  C   C2556     1.0  0.87785  0.88952  0.37481  1.0000
  C   C2557     1.0  0.89433  0.89540  0.36501  1.0000
  C   C2558     1.0  0.89755  0.90092  0.34545  1.0000
  C   C2559     1.0  0.88518  0.89848  0.33571  1.0000
  H   H4384     1.0  0.85231  0.88374  0.37282  1.0000
  H   H4385     1.0  0.87502  0.88593  0.38991  1.0000
  H   H4386     1.0  0.91004  0.90605  0.33781  1.0000
  H   H4387     1.0  0.88825  0.90160  0.32056  1.0000
  H   H4388     1.0  0.68141  0.74639  0.24004  1.0000
  C   C2560     1.0  0.70624  0.90678  0.29961  1.0000
  H   H4389     1.0  0.75558  0.87048  0.33087  1.0000
  H   H4390     1.0  0.70696  0.85177  0.31847  1.0000
  H   H4391     1.0  0.81708  0.74988  0.39107  1.0000
  H   H4392     1.0  0.66065  0.83746  0.16429  1.0000
  H   H4393     1.0  0.91083  0.93990  0.32099  1.0000
  C   C2561     1.0  0.67557  0.86872  0.14753  1.0000
  C   C2562     1.0  0.68140  0.81552  0.09018  1.0000
  C   C2563     1.0  0.66677  0.83014  0.08499  1.0000
  C   C2564     1.0  0.66556  0.83665  0.06616  1.0000
  C   C2565     1.0  0.67876  0.82837  0.05234  1.0000
  C   C2566     1.0  0.69391  0.81424  0.05737  1.0000
  C   C2567     1.0  0.69518  0.80772  0.07634  1.0000
  C   C2568     1.0  0.68489  0.73826  0.28759  1.0000
  C   C2569     1.0  0.68060  0.75117  0.22500  1.0000
  H   H4394     1.0  0.70436  0.80799  0.04669  1.0000
  H   H4395     1.0  0.70664  0.79655  0.08025  1.0000
  H   H4396     1.0  0.71873  0.89009  0.27901  1.0000
  N   N183      1.0  0.73748  0.88234  0.29854  1.0000
  H   H4397     1.0  0.69823  0.89693  0.31012  1.0000
  H   H4398     1.0  0.93469  0.88008  0.29420  1.0000
  C   C2570     1.0  0.88105  0.78962  0.38345  1.0000
  C   C2571     1.0  0.91852  0.78398  0.38599  1.0000
  H   H4399     1.0  0.97441  0.96215  0.46626  1.0000
  C   C2572     1.0  0.76046  0.88144  0.31894  1.0000
  C   C2573     1.0  0.77092  0.82205  0.31066  1.0000
  C   C2574     1.0  0.78661  0.82946  0.30892  1.0000
  C   C2575     1.0  0.78987  0.83429  0.32435  1.0000
  C   C2576     1.0  0.77714  0.83228  0.34154  1.0000
  C   C2577     1.0  0.76153  0.82479  0.34329  1.0000
  C   C2578     1.0  0.75856  0.81944  0.32802  1.0000
  H   H4400     1.0  0.79608  0.83180  0.29546  1.0000
  H   H4401     1.0  0.80185  0.84020  0.32278  1.0000
  H   H4402     1.0  0.75154  0.82331  0.35650  1.0000
  H   H4403     1.0  0.74626  0.81410  0.32947  1.0000
  C   C2579     1.0  0.76196  0.76503  0.22092  1.0000
  C   C2580     1.0  0.75181  0.78348  0.21963  1.0000
  C   C2581     1.0  0.73904  0.79066  0.20781  1.0000
  C   C2582     1.0  0.73647  0.77952  0.19699  1.0000
  C   C2583     1.0  0.74667  0.76101  0.19815  1.0000
  C   C2584     1.0  0.79102  0.78086  0.37490  1.0000
  H   H4404     1.0  0.75401  0.79241  0.22750  1.0000
  H   H4405     1.0  0.73119  0.80497  0.20696  1.0000
  H   H4406     1.0  0.81849  0.93344  0.35253  1.0000
  H   H4407     1.0  0.87494  0.78190  0.34204  1.0000
  H   H4408     1.0  0.65612  0.83628  0.09557  1.0000
  H   H4409     1.0  0.87564  0.95734  0.42838  1.0000
  H   H4410     1.0  0.82784  0.96303  0.28262  1.0000
  C   C2585     1.0  0.89142  0.77146  0.38857  1.0000
  H   H4411     1.0  0.90146  0.83158  0.40525  1.0000
  C   C2586     1.0  0.83165  0.90596  0.29505  1.0000
  H   H4412     1.0  0.69681  0.91575  0.29019  1.0000
  C   C2587     1.0  0.85109  0.96530  0.41645  1.0000
  H   H4413     1.0  0.87541  0.86200  0.42579  1.0000
  H   H4414     1.0  0.86135  0.89775  0.41778  1.0000
  C   C2588     1.0  0.88069  0.93542  0.39245  1.0000
  N   N184      1.0  0.83006  0.93724  0.30375  1.0000
  C   C2589     1.0  0.80148  0.96497  0.30193  1.0000
  H   H4415     1.0  0.69933  0.82511  0.13945  1.0000
  C   C2590     1.0  0.82291  0.95807  0.29793  1.0000
  C   C2591     1.0  0.82525  0.93978  0.33816  1.0000
  H   H4416     1.0  0.83258  0.76552  0.15392  1.0000
  C   C2592     1.0  0.86196  0.94065  0.38610  1.0000
  H   H4417     1.0  0.88061  0.92150  0.40203  1.0000
  H   H4418     1.0  0.86681  0.93840  0.42744  1.0000
  C   C2593     1.0  0.72851  0.86767  0.31318  1.0000
  C   C2594     1.0  0.66076  0.75554  0.07231  1.0000
  H   H4419     1.0  0.82861  0.93352  0.27676  1.0000
  C   C2595     1.0  0.83856  0.88497  0.41938  1.0000
  H   H4420     1.0  0.82864  0.96601  0.30471  1.0000
  H   H4421     1.0  0.84419  0.88099  0.40600  1.0000
  H   H4422     1.0  0.80669  0.93095  0.32642  1.0000
  S   S741      1.0  0.67525  0.83452  0.02921  1.0000
  H   H4423     1.0  0.98328  0.93497  0.44978  1.0000
  C   C2596     1.0  0.89945  0.97548  0.27604  1.0000
  C   C2597     1.0  0.66853  0.89022  0.14386  1.0000
  C   C2598     1.0  0.74991  0.86819  0.26850  1.0000
  H   H4424     1.0  0.72782  0.84373  0.30227  1.0000
  C   C2599     1.0  0.90336  0.94028  0.40718  1.0000
  H   H4425     1.0  0.91462  0.93831  0.39455  1.0000
  H   H4426     1.0  0.92941  0.97206  0.26641  1.0000
  H   H4427     1.0  0.85665  0.91887  0.30801  1.0000
  Fe  Fe372     1.0  0.82008  0.85591  0.39574  1.0000
  C   C2600     1.0  0.88938  0.80496  0.37991  1.0000
  H   H4428     1.0  0.76864  0.76165  0.15801  1.0000
  H   H4429     1.0  0.82773  0.90059  0.28464  1.0000
  H   H4430     1.0  0.80504  0.74626  0.36548  1.0000
  C   C2601     1.0  0.88653  0.76942  0.34081  1.0000
  H   H4431     1.0  0.84285  0.79666  0.33046  1.0000
  H   H4432     1.0  0.73095  0.90734  0.27753  1.0000
  H   H4433     1.0  0.76497  0.89093  0.32502  1.0000
  H   H4434     1.0  0.76297  0.85987  0.26136  1.0000
  H   H4435     1.0  0.98659  0.82201  0.38825  1.0000
  C   C2602     1.0  0.85105  0.93344  0.30104  1.0000
  C   C2603     1.0  0.82196  0.93013  0.32408  1.0000
  N   N185      1.0  0.80289  0.76719  0.16615  1.0000
  H   H4436     1.0  0.91242  0.95717  0.44297  1.0000
  H   H4437     1.0  0.78445  0.76875  0.38286  1.0000
  C   C2604     1.0  0.78439  0.77986  0.16299  1.0000
  C   C2605     1.0  0.81870  0.77265  0.15043  1.0000
  C   C2606     1.0  0.80386  0.78994  0.18612  1.0000
  S   S742      1.0  0.98524  0.74204  0.39695  1.0000
  H   H4438     1.0  0.66520  0.82865  0.14364  1.0000
  H   H4439     1.0  0.79930  0.80269  0.38298  1.0000
  C   C2607     1.0  0.77789  0.77029  0.34701  1.0000
  Fe  Fe373     1.0  0.74278  0.75973  0.12573  1.0000
  H   H4440     1.0  0.84780  0.85402  0.44919  1.0000
  H   H4441     1.0  0.67241  0.86408  0.16310  1.0000
  C   C2608     1.0  0.93706  0.97129  0.47684  1.0000
  H   H4442     1.0  0.78604  0.79456  0.15674  1.0000
  H   H4443     1.0  0.81859  0.78777  0.14845  1.0000
  H   H4444     1.0  0.67054  0.75825  0.07949  1.0000
  H   H4445     1.0  0.81313  0.79783  0.17472  1.0000
  H   H4446     1.0  0.78912  0.79770  0.18705  1.0000
  H   H4447     1.0  0.77429  0.78049  0.17659  1.0000
  Fe  Fe374     1.0  0.85029  0.92816  0.47249  1.0000
  H   H4448     1.0  0.65815  0.74274  0.17704  1.0000
  C   C2609     1.0  0.84821  0.89448  0.42609  1.0000
  C   C2610     1.0  0.85869  0.84214  0.45440  1.0000
  H   H4449     1.0  0.97166  0.80668  0.33859  1.0000
  C   C2611     1.0  0.68135  0.78042  0.03731  1.0000
  H   H4450     1.0  0.69575  0.83494  0.15990  1.0000
  N   N186      1.0  0.94791  0.95724  0.46488  1.0000
  C   C2612     1.0  0.82433  0.92741  0.29195  1.0000
  C   C2613     1.0  0.88493  0.97054  0.29087  1.0000
  H   H4451     1.0  0.70262  0.75504  0.19917  1.0000
  S   S743      1.0  0.74965  0.74637  0.28382  1.0000
  C   C2614     1.0  0.75397  0.87335  0.28521  1.0000
  N   N187      1.0  0.80539  0.77591  0.35783  1.0000
  C   C2615     1.0  0.79538  0.77891  0.34215  1.0000
  C   C2616     1.0  0.81901  0.78885  0.35152  1.0000
  S   S744      1.0  0.81095  0.86556  0.42353  1.0000
  H   H4452     1.0  0.89758  0.77168  0.34654  1.0000
  S   S745      1.0  0.94206  0.78085  0.38683  1.0000
  H   H4453     1.0  0.81079  0.77952  0.39278  1.0000
  H   H4454     1.0  0.67060  0.78938  0.06303  1.0000
  H   H4455     1.0  0.67306  0.74247  0.29837  1.0000
  H   H4456     1.0  0.80494  0.77320  0.33008  1.0000
  H   H4457     1.0  0.82750  0.78684  0.36206  1.0000
  H   H4458     1.0  0.81121  0.80372  0.35015  1.0000
  H   H4459     1.0  0.86121  0.92619  0.27306  1.0000
  H   H4460     1.0  0.88161  0.81897  0.37580  1.0000
  C   C2617     1.0  0.72384  0.89647  0.28775  1.0000
  C   C2618     1.0  0.92239  0.95546  0.29417  1.0000
  H   H4461     1.0  0.89785  0.78795  0.44079  1.0000
  C   C2619     1.0  0.96658  0.96253  0.45563  1.0000
  H   H4462     1.0  0.84123  0.77309  0.33238  1.0000
  H   H4463     1.0  0.90519  0.90960  0.41436  1.0000
  C   C2620     1.0  0.80297  0.73857  0.31950  1.0000
  H   H4464     1.0  0.73925  0.85696  0.31997  1.0000
  C   C2621     1.0  0.83288  0.78747  0.33268  1.0000
  C   C2622     1.0  0.79759  0.78804  0.38886  1.0000
  C   C2623     1.0  0.81520  0.75556  0.36156  1.0000
  H   H4465     1.0  0.85329  0.80360  0.44301  1.0000
  C   C2624     1.0  0.88691  0.96694  0.38761  1.0000
  H   H4466     1.0  0.84822  0.97679  0.42410  1.0000
  H   H4467     1.0  0.89391  0.92111  0.43393  1.0000
  H   H4468     1.0  0.68903  0.79199  0.03114  1.0000
  C   C2625     1.0  0.88334  0.81541  0.44673  1.0000
  C   C2626     1.0  0.90498  0.92109  0.42102  1.0000
  S   S746      1.0  0.85788  0.79278  0.38115  1.0000
  H   H4469     1.0  0.67684  0.89645  0.14973  1.0000
  H   H4470     1.0  0.89199  0.93301  0.37998  1.0000
  S   S747      1.0  0.83481  0.95836  0.46762  1.0000
  N   N188      1.0  0.88466  0.94893  0.40169  1.0000
  H   H4471     1.0  0.96463  0.97724  0.44737  1.0000
  C   C2627     1.0  0.74472  0.89294  0.30849  1.0000
  C   C2628     1.0  0.91883  0.95343  0.45542  1.0000
  H   H4472     1.0  0.79085  0.79410  0.33656  1.0000
  S   S748      1.0  0.69856  0.76725  0.29104  1.0000
  H   H4473     1.0  0.82568  0.79268  0.32072  1.0000
  H   H4474     1.0  0.87450  0.75421  0.36690  1.0000
  C   C2629     1.0  0.77397  0.77459  0.15082  1.0000
  H   H4475     1.0  0.85519  0.94248  0.30797  1.0000
  H   H4476     1.0  0.89946  0.96434  0.37625  1.0000
  C   C2630     1.0  0.92520  0.74122  0.34579  1.0000
  C   C2631     1.0  0.89600  0.80284  0.43320  1.0000
  H   H4477     1.0  0.87383  0.86208  0.45755  1.0000
  C   C2632     1.0  0.80639  0.76957  0.18406  1.0000
  H   H4478     1.0  0.91856  0.91760  0.42543  1.0000
  N   N189      1.0  0.93594  0.84713  0.33669  1.0000
  C   C2633     1.0  0.94296  0.85768  0.34684  1.0000
  C   C2634     1.0  0.94063  0.85535  0.31597  1.0000
  C   C2635     1.0  0.94501  0.82659  0.34009  1.0000
  C   C2636     1.0  0.91515  0.84907  0.34389  1.0000
  C   C2637     1.0  0.94261  0.84930  0.36782  1.0000
  C   C2638     1.0  0.92923  0.87510  0.30937  1.0000
  C   C2639     1.0  0.96652  0.82203  0.33413  1.0000
  C   C2640     1.0  0.90512  0.83984  0.33463  1.0000
  H   H4479     1.0  0.95751  0.85937  0.34001  1.0000
  H   H4480     1.0  0.93450  0.87224  0.34606  1.0000
  H   H4481     1.0  0.93923  0.84601  0.30750  1.0000
  H   H4482     1.0  0.95559  0.85642  0.31146  1.0000
  H   H4483     1.0  0.94106  0.81971  0.35507  1.0000
  H   H4484     1.0  0.93980  0.81905  0.33239  1.0000
  H   H4485     1.0  0.91193  0.84284  0.35907  1.0000
  H   H4486     1.0  0.90784  0.86391  0.34335  1.0000
  H   H4487     1.0  0.95185  0.83524  0.37028  1.0000
  H   H4488     1.0  0.94776  0.85861  0.37356  1.0000
  H   H4489     1.0  0.92828  0.84870  0.37597  1.0000
  H   H4490     1.0  0.68833  0.88276  0.10372  1.0000
  H   H4491     1.0  0.91428  0.87504  0.31102  1.0000
  H   H4492     1.0  0.93054  0.88543  0.31669  1.0000
  H   H4493     1.0  0.79846  0.74415  0.15681  1.0000
  H   H4494     1.0  0.81609  0.73453  0.24159  1.0000
  C   C2641     1.0  0.65675  0.73756  0.19241  1.0000
  H   H4495     1.0  0.90544  0.82493  0.34174  1.0000
  H   H4496     1.0  0.91101  0.84056  0.31952  1.0000
  H   H4497     1.0  0.89032  0.84752  0.33556  1.0000
  S   S749      1.0  0.85591  0.90826  0.45252  1.0000
  H   H4498     1.0  0.80207  0.88121  0.45647  1.0000
  H   H4499     1.0  0.84034  0.93745  0.33808  1.0000
  H   H4500     1.0  0.82520  0.89871  0.30911  1.0000
  H   H4501     1.0  0.78663  0.78829  0.40191  1.0000
  S   S750      1.0  0.81295  0.82967  0.39348  1.0000
  H   H4502     1.0  0.79470  0.95924  0.29402  1.0000
  H   H4503     1.0  0.76185  0.86031  0.29286  1.0000
  H   H4504     1.0  0.67896  0.87241  0.09023  1.0000
  H   H4505     1.0  0.90740  0.94967  0.41377  1.0000
  H   H4506     1.0  0.92208  0.74988  0.33234  1.0000
  H   H4507     1.0  0.85983  0.95436  0.37625  1.0000
  C   C2642     1.0  0.90780  0.95006  0.30863  1.0000
  C   C2643     1.0  0.82202  0.87988  0.43036  1.0000
  C   C2644     1.0  0.91818  0.96795  0.27772  1.0000
  H   H4508     1.0  0.76411  0.88275  0.27884  1.0000
  H   H4509     1.0  0.71888  0.87361  0.32509  1.0000
  S   S751      1.0  0.84999  0.84739  0.38153  1.0000
  N   N190      1.0  0.66775  0.85765  0.13859  1.0000
  H   H4510     1.0  0.79520  0.75223  0.31427  1.0000
  H   H4511     1.0  0.82490  0.75180  0.34863  1.0000
  C   C2645     1.0  0.97237  0.96732  0.38400  1.0000
  H   H4512     1.0  0.81903  0.95500  0.33574  1.0000
  H   H4513     1.0  0.79508  0.96197  0.31706  1.0000
  H   H4514     1.0  0.86787  0.82558  0.41424  1.0000
  H   H4515     1.0  0.69136  0.76830  0.04350  1.0000
  N   N191      1.0  0.87164  0.83366  0.43841  1.0000
  C   C2646     1.0  0.70104  0.75051  0.21456  1.0000
  H   H4516     1.0  0.97123  0.82565  0.31869  1.0000
  C   C2647     1.0  0.85953  0.83098  0.42683  1.0000
  C   C2648     1.0  0.75944  0.75377  0.21013  1.0000
  H   H4517     1.0  0.94624  0.95088  0.43903  1.0000
  H   H4518     1.0  0.93530  0.97417  0.44175  1.0000
  H   H4519     1.0  0.83878  0.81612  0.42666  1.0000
  C   C2649     1.0  0.66979  0.83781  0.15004  1.0000
  H   H4520     1.0  0.97323  0.82916  0.34074  1.0000
  H   H4521     1.0  0.89518  0.84672  0.43382  1.0000
  H   H4522     1.0  0.83732  0.75736  0.37468  1.0000
  H   H4523     1.0  0.81907  0.89824  0.46818  1.0000
  C   C2650     1.0  0.67864  0.85688  0.11892  1.0000
  H   H4524     1.0  0.92865  0.75059  0.35289  1.0000
  H   H4525     1.0  0.69110  0.86603  0.14324  1.0000
  S   S752      1.0  0.87748  0.93569  0.47125  1.0000
  H   H4526     1.0  0.87708  0.93486  0.28056  1.0000
  H   H4527     1.0  0.66230  0.76245  0.19680  1.0000
  H   H4528     1.0  0.83187  0.73422  0.16023  1.0000
  S   S753      1.0  0.77820  0.75635  0.23558  1.0000
  H   H4529     1.0  0.91819  0.75453  0.39338  1.0000
  C   C2651     1.0  0.84594  0.81778  0.43699  1.0000
  H   H4530     1.0  0.88225  0.84954  0.39764  1.0000
  H   H4531     1.0  0.98509  0.83700  0.36584  1.0000
  C   C2652     1.0  0.80202  0.74693  0.16890  1.0000
  C   C2653     1.0  0.78977  0.73787  0.11744  1.0000
  H   H4532     1.0  0.67732  0.77750  0.02551  1.0000
  Fe  Fe375     1.0  0.76189  0.75169  0.30498  1.0000
  H   H4533     1.0  0.85100  0.84477  0.42123  1.0000
  H   H4534     1.0  0.87877  0.83886  0.47227  1.0000
  Fe  Fe376     1.0  0.70924  0.74465  0.14874  1.0000
  S   S754      1.0  0.77142  0.75352  0.10769  1.0000
  H   H4535     1.0  0.90873  0.96081  0.46598  1.0000
  C   C2654     1.0  0.67728  0.87541  0.10426  1.0000
  Fe  Fe377     1.0  0.95581  0.75019  0.39297  1.0000
  H   H4536     1.0  0.87804  0.95370  0.31855  1.0000
  S   S755      1.0  0.73560  0.74591  0.15602  1.0000
  H   H4537     1.0  0.72461  0.75161  0.26061  1.0000
  H   H4538     1.0  0.81058  0.74664  0.09346  1.0000
  C   C2655     1.0  0.88373  0.84737  0.42686  1.0000
  H   H4539     1.0  0.97815  0.95802  0.37425  1.0000
  H   H4540     1.0  0.81413  0.75722  0.13133  1.0000
  H   H4541     1.0  0.82910  0.74755  0.31246  1.0000
  C   C2656     1.0  0.87915  0.75185  0.35238  1.0000
  C   C2657     1.0  0.93778  0.95932  0.44952  1.0000
  H   H4542     1.0  0.67330  0.76622  0.22313  1.0000
  H   H4543     1.0  0.68907  0.81355  0.16198  1.0000
  H   H4544     1.0  0.83890  0.73853  0.25726  1.0000
  H   H4545     1.0  0.97923  0.79218  0.40119  1.0000
  H   H4546     1.0  0.85756  0.95090  0.27256  1.0000
  H   H4547     1.0  0.83478  0.82377  0.44793  1.0000
  C   C2658     1.0  0.88918  0.95771  0.30707  1.0000
  H   H4548     1.0  0.78109  0.75486  0.35185  1.0000
  H   H4549     1.0  0.78241  0.77301  0.13679  1.0000
  H   H4550     1.0  0.66550  0.96785  0.16809  1.0000
  H   H4551     1.0  0.65901  0.74613  0.11289  1.0000
  H   H4552     1.0  0.71000  0.73652  0.21846  1.0000
  H   H4553     1.0  0.85088  0.83184  0.46458  1.0000
  C   C2659     1.0  0.95302  0.97307  0.38946  1.0000
  H   H4554     1.0  0.81665  0.75297  0.26306  1.0000
  H   H4555     1.0  0.85004  0.97180  0.40179  1.0000
  C   C2660     1.0  0.66841  0.74711  0.19947  1.0000
  S   S756      1.0  0.86125  0.98012  0.29011  1.0000
  H   H4556     1.0  0.76713  0.73941  0.21126  1.0000
  S   S757      1.0  0.67473  0.98121  0.19573  1.0000
  C   C2661     1.0  0.71415  0.74319  0.26671  1.0000
  C   C2662     1.0  0.98431  0.97386  0.39102  1.0000
  C   C2663     1.0  0.82436  0.73816  0.26486  1.0000
  C   C2664     1.0  0.82641  0.74924  0.37715  1.0000
  H   H4557     1.0  0.68225  0.74580  0.18991  1.0000
  H   H4558     1.0  0.70652  0.76044  0.21911  1.0000
  C   C2665     1.0  0.81898  0.76984  0.13092  1.0000
  H   H4559     1.0  0.79817  0.98044  0.29705  1.0000
  H   H4560     1.0  0.66355  0.88499  0.10660  1.0000
  H   H4561     1.0  0.87532  0.97259  0.38006  1.0000
  H   H4562     1.0  0.67700  0.74478  0.04628  1.0000
  C   C2666     1.0  0.80805  0.73741  0.10707  1.0000
  C   C2667     1.0  0.67168  0.73995  0.06138  1.0000
  C   C2668     1.0  0.98026  0.94990  0.44261  1.0000
  H   H4563     1.0  0.90043  0.97938  0.40276  1.0000
  H   H4564     1.0  0.97546  0.95123  0.42963  1.0000
  H   H4565     1.0  0.90364  0.74082  0.32165  1.0000
  H   H4566     1.0  0.83364  0.73433  0.37764  1.0000
  H   H4567     1.0  0.95510  0.92731  0.46641  1.0000
  C   C2669     1.0  0.82208  0.73598  0.31872  1.0000
  C   C2670     1.0  0.88867  0.98315  0.39549  1.0000
  C   C2671     1.0  0.67501  0.73479  0.13439  1.0000
  H   H4568     1.0  0.65679  0.80078  0.04592  1.0000
  C   C2672     1.0  0.66241  0.73438  0.12398  1.0000
  H   H4569     1.0  0.85700  0.85479  0.47762  1.0000
  S   S758      1.0  0.97923  0.90207  0.60300  1.0000
  C   C2673     1.0  0.89678  0.95376  0.52137  1.0000
  C   C2674     1.0  0.91197  0.95778  0.54426  1.0000
  H   H4570     1.0  0.84061  0.93638  0.56141  1.0000
  S   S759      1.0  0.91828  0.97321  0.55413  1.0000
  Fe  Fe378     1.0  0.86833  0.93393  0.50216  1.0000
  S   S760      1.0  0.88805  0.92037  0.52206  1.0000
  S   S761      1.0  0.84230  0.92400  0.50406  1.0000
  H   H4571     1.0  0.67455  0.84495  0.93141  1.0000
  H   H4572     1.0  0.81993  0.97850  0.60519  1.0000
  C   C2675     1.0  0.83148  0.96686  0.55995  1.0000
  H   H4573     1.0  0.93756  0.93142  0.50585  1.0000
  H   H4574     1.0  0.67201  0.83100  0.95452  1.0000
  S   S762      1.0  0.96836  0.94820  0.56443  1.0000
  H   H4575     1.0  0.85874  0.94574  0.57841  1.0000
  Fe  Fe379     1.0  0.93850  0.96219  0.57372  1.0000
  H   H4576     1.0  0.86462  0.95061  0.60694  1.0000
  C   C2676     1.0  0.86137  0.96290  0.59555  1.0000
  S   S763      1.0  0.85431  0.96412  0.49942  1.0000
  C   C2677     1.0  0.70126  0.97765  0.81975  1.0000
  H   H4577     1.0  0.82492  0.97827  0.54958  1.0000
  H   H4578     1.0  0.81925  0.96265  0.57057  1.0000
  H   H4579     1.0  0.65736  0.86130  0.91017  1.0000
  S   S764      1.0  0.65748  0.95929  0.86630  1.0000
  H   H4580     1.0  0.92098  0.93971  0.49069  1.0000
  H   H4581     1.0  0.95028  0.95804  0.50139  1.0000
  H   H4582     1.0  0.65544  0.95308  0.77766  1.0000
  Fe  Fe380     1.0  0.94529  0.96791  0.60984  1.0000
  C   C2678     1.0  0.90408  0.96511  0.52836  1.0000
  H   H4583     1.0  0.65543  0.97706  0.76950  1.0000
  H   H4584     1.0  0.97357  0.96960  0.64013  1.0000
  C   C2679     1.0  0.84980  0.95806  0.58419  1.0000
  C   C2680     1.0  0.93506  0.93144  0.49203  1.0000
  S   S765      1.0  0.97596  0.95469  0.60338  1.0000
  Fe  Fe381     1.0  0.96678  0.93305  0.59450  1.0000
  H   H4585     1.0  0.93470  0.91669  0.49265  1.0000
  H   H4586     1.0  0.83368  0.94994  0.53991  1.0000
  H   H4587     1.0  0.83774  0.95272  0.59412  1.0000
  Fe  Fe382     1.0  0.82885  0.95491  0.49905  1.0000
  H   H4588     1.0  0.91947  0.93300  0.56489  1.0000
  H   H4589     1.0  0.85570  0.94975  0.54349  1.0000
  H   H4590     1.0  0.89050  0.95962  0.50928  1.0000
  H   H4591     1.0  0.87074  0.96618  0.55138  1.0000
  N   N192      1.0  0.84340  0.97366  0.56870  1.0000
  H   H4592     1.0  0.65965  0.89484  0.94534  1.0000
  C   C2681     1.0  0.91336  0.93879  0.55264  1.0000
  C   C2682     1.0  0.90623  0.92736  0.54553  1.0000
  C   C2683     1.0  0.89760  0.93488  0.53010  1.0000
  H   H4593     1.0  0.65704  0.97035  0.80142  1.0000
  S   S766      1.0  0.80193  0.96741  0.51732  1.0000
  H   H4594     1.0  0.90707  0.91271  0.55223  1.0000
  S   S767      1.0  0.93591  0.94503  0.60315  1.0000
  H   H4595     1.0  0.87500  0.96571  0.58680  1.0000
  C   C2684     1.0  0.84105  0.94971  0.55087  1.0000
  H   H4596     1.0  0.71006  0.96978  0.83012  1.0000
  H   H4597     1.0  0.93540  0.98067  0.50210  1.0000
  Fe  Fe383     1.0  0.97511  0.97066  0.57403  1.0000
  C   C2685     1.0  0.94590  0.97205  0.49271  1.0000
  H   H4598     1.0  0.70387  0.96888  0.80929  1.0000
  S   S768      1.0  0.93156  0.97816  0.63685  1.0000
  H   H4599     1.0  0.92271  0.96912  0.48339  1.0000
  H   H4600     1.0  0.85368  0.97488  0.60227  1.0000
  H   H4601     1.0  0.95789  0.97914  0.48717  1.0000
  H   H4602     1.0  0.96340  0.93469  0.48263  1.0000
  H   H4603     1.0  0.90313  0.97976  0.52178  1.0000
  H   H4604     1.0  0.66019  0.97628  0.73992  1.0000
  C   C2686     1.0  0.86037  0.97888  0.55465  1.0000
  H   H4605     1.0  0.66413  0.82451  0.93738  1.0000
  C   C2687     1.0  0.66517  0.83669  0.94230  1.0000
  C   C2688     1.0  0.97963  0.98132  0.64048  1.0000
  H   H4606     1.0  0.68661  0.97905  0.82752  1.0000
  Fe  Fe384     1.0  0.66362  0.98248  0.87552  1.0000
  H   H4607     1.0  0.98185  0.98224  0.50808  1.0000
  H   H4608     1.0  0.80475  0.98280  0.58885  1.0000
