data_image0
_chemical_formula_structural       NSCSHSHCHC2H3CH2CH6CHFeH2CH3CSCH4CH2SH2C2HFeCH5FeS2FeS2FeSFeS2CH3C6H4C2H4SCH4CH2CNH4SCH2NHC2H5CH2SC4HC2HC2H2C2H2C3HCH2CH3CH2NH4CH3CHCHCHNH4CHCH4CHCHC2H3FeS2HSHFeSCSHFeS2FeSHFeSFeS3C2H2C2H5C3H3CHCH2C2H4C6H4C3H3CH2FeH6CH4C2H2SHC3H7NC5H2CH2NH4NH2CH2C2HNCH3CH9NCH6C2HC3H2CHCH2CFeHC2H2C2HCHC2HCH2CH2CH6CFeC2H2CH3FeCSHSHSH3SHCSCFeCFeSHS2C6H7CH3CHCHSC2H2C3HCFeH4C3HCHCHC2HNCHFeH3CHC2H3CH6CH2CHCH2SHSH2CSCH3NH4CHC5H6SHCH2SCH4SCFeS2FeSHSHSH2SH2SFeS2FeS2FeSHSCFeSHFeS2FeSFeS3HSHCH2C2HCH2C4H3C6H4C4H5CH2C2HC3NH3C6HC2HFeC6H10CH2CHCH2CH2CHCH2CH2CHCHCHN2H5CH3CH3CH3CH2CHFeCH5CH2SHCHCNFeH3CH2CHC3HCHCH2CH2CNC7H20SH5C2H8C3FeHFeHC2H2CH4C3HFeCHCH2SH6CHCHFeH2C2SCH2CFeS2FeS2FeSFeS5CHFeSHFeS2FeSFeS3FeS2FeS2HFeSHS2C6H5CHC3H2C2H2SC2H2CH4C6H4C6H2CH2NC2HCHSH3NC4H2C2HC4H9CHNHC4H11NC7H15SHCH5CHCH2CH4FeHCH4CHCSFeH5C2SCH4CHSNCH5CH4CHC2H2CH9CHCH10C2HNCHCH3CHC2H8CH2NH4FeS2FeSHFeSCSHCHFeH2CFeSHSFeS2FeSHFeSFeS3H2C5SH2C6H4CHC4H4C6H10C3SHCH2C2N2H2CH2SH2C2HCH7SH5CHCNCSH2CHNC8H20C2H2CH2C3HFeHC3H2CFeSHCH5CH2CHCH7C3HNHC2HCH2CH2CH4SHCH4CHSHNH4C3SC3SFe2S2HFeS2FeS2FeSFeS3FeS2FeS2FeSFeS3FeS2FeCSFeSHS2C6H4C6H6C3H5C4HCH4C3H4C5H4C6H6C2HCHCHC4HCHFeHCHNH4SHCHFeHCH2C3HC4HCHFeH5C2H2C2H3CHC3H2CHNH3CH3CH2NCH6CHC2HCH2CNC7H22SH3CHCHCH2SHCH2CHCH9NH3C2H5C3HCH3NHC2H5CH5CHSCH3CH2CH2CH6CH2S2H2SFeS2FeS2FeSFeS3CHC4H4C5HCHC6H7C4H2CNC8H20CH9CFeH2CH2FeNH2CHCHC4SHCH2CH4C3H5NSCH10NH2C2H8CHSC2HNFeCH2CHCHC3HC2HNHSC2HCHCH2FeHCSHCH3C2H6CH2Fe2S2FeS2FeSFeS4FeS2FeS2FeSFeS3C6H4C2H2C2H4CHCH2C6H4CH2C3H3CHC2H5CHCH6NHC3H2C2H4CH10CH4NC3H3CH2CSH3C3H4NC2H2NC8H20CH6SC3H3CH3NHCH2C2HCH7CHCH4C2SH2CHC3H2CHC2FeHSH2CHCH2CH2S2CH3CHC2HC2HCH2NHFeCH2CH4FeH2C2SHC2HSH2CH3C2S
_chemical_formula_sum              "N48 S192 C672 H1152 Fe96"
_cell_length_a       59.5986
_cell_length_b       59.2935
_cell_length_c       41.9891
_cell_angle_alpha    91.3434
_cell_angle_beta     91.4215
_cell_angle_gamma    118.857

_space_group_name_H-M_alt    "P 1"
_space_group_IT_number       1

loop_
  _space_group_symop_operation_xyz
  'x, y, z'

loop_
  _atom_site_type_symbol
  _atom_site_label
  _atom_site_symmetry_multiplicity
  _atom_site_fract_x
  _atom_site_fract_y
  _atom_site_fract_z
  _atom_site_occupancy
  N   N1        1.0  0.22866  0.49497  0.06822  1.0000
  S   S1        1.0  0.31469  0.46119  0.46031  1.0000
  C   C1        1.0  0.10008  0.39423  0.49442  1.0000
  S   S2        1.0  0.28913  0.47592  0.14592  1.0000
  H   H1        1.0  0.25355  0.49668  0.24444  1.0000
  S   S3        1.0  0.31680  0.40746  0.44501  1.0000
  H   H2        1.0  0.27523  0.47073  0.24158  1.0000
  C   C2        1.0  0.22386  0.46794  0.18274  1.0000
  H   H3        1.0  0.24692  0.44957  0.09232  1.0000
  C   C3        1.0  0.18419  0.46992  0.09319  1.0000
  C   C4        1.0  0.23796  0.45684  0.07468  1.0000
  H   H4        1.0  0.13109  0.36187  0.46144  1.0000
  H   H5        1.0  0.23856  0.44288  0.16696  1.0000
  H   H6        1.0  0.19579  0.45924  0.05011  1.0000
  C   C5        1.0  0.11116  0.34655  0.46405  1.0000
  H   H7        1.0  0.10786  0.41188  0.48033  1.0000
  H   H8        1.0  0.24831  0.45931  0.05240  1.0000
  C   C6        1.0  0.22966  0.48329  0.00798  1.0000
  H   H9        1.0  0.21764  0.44176  0.07132  1.0000
  H   H10       1.0  0.16307  0.49822  0.39513  1.0000
  H   H11       1.0  0.19098  0.46061  0.11069  1.0000
  H   H12       1.0  0.30473  0.45093  0.30450  1.0000
  H   H13       1.0  0.25055  0.43509  0.48412  1.0000
  H   H14       1.0  0.20576  0.45226  0.18964  1.0000
  C   C7        1.0  0.24244  0.46262  0.17008  1.0000
  H   H15       1.0  0.23199  0.48120  0.28986  1.0000
  Fe  Fe1       1.0  0.30580  0.42538  0.48603  1.0000
  H   H16       1.0  0.32793  0.37432  0.39688  1.0000
  H   H17       1.0  0.08665  0.37776  0.47858  1.0000
  C   C8        1.0  0.22866  0.49341  0.18670  1.0000
  H   H18       1.0  0.31821  0.39080  0.36942  1.0000
  H   H19       1.0  0.18354  0.48661  0.10476  1.0000
  H   H20       1.0  0.22629  0.46380  0.01338  1.0000
  C   C9        1.0  0.24093  0.48258  0.08783  1.0000
  S   S4        1.0  0.31660  0.44503  0.36920  1.0000
  C   C10       1.0  0.20015  0.47751  0.06301  1.0000
  H   H21       1.0  0.19192  0.48673  0.04722  1.0000
  H   H22       1.0  0.16403  0.45572  0.08613  1.0000
  H   H23       1.0  0.29995  0.49136  0.26961  1.0000
  H   H24       1.0  0.13633  0.39532  0.48874  1.0000
  C   C11       1.0  0.26617  0.48280  0.16206  1.0000
  H   H25       1.0  0.26726  0.47273  0.28181  1.0000
  H   H26       1.0  0.21130  0.48183  0.99897  1.0000
  S   S5        1.0  0.20569  0.49936  0.20491  1.0000
  H   H27       1.0  0.11018  0.32839  0.45470  1.0000
  H   H28       1.0  0.09816  0.35000  0.44791  1.0000
  C   C12       1.0  0.23773  0.49871  0.30531  1.0000
  C   C13       1.0  0.27956  0.48420  0.26255  1.0000
  H   H29       1.0  0.23325  0.47923  0.11207  1.0000
  Fe  Fe2       1.0  0.32876  0.44519  0.42110  1.0000
  C   C14       1.0  0.32523  0.46280  0.30851  1.0000
  H   H30       1.0  0.14400  0.49114  0.42935  1.0000
  H   H31       1.0  0.23037  0.49207  0.32927  1.0000
  H   H32       1.0  0.26191  0.49557  0.09140  1.0000
  H   H33       1.0  0.12393  0.50053  0.38302  1.0000
  H   H34       1.0  0.08079  0.33707  0.49609  1.0000
  Fe  Fe3       1.0  0.10040  0.40998  0.60986  1.0000
  S   S6        1.0  0.10954  0.43993  0.64901  1.0000
  S   S7        1.0  0.06013  0.38333  0.58718  1.0000
  Fe  Fe4       1.0  0.15822  0.43513  0.59092  1.0000
  S   S8        1.0  0.17035  0.46716  0.62845  1.0000
  S   S9        1.0  0.18403  0.43663  0.54994  1.0000
  Fe  Fe5       1.0  0.14455  0.43607  0.66063  1.0000
  S   S10       1.0  0.15789  0.43349  0.71121  1.0000
  Fe  Fe6       1.0  0.13444  0.46847  0.61386  1.0000
  S   S11       1.0  0.13387  0.40344  0.62363  1.0000
  S   S12       1.0  0.12401  0.43901  0.57429  1.0000
  C   C15       1.0  0.16602  0.45770  0.74193  1.0000
  H   H35       1.0  0.08314  0.32055  0.55589  1.0000
  H   H36       1.0  0.06911  0.45450  0.66256  1.0000
  H   H37       1.0  0.03663  0.41574  0.56362  1.0000
  C   C16       1.0  0.17697  0.45571  0.77111  1.0000
  C   C17       1.0  0.20884  0.42865  0.54271  1.0000
  C   C18       1.0  0.21563  0.41493  0.56403  1.0000
  C   C19       1.0  0.23465  0.40817  0.55629  1.0000
  C   C20       1.0  0.24772  0.41565  0.52763  1.0000
  C   C21       1.0  0.05776  0.44748  0.61218  1.0000
  H   H38       1.0  0.07388  0.33675  0.58493  1.0000
  H   H39       1.0  0.20594  0.40916  0.58623  1.0000
  H   H40       1.0  0.28483  0.47239  0.52584  1.0000
  H   H41       1.0  0.29112  0.47186  0.61155  1.0000
  C   C22       1.0  0.02478  0.36348  0.63540  1.0000
  C   C23       1.0  0.02880  0.36783  0.60291  1.0000
  H   H42       1.0  0.10488  0.43155  0.90947  1.0000
  H   H43       1.0  0.04106  0.37028  0.65208  1.0000
  H   H44       1.0  0.09853  0.46875  0.79047  1.0000
  H   H45       1.0  0.03404  0.47289  0.53277  1.0000
  S   S13       1.0  0.27193  0.40700  0.51935  1.0000
  C   C24       1.0  0.13876  0.36573  0.53703  1.0000
  H   H46       1.0  0.14761  0.38136  0.55601  1.0000
  H   H47       1.0  0.15278  0.48020  0.71601  1.0000
  H   H48       1.0  0.07813  0.45519  0.60596  1.0000
  H   H49       1.0  0.00480  0.44634  0.57472  1.0000
  C   C25       1.0  0.18293  0.47407  0.79641  1.0000
  H   H50       1.0  0.29722  0.43498  0.59331  1.0000
  H   H51       1.0  0.16750  0.38718  0.50126  1.0000
  C   C26       1.0  0.22157  0.43569  0.51381  1.0000
  N   N2        1.0  0.04283  0.45182  0.58572  1.0000
  H   H52       1.0  0.00998  0.36173  0.55650  1.0000
  H   H53       1.0  0.12332  0.49043  0.81799  1.0000
  H   H54       1.0  0.08340  0.44979  0.55479  1.0000
  H   H55       1.0  0.05752  0.43388  0.88133  1.0000
  S   S14       1.0  0.26842  0.49559  0.91641  1.0000
  C   C27       1.0  0.30341  0.48914  0.53384  1.0000
  H   H56       1.0  0.14025  0.46962  0.92332  1.0000
  H   H57       1.0  0.06858  0.48118  0.64502  1.0000
  N   N3        1.0  0.30474  0.49447  0.56936  1.0000
  H   H58       1.0  0.31700  0.49619  0.97693  1.0000
  C   C28       1.0  0.11187  0.46986  0.81015  1.0000
  C   C29       1.0  0.30851  0.45416  0.58293  1.0000
  H   H59       1.0  0.11546  0.40707  0.85373  1.0000
  H   H60       1.0  0.27374  0.45613  0.57606  1.0000
  H   H61       1.0  0.05059  0.42655  0.61539  1.0000
  H   H62       1.0  0.08535  0.41390  0.87584  1.0000
  H   H63       1.0  0.02628  0.43294  0.53933  1.0000
  C   C30       1.0  0.17761  0.49446  0.79296  1.0000
  H   H64       1.0  0.08512  0.43265  0.82707  1.0000
  H   H65       1.0  0.23948  0.39727  0.57279  1.0000
  S   S15       1.0  0.19849  0.48992  0.90557  1.0000
  C   C31       1.0  0.06682  0.44577  0.53870  1.0000
  C   C32       1.0  0.13369  0.44951  0.85937  1.0000
  C   C33       1.0  0.99958  0.34933  0.64627  1.0000
  C   C34       1.0  0.29352  0.46921  0.58577  1.0000
  H   H66       1.0  0.06056  0.42020  0.91744  1.0000
  C   C35       1.0  0.00722  0.35858  0.58170  1.0000
  C   C36       1.0  0.09400  0.43312  0.88849  1.0000
  H   H67       1.0  0.00862  0.41156  0.62606  1.0000
  C   C37       1.0  0.16120  0.47839  0.73829  1.0000
  C   C38       1.0  0.13321  0.48327  0.91749  1.0000
  H   H68       1.0  0.18082  0.43981  0.77417  1.0000
  H   H69       1.0  0.10204  0.32535  0.50744  1.0000
  C   C39       1.0  0.09727  0.36208  0.54859  1.0000
  C   C40       1.0  0.09628  0.45275  0.83717  1.0000
  H   H70       1.0  0.03071  0.49449  0.56053  1.0000
  H   H71       1.0  0.19118  0.47215  0.81874  1.0000
  C   C41       1.0  0.04180  0.43567  0.55682  1.0000
  C   C42       1.0  0.26082  0.49345  0.56801  1.0000
  C   C43       1.0  0.16685  0.49656  0.76370  1.0000
  H   H72       1.0  0.31783  0.48324  0.52721  1.0000
  C   C44       1.0  0.01584  0.44395  0.59494  1.0000
  H   H73       1.0  0.13380  0.34749  0.54903  1.0000
  H   H74       1.0  0.07684  0.48756  0.57513  1.0000
  C   C45       1.0  0.07127  0.43592  0.90093  1.0000
  H   H75       1.0  0.10594  0.34215  0.58672  1.0000
  H   H76       1.0  0.11713  0.42294  0.81674  1.0000
  H   H77       1.0  0.07749  0.45432  0.91459  1.0000
  C   C46       1.0  0.12700  0.42444  0.84003  1.0000
  H   H78       1.0  0.14825  0.46583  0.84624  1.0000
  H   H79       1.0  0.11930  0.48228  0.93524  1.0000
  N   N4        1.0  0.11147  0.45389  0.86703  1.0000
  H   H80       1.0  0.13742  0.49512  0.86887  1.0000
  H   H81       1.0  0.14512  0.42434  0.83464  1.0000
  H   H82       1.0  0.07098  0.46343  0.52586  1.0000
  H   H83       1.0  0.14412  0.44915  0.88148  1.0000
  C   C47       1.0  0.08987  0.33888  0.56993  1.0000
  H   H84       1.0  0.24298  0.49004  0.98800  1.0000
  H   H85       1.0  0.24936  0.47961  0.58618  1.0000
  H   H86       1.0  0.10555  0.37966  0.56463  1.0000
  C   C48       1.0  0.05830  0.45984  0.64517  1.0000
  H   H87       1.0  0.10682  0.48611  0.88390  1.0000
  C   C49       1.0  0.05611  0.48013  0.57911  1.0000
  H   H88       1.0  0.03891  0.45275  0.65450  1.0000
  C   C50       1.0  0.16001  0.36913  0.51438  1.0000
  H   H89       1.0  0.13306  0.40669  0.52611  1.0000
  N   N5        1.0  0.11516  0.36515  0.52215  1.0000
  H   H90       1.0  0.07882  0.36004  0.53881  1.0000
  H   H91       1.0  0.17651  0.37042  0.52879  1.0000
  H   H92       1.0  0.06485  0.43089  0.52060  1.0000
  H   H93       1.0  0.12459  0.46310  0.79979  1.0000
  C   C51       1.0  0.12200  0.48031  0.88302  1.0000
  H   H94       1.0  0.08168  0.45872  0.84261  1.0000
  C   C52       1.0  0.12255  0.39082  0.50788  1.0000
  H   H95       1.0  0.13141  0.48546  0.54521  1.0000
  H   H96       1.0  0.25679  0.48283  0.54478  1.0000
  H   H97       1.0  0.05624  0.49168  0.60042  1.0000
  H   H98       1.0  0.01564  0.45687  0.61446  1.0000
  C   C53       1.0  0.24099  0.42947  0.50643  1.0000
  H   H99       1.0  0.31141  0.45053  0.55779  1.0000
  C   C54       1.0  0.04429  0.48824  0.55143  1.0000
  H   H100      1.0  0.08939  0.39718  0.51394  1.0000
  C   C55       1.0  0.99997  0.41582  0.60494  1.0000
  C   C56       1.0  0.10151  0.34263  0.49848  1.0000
  H   H101      1.0  0.32730  0.46407  0.59617  1.0000
  H   H102      1.0  0.21641  0.44613  0.49698  1.0000
  H   H103      1.0  0.15371  0.35217  0.49780  1.0000
  Fe  Fe7       1.0  0.09418  0.61169  0.45623  1.0000
  S   S16       1.0  0.10455  0.58718  0.42472  1.0000
  S   S17       1.0  0.05493  0.61049  0.45488  1.0000
  H   H104      1.0  0.00552  0.60833  0.45478  1.0000
  S   S18       1.0  0.16200  0.61748  0.46054  1.0000
  H   H105      1.0  0.19063  0.71383  0.48651  1.0000
  Fe  Fe8       1.0  0.14192  0.62301  0.41798  1.0000
  S   S19       1.0  0.16715  0.63399  0.37483  1.0000
  C   C57       1.0  0.31786  0.57197  0.00565  1.0000
  S   S20       1.0  0.13037  0.64869  0.44571  1.0000
  H   H106      1.0  0.22521  0.51435  0.11108  1.0000
  Fe  Fe9       1.0  0.18477  0.57156  0.21832  1.0000
  S   S21       1.0  0.21462  0.60617  0.19420  1.0000
  S   S22       1.0  0.15170  0.57192  0.24362  1.0000
  Fe  Fe10      1.0  0.20961  0.53889  0.20108  1.0000
  S   S23       1.0  0.24168  0.57085  0.17679  1.0000
  H   H107      1.0  0.26136  0.66333  0.26745  1.0000
  Fe  Fe11      1.0  0.24234  0.59586  0.21786  1.0000
  S   S24       1.0  0.27969  0.62332  0.24323  1.0000
  Fe  Fe12      1.0  0.21141  0.57815  0.15475  1.0000
  S   S25       1.0  0.21937  0.58940  0.10343  1.0000
  S   S26       1.0  0.21287  0.56312  0.24461  1.0000
  S   S27       1.0  0.17876  0.54427  0.17642  1.0000
  C   C58       1.0  0.29623  0.65364  0.22652  1.0000
  C   C59       1.0  0.27107  0.50831  0.16603  1.0000
  H   H108      1.0  0.31947  0.64436  0.17295  1.0000
  H   H109      1.0  0.28716  0.62528  0.15939  1.0000
  C   C60       1.0  0.29687  0.68663  0.19285  1.0000
  C   C61       1.0  0.28349  0.66234  0.20600  1.0000
  H   H110      1.0  0.03410  0.55457  0.46217  1.0000
  H   H111      1.0  0.31912  0.54849  0.26214  1.0000
  H   H112      1.0  0.28692  0.69332  0.17703  1.0000
  H   H113      1.0  0.26337  0.65036  0.20019  1.0000
  H   H114      1.0  0.29184  0.55423  0.22118  1.0000
  C   C62       1.0  0.21719  0.57172  0.04201  1.0000
  C   C63       1.0  0.20605  0.56587  0.07184  1.0000
  C   C64       1.0  0.18494  0.54154  0.07582  1.0000
  H   H115      1.0  0.12520  0.70586  0.47114  1.0000
  H   H116      1.0  0.23312  0.59063  0.03847  1.0000
  H   H117      1.0  0.17253  0.55695  0.44604  1.0000
  C   C65       1.0  0.30513  0.72805  0.43378  1.0000
  H   H118      1.0  0.26198  0.50902  0.03894  1.0000
  C   C66       1.0  0.30851  0.54173  0.28447  1.0000
  H   H119      1.0  0.26010  0.55743  0.10383  1.0000
  H   H120      1.0  0.29847  0.79544  0.44353  1.0000
  C   C67       1.0  0.20781  0.55328  0.01655  1.0000
  C   C68       1.0  0.25218  0.51357  0.17791  1.0000
  H   H121      1.0  0.24906  0.64781  0.30359  1.0000
  H   H122      1.0  0.27245  0.53550  0.10612  1.0000
  H   H123      1.0  0.28939  0.52400  0.15991  1.0000
  H   H124      1.0  0.25621  0.53322  0.18126  1.0000
  C   C69       1.0  0.16150  0.61358  0.34076  1.0000
  C   C70       1.0  0.13781  0.60189  0.32395  1.0000
  C   C71       1.0  0.13492  0.58864  0.29455  1.0000
  C   C72       1.0  0.15556  0.58674  0.28186  1.0000
  C   C73       1.0  0.17897  0.59752  0.29930  1.0000
  C   C74       1.0  0.18199  0.61116  0.32842  1.0000
  H   H125      1.0  0.12200  0.60391  0.33299  1.0000
  H   H126      1.0  0.11674  0.58033  0.28121  1.0000
  H   H127      1.0  0.19491  0.59594  0.28992  1.0000
  H   H128      1.0  0.20040  0.62021  0.34126  1.0000
  C   C75       1.0  0.16090  0.56499  0.39950  1.0000
  C   C76       1.0  0.00213  0.58883  0.45738  1.0000
  C   C77       1.0  0.02316  0.58408  0.45819  1.0000
  H   H129      1.0  0.09547  0.53708  0.34641  1.0000
  H   H130      1.0  0.21153  0.68955  0.19479  1.0000
  H   H131      1.0  0.23818  0.71707  0.21466  1.0000
  C   C78       1.0  0.17526  0.52319  0.05010  1.0000
  H   H132      1.0  0.30382  0.57976  0.25176  1.0000
  H   H133      1.0  0.22387  0.75996  0.49373  1.0000
  Fe  Fe13      1.0  0.12409  0.58318  0.46903  1.0000
  H   H134      1.0  0.30757  0.61791  0.04591  1.0000
  H   H135      1.0  0.22644  0.71083  0.27094  1.0000
  H   H136      1.0  0.12823  0.52014  0.41727  1.0000
  H   H137      1.0  0.25033  0.53260  0.25375  1.0000
  H   H138      1.0  0.22149  0.52713  0.07462  1.0000
  H   H139      1.0  0.29034  0.79946  0.48391  1.0000
  C   C79       1.0  0.32235  0.79075  0.48141  1.0000
  H   H140      1.0  0.24012  0.52026  0.02815  1.0000
  H   H141      1.0  0.26046  0.71281  0.47265  1.0000
  H   H142      1.0  0.12488  0.52217  0.33863  1.0000
  H   H143      1.0  0.25450  0.69180  0.23918  1.0000
  C   C80       1.0  0.24338  0.65223  0.28014  1.0000
  C   C81       1.0  0.17579  0.64514  0.21925  1.0000
  H   H144      1.0  0.27874  0.61888  0.05306  1.0000
  H   H145      1.0  0.18626  0.52164  0.32799  1.0000
  S   S28       1.0  0.12133  0.54399  0.47350  1.0000
  H   H146      1.0  0.32081  0.55910  0.33292  1.0000
  C   C82       1.0  0.18688  0.52887  0.02048  1.0000
  C   C83       1.0  0.12616  0.69931  0.49547  1.0000
  C   C84       1.0  0.29983  0.61897  0.09667  1.0000
  H   H147      1.0  0.16861  0.65917  0.22168  1.0000
  H   H148      1.0  0.30879  0.64758  0.05811  1.0000
  H   H149      1.0  0.10134  0.53015  0.38620  1.0000
  H   H150      1.0  0.29851  0.72305  0.40836  1.0000
  H   H151      1.0  0.14455  0.56487  0.41183  1.0000
  H   H152      1.0  0.19821  0.56927  0.41776  1.0000
  H   H153      1.0  0.29214  0.71150  0.44768  1.0000
  N   N6        1.0  0.21586  0.67159  0.25674  1.0000
  C   C85       1.0  0.20874  0.69211  0.26546  1.0000
  C   C86       1.0  0.23429  0.68010  0.22980  1.0000
  C   C87       1.0  0.19237  0.64610  0.24839  1.0000
  C   C88       1.0  0.19131  0.68679  0.29414  1.0000
  C   C89       1.0  0.23134  0.69721  0.20464  1.0000
  H   H154      1.0  0.26938  0.64200  0.09491  1.0000
  H   H155      1.0  0.19871  0.69571  0.24522  1.0000
  C   C90       1.0  0.17492  0.54267  0.36148  1.0000
  H   H156      1.0  0.11629  0.56299  0.37299  1.0000
  H   H157      1.0  0.18828  0.58986  0.43651  1.0000
  N   N7        1.0  0.31427  0.64042  0.12138  1.0000
  H   H158      1.0  0.17963  0.63950  0.26888  1.0000
  H   H159      1.0  0.30489  0.60063  0.18626  1.0000
  H   H160      1.0  0.24385  0.68709  0.29645  1.0000
  H   H161      1.0  0.24364  0.69887  0.18438  1.0000
  N   N8        1.0  0.31022  0.76174  0.47847  1.0000
  H   H162      1.0  0.18565  0.56186  0.35065  1.0000
  H   H163      1.0  0.27217  0.75695  0.48536  1.0000
  C   C91       1.0  0.30699  0.62974  0.15417  1.0000
  H   H164      1.0  0.20039  0.68513  0.31670  1.0000
  H   H165      1.0  0.31856  0.82386  0.46757  1.0000
  C   C92       1.0  0.26044  0.54097  0.09108  1.0000
  C   C93       1.0  0.29898  0.62666  0.06180  1.0000
  H   H166      1.0  0.19754  0.63075  0.24362  1.0000
  N   N9        1.0  0.27992  0.52703  0.27780  1.0000
  C   C94       1.0  0.26713  0.51591  0.30836  1.0000
  H   H167      1.0  0.23149  0.63359  0.26704  1.0000
  H   H168      1.0  0.16873  0.58231  0.38474  1.0000
  H   H169      1.0  0.18764  0.70331  0.29795  1.0000
  C   C95       1.0  0.30788  0.60459  0.16053  1.0000
  H   H170      1.0  0.32462  0.73011  0.43559  1.0000
  H   H171      1.0  0.27523  0.57194  0.22922  1.0000
  H   H172      1.0  0.18614  0.64780  0.19691  1.0000
  H   H173      1.0  0.26873  0.64463  0.13766  1.0000
  H   H174      1.0  0.27746  0.67208  0.11448  1.0000
  H   H175      1.0  0.28499  0.51433  0.23122  1.0000
  H   H176      1.0  0.17602  0.53691  0.09861  1.0000
  H   H177      1.0  0.32636  0.60552  0.15530  1.0000
  H   H178      1.0  0.15867  0.62564  0.21701  1.0000
  N   N10       1.0  0.15219  0.54091  0.37860  1.0000
  C   C96       1.0  0.01828  0.55869  0.46151  1.0000
  H   H179      1.0  0.15890  0.50445  0.05329  1.0000
  H   H180      1.0  0.32093  0.73312  0.49319  1.0000
  H   H181      1.0  0.32935  0.54038  0.04774  1.0000
  H   H182      1.0  0.14308  0.55608  0.33672  1.0000
  H   H183      1.0  0.18904  0.54154  0.37810  1.0000
  H   H184      1.0  0.30794  0.50593  0.48741  1.0000
  C   C97       1.0  0.30805  0.66219  0.11895  1.0000
  C   C98       1.0  0.26985  0.54426  0.26519  1.0000
  H   H185      1.0  0.30781  0.60542  0.09643  1.0000
  C   C99       1.0  0.11032  0.54269  0.36596  1.0000
  C   C100      1.0  0.23254  0.51888  0.08659  1.0000
  C   C101      1.0  0.30618  0.80263  0.46814  1.0000
  H   H186      1.0  0.28659  0.75156  0.43488  1.0000
  H   H187      1.0  0.21549  0.65835  0.30461  1.0000
  C   C102      1.0  0.30526  0.75343  0.44354  1.0000
  H   H188      1.0  0.26954  0.54811  0.06811  1.0000
  C   C103      1.0  0.28631  0.56346  0.24040  1.0000
  H   H189      1.0  0.17230  0.66946  0.28984  1.0000
  H   H190      1.0  0.26717  0.55564  0.28473  1.0000
  C   C104      1.0  0.22928  0.66804  0.28567  1.0000
  Fe  Fe14      1.0  0.14863  0.64107  0.48876  1.0000
  H   H191      1.0  0.23345  0.66308  0.21694  1.0000
  C   C105      1.0  0.18117  0.57007  0.42618  1.0000
  C   C106      1.0  0.13892  0.51702  0.39782  1.0000
  H   H192      1.0  0.31560  0.52893  0.29420  1.0000
  H   H193      1.0  0.27948  0.60721  0.10343  1.0000
  C   C107      1.0  0.32334  0.70178  0.19889  1.0000
  C   C108      1.0  0.16852  0.52214  0.33441  1.0000
  H   H194      1.0  0.31683  0.67597  0.13979  1.0000
  C   C109      1.0  0.27926  0.65436  0.11643  1.0000
  H   H195      1.0  0.31987  0.76844  0.42869  1.0000
  C   C110      1.0  0.13327  0.54038  0.35356  1.0000
  C   C111      1.0  0.32252  0.66915  0.23348  1.0000
  H   H196      1.0  0.29228  0.58783  0.14704  1.0000
  C   C112      1.0  0.32823  0.75421  0.49510  1.0000
  H   H197      1.0  0.31693  0.67428  0.09841  1.0000
  H   H198      1.0  0.30540  0.57346  0.31014  1.0000
  C   C113      1.0  0.28552  0.75077  0.49591  1.0000
  H   H199      1.0  0.27091  0.53160  0.32628  1.0000
  H   H200      1.0  0.17221  0.52150  0.42796  1.0000
  C   C114      1.0  0.15585  0.50676  0.41325  1.0000
  H   H201      1.0  0.16122  0.52712  0.31254  1.0000
  H   H202      1.0  0.30055  0.55953  0.01911  1.0000
  H   H203      1.0  0.32731  0.59055  0.01952  1.0000
  H   H204      1.0  0.12687  0.50088  0.49233  1.0000
  H   H205      1.0  0.09409  0.66207  0.48612  1.0000
  H   H206      1.0  0.22806  0.50937  0.29615  1.0000
  C   C115      1.0  0.27402  0.50603  0.25281  1.0000
  Fe  Fe15      1.0  0.32839  0.50603  0.16322  1.0000
  C   C116      1.0  0.31822  0.56487  0.30869  1.0000
  C   C117      1.0  0.26975  0.72120  0.49637  1.0000
  H   H207      1.0  0.27547  0.50462  0.31958  1.0000
  H   H208      1.0  0.13982  0.69158  0.49471  1.0000
  C   C118      1.0  0.24118  0.50303  0.03650  1.0000
  H   H209      1.0  0.15425  0.50258  0.34134  1.0000
  H   H210      1.0  0.30028  0.52244  0.00113  1.0000
  H   H211      1.0  0.26324  0.70119  0.80472  1.0000
  Fe  Fe16      1.0  0.30030  0.81222  0.57267  1.0000
  C   C119      1.0  0.28346  0.76001  0.71650  1.0000
  S   S29       1.0  0.26222  0.78917  0.54309  1.0000
  H   H212      1.0  0.29876  0.59938  0.83913  1.0000
  S   S30       1.0  0.32712  0.79583  0.57543  1.0000
  H   H213      1.0  0.31175  0.73153  0.78819  1.0000
  S   S31       1.0  0.31032  0.82972  0.62321  1.0000
  H   H214      1.0  0.28086  0.71201  0.50539  1.0000
  H   H215      1.0  0.28487  0.68927  0.76459  1.0000
  H   H216      1.0  0.11269  0.72694  0.54947  1.0000
  S   S32       1.0  0.24671  0.54181  0.87587  1.0000
  H   H217      1.0  0.21659  0.55817  0.99371  1.0000
  C   C120      1.0  0.33095  0.51519  0.98819  1.0000
  S   S33       1.0  0.20076  0.54661  0.91202  1.0000
  C   C121      1.0  0.29133  0.75303  0.79521  1.0000
  Fe  Fe17      1.0  0.20358  0.52143  0.87263  1.0000
  C   C122      1.0  0.20023  0.70283  0.53113  1.0000
  Fe  Fe18      1.0  0.24338  0.56373  0.91791  1.0000
  S   S34       1.0  0.27105  0.60450  0.93367  1.0000
  H   H218      1.0  0.29199  0.75998  0.69328  1.0000
  S   S35       1.0  0.24175  0.53556  0.95331  1.0000
  S   S36       1.0  0.30443  0.68524  0.82623  1.0000
  C   C123      1.0  0.27740  0.62683  0.90407  1.0000
  C   C124      1.0  0.26819  0.61878  0.87258  1.0000
  C   C125      1.0  0.27568  0.63691  0.84867  1.0000
  C   C126      1.0  0.29221  0.66302  0.85639  1.0000
  C   C127      1.0  0.30029  0.67112  0.88811  1.0000
  C   C128      1.0  0.29308  0.65304  0.91188  1.0000
  H   H219      1.0  0.25582  0.59854  0.86654  1.0000
  H   H220      1.0  0.26920  0.63060  0.82417  1.0000
  H   H221      1.0  0.07628  0.62834  0.52203  1.0000
  H   H222      1.0  0.29988  0.65936  0.93630  1.0000
  H   H223      1.0  0.26986  0.51341  0.85249  1.0000
  H   H224      1.0  0.13653  0.65727  0.58814  1.0000
  H   H225      1.0  0.28931  0.75833  0.52117  1.0000
  C   C129      1.0  0.25313  0.69194  0.78163  1.0000
  H   H226      1.0  0.03990  0.64987  0.53963  1.0000
  H   H227      1.0  0.32662  0.52905  0.51826  1.0000
  H   H228      1.0  0.04844  0.64690  0.49913  1.0000
  C   C130      1.0  0.11261  0.71335  0.56730  1.0000
  H   H229      1.0  0.32746  0.79758  0.50679  1.0000
  C   C131      1.0  0.09046  0.68585  0.55971  1.0000
  H   H230      1.0  0.13672  0.68463  0.54804  1.0000
  S   S37       1.0  0.17563  0.66975  0.52839  1.0000
  C   C132      1.0  0.30981  0.59491  0.85712  1.0000
  C   C133      1.0  0.31817  0.51536  0.89916  1.0000
  H   H231      1.0  0.23865  0.69785  0.77524  1.0000
  H   H232      1.0  0.24248  0.67091  0.78557  1.0000
  C   C134      1.0  0.23887  0.75567  0.53909  1.0000
  C   C135      1.0  0.23621  0.73804  0.56228  1.0000
  C   C136      1.0  0.21684  0.71196  0.55849  1.0000
  H   H233      1.0  0.29016  0.51088  0.60441  1.0000
  C   C137      1.0  0.30529  0.72421  0.71974  1.0000
  Fe  Fe19      1.0  0.24151  0.51193  0.91105  1.0000
  H   H234      1.0  0.24874  0.74460  0.58346  1.0000
  H   H235      1.0  0.21477  0.69871  0.57692  1.0000
  H   H236      1.0  0.12326  0.56465  0.53772  1.0000
  H   H237      1.0  0.31213  0.69134  0.89443  1.0000
  C   C138      1.0  0.12936  0.51591  0.57157  1.0000
  C   C139      1.0  0.12708  0.53829  0.56926  1.0000
  C   C140      1.0  0.12494  0.54734  0.53928  1.0000
  H   H238      1.0  0.13177  0.71476  0.56914  1.0000
  C   C141      1.0  0.28912  0.51842  0.86052  1.0000
  H   H239      1.0  0.11004  0.72003  0.59120  1.0000
  C   C142      1.0  0.12695  0.51138  0.51377  1.0000
  H   H240      1.0  0.12135  0.65311  0.53163  1.0000
  C   C143      1.0  0.04710  0.63988  0.52362  1.0000
  C   C144      1.0  0.30402  0.74160  0.77303  1.0000
  H   H241      1.0  0.11478  0.66809  0.60064  1.0000
  N   N11       1.0  0.09566  0.66875  0.53743  1.0000
  C   C145      1.0  0.07261  0.64210  0.53664  1.0000
  H   H242      1.0  0.29854  0.77456  0.73303  1.0000
  Fe  Fe20      1.0  0.19942  0.51687  0.94513  1.0000
  H   H243      1.0  0.25585  0.73234  0.74668  1.0000
  H   H244      1.0  0.29830  0.75360  0.82013  1.0000
  H   H245      1.0  0.10310  0.63561  0.58358  1.0000
  C   C146      1.0  0.27016  0.73280  0.73008  1.0000
  H   H246      1.0  0.08309  0.67652  0.58268  1.0000
  C   C147      1.0  0.12476  0.53381  0.51148  1.0000
  C   C148      1.0  0.27224  0.69674  0.75525  1.0000
  H   H247      1.0  0.30629  0.79460  0.91009  1.0000
  H   H248      1.0  0.30714  0.60116  0.88113  1.0000
  H   H249      1.0  0.27022  0.74221  0.79533  1.0000
  C   C149      1.0  0.29340  0.51030  0.88997  1.0000
  H   H250      1.0  0.30641  0.53980  0.81894  1.0000
  H   H251      1.0  0.12698  0.54869  0.59074  1.0000
  H   H252      1.0  0.29813  0.56047  0.95771  1.0000
  H   H253      1.0  0.32105  0.75846  0.76401  1.0000
  H   H254      1.0  0.29777  0.77347  0.78984  1.0000
  H   H255      1.0  0.31697  0.74389  0.71090  1.0000
  C   C150      1.0  0.11772  0.65618  0.58224  1.0000
  H   H256      1.0  0.25843  0.71910  0.71009  1.0000
  H   H257      1.0  0.07446  0.68851  0.54974  1.0000
  C   C151      1.0  0.09910  0.67829  0.50385  1.0000
  H   H258      1.0  0.32481  0.59286  0.96098  1.0000
  C   C152      1.0  0.11857  0.66619  0.54849  1.0000
  H   H259      1.0  0.29846  0.52782  0.56929  1.0000
  H   H260      1.0  0.32146  0.50818  0.92114  1.0000
  S   S38       1.0  0.17578  0.50497  0.98917  1.0000
  H   H261      1.0  0.32965  0.75886  0.52123  1.0000
  S   S39       1.0  0.18158  0.51618  0.82532  1.0000
  H   H262      1.0  0.30110  0.57366  0.85708  1.0000
  H   H263      1.0  0.26903  0.76642  0.71181  1.0000
  C   C153      1.0  0.30977  0.53303  0.84132  1.0000
  S   S40       1.0  0.11171  0.60560  0.50121  1.0000
  C   C154      1.0  0.22214  0.74658  0.51182  1.0000
  H   H264      1.0  0.32061  0.82873  0.91274  1.0000
  H   H265      1.0  0.29528  0.58534  0.97875  1.0000
  H   H266      1.0  0.06862  0.63426  0.56088  1.0000
  N   N12       1.0  0.28783  0.72417  0.74528  1.0000
  H   H267      1.0  0.16256  0.51218  0.76078  1.0000
  H   H268      1.0  0.26129  0.68386  0.73428  1.0000
  H   H269      1.0  0.03229  0.61919  0.52219  1.0000
  H   H270      1.0  0.29390  0.71209  0.69846  1.0000
  C   C155      1.0  0.30783  0.51176  0.51271  1.0000
  H   H271      1.0  0.13406  0.71645  0.51186  1.0000
  C   C156      1.0  0.30869  0.57778  0.97375  1.0000
  C   C157      1.0  0.31854  0.53286  0.98851  1.0000
  C   C158      1.0  0.32426  0.81266  0.90592  1.0000
  C   C159      1.0  0.32477  0.71521  0.72957  1.0000
  C   C160      1.0  0.20320  0.72035  0.50764  1.0000
  H   H272      1.0  0.25386  0.71600  0.51282  1.0000
  H   H273      1.0  0.31270  0.53340  0.96330  1.0000
  H   H274      1.0  0.29220  0.51676  0.51437  1.0000
  H   H275      1.0  0.32235  0.63989  0.82547  1.0000
  H   H276      1.0  0.31538  0.69414  0.73283  1.0000
  H   H277      1.0  0.14982  0.50289  0.92127  1.0000
  S   S41       1.0  0.13057  0.50438  0.60955  1.0000
  H   H278      1.0  0.32749  0.81230  0.88007  1.0000
  C   C161      1.0  0.28965  0.50789  0.57810  1.0000
  H   H279      1.0  0.25378  0.50755  0.56487  1.0000
  H   H280      1.0  0.05986  0.50454  0.53925  1.0000
  S   S42       1.0  0.32985  0.84965  0.55238  1.0000
  C   C162      1.0  0.12945  0.50256  0.54372  1.0000
  H   H281      1.0  0.33102  0.64555  0.88022  1.0000
  H   H282      1.0  0.32998  0.52956  0.62508  1.0000
  H   H283      1.0  0.08568  0.68582  0.49802  1.0000
  H   H284      1.0  0.37191  0.48028  0.36673  1.0000
  S   S43       1.0  0.50064  0.30989  0.47559  1.0000
  C   C163      1.0  0.33646  0.46395  0.33878  1.0000
  Fe  Fe21      1.0  0.43820  0.31181  0.45002  1.0000
  S   S44       1.0  0.47728  0.34282  0.43785  1.0000
  S   S45       1.0  0.40244  0.31614  0.43884  1.0000
  Fe  Fe22      1.0  0.48619  0.31098  0.42569  1.0000
  S   S46       1.0  0.51491  0.31311  0.38910  1.0000
  H   H285      1.0  0.35822  0.38490  0.31921  1.0000
  S   S47       1.0  0.44584  0.27919  0.43374  1.0000
  H   H286      1.0  0.39384  0.45305  0.35437  1.0000
  S   S48       1.0  0.38907  0.41575  0.47002  1.0000
  H   H287      1.0  0.51163  0.24262  0.16070  1.0000
  H   H288      1.0  0.65055  0.42669  0.02625  1.0000
  S   S49       1.0  0.65686  0.38161  0.23271  1.0000
  H   H289      1.0  0.64166  0.30361  0.24593  1.0000
  H   H290      1.0  0.33155  0.37136  0.35540  1.0000
  S   S50       1.0  0.63371  0.07405  0.42002  1.0000
  Fe  Fe23      1.0  0.62320  0.14670  0.20312  1.0000
  S   S51       1.0  0.63710  0.15214  0.15274  1.0000
  S   S52       1.0  0.61833  0.11372  0.23422  1.0000
  Fe  Fe24      1.0  0.61696  0.19452  0.20278  1.0000
  S   S53       1.0  0.63074  0.20452  0.15337  1.0000
  S   S54       1.0  0.60690  0.21971  0.23321  1.0000
  Fe  Fe25      1.0  0.60611  0.16238  0.14113  1.0000
  S   S55       1.0  0.57894  0.15048  0.09740  1.0000
  H   H291      1.0  0.35816  0.32400  0.43687  1.0000
  S   S56       1.0  0.58985  0.15307  0.19006  1.0000
  C   C164      1.0  0.34035  0.47652  0.28318  1.0000
  Fe  Fe26      1.0  0.61890  0.36690  0.20583  1.0000
  S   S57       1.0  0.61208  0.35249  0.15482  1.0000
  H   H292      1.0  0.37411  0.44125  0.30606  1.0000
  Fe  Fe27      1.0  0.56336  0.35377  0.21437  1.0000
  S   S58       1.0  0.55199  0.33862  0.16324  1.0000
  S   S59       1.0  0.53332  0.35335  0.24752  1.0000
  Fe  Fe28      1.0  0.57620  0.31961  0.17173  1.0000
  S   S60       1.0  0.56547  0.28025  0.15048  1.0000
  Fe  Fe29      1.0  0.58890  0.37283  0.15009  1.0000
  S   S61       1.0  0.59589  0.39910  0.10862  1.0000
  S   S62       1.0  0.58481  0.33210  0.22352  1.0000
  S   S63       1.0  0.59830  0.38986  0.20045  1.0000
  H   H293      1.0  0.43827  0.48145  0.47313  1.0000
  S   S64       1.0  0.36935  0.46414  0.44082  1.0000
  H   H294      1.0  0.63250  0.28072  0.17350  1.0000
  C   C165      1.0  0.40174  0.43997  0.36020  1.0000
  H   H295      1.0  0.35183  0.41254  0.28463  1.0000
  H   H296      1.0  0.59688  0.02312  0.44357  1.0000
  C   C166      1.0  0.64485  0.30175  0.17869  1.0000
  C   C167      1.0  0.37213  0.40551  0.32369  1.0000
  H   H297      1.0  0.40350  0.44658  0.41254  1.0000
  C   C168      1.0  0.37570  0.36645  0.36627  1.0000
  H   H298      1.0  0.35634  0.42640  0.37741  1.0000
  H   H299      1.0  0.44773  0.45693  0.47776  1.0000
  C   C169      1.0  0.59933  0.40553  0.04409  1.0000
  C   C170      1.0  0.59193  0.38774  0.06845  1.0000
  C   C171      1.0  0.58240  0.36161  0.06036  1.0000
  C   C172      1.0  0.58004  0.35337  0.02811  1.0000
  H   H300      1.0  0.65749  0.15923  0.27042  1.0000
  H   H301      1.0  0.60651  0.42574  0.05017  1.0000
  H   H302      1.0  0.57657  0.34774  0.07889  1.0000
  C   C173      1.0  0.59322  0.23482  0.21065  1.0000
  C   C174      1.0  0.58611  0.22788  0.17842  1.0000
  C   C175      1.0  0.57688  0.24147  0.16024  1.0000
  C   C176      1.0  0.57507  0.26218  0.17415  1.0000
  C   C177      1.0  0.58139  0.26850  0.20658  1.0000
  C   C178      1.0  0.59026  0.25474  0.22486  1.0000
  H   H303      1.0  0.58750  0.21193  0.16755  1.0000
  H   H304      1.0  0.57142  0.23612  0.13538  1.0000
  H   H305      1.0  0.57948  0.28394  0.21769  1.0000
  H   H306      1.0  0.59522  0.25980  0.24994  1.0000
  C   C179      1.0  0.62400  0.17034  0.02040  1.0000
  C   C180      1.0  0.61593  0.16623  0.05198  1.0000
  C   C181      1.0  0.58986  0.15518  0.05802  1.0000
  C   C182      1.0  0.57198  0.14848  0.03224  1.0000
  H   H307      1.0  0.36570  0.41040  0.40511  1.0000
  H   H308      1.0  0.64418  0.17854  0.01589  1.0000
  H   H309      1.0  0.62985  0.17138  0.07161  1.0000
  H   H310      1.0  0.55175  0.13972  0.03675  1.0000
  H   H311      1.0  0.65559  0.33681  0.15158  1.0000
  C   C183      1.0  0.50034  0.25020  0.17334  1.0000
  H   H312      1.0  0.52324  0.39763  0.44769  1.0000
  H   H313      1.0  0.49920  0.26439  0.15752  1.0000
  C   C184      1.0  0.53663  0.39756  0.42977  1.0000
  C   C185      1.0  0.61506  0.17530  0.39388  1.0000
  H   H314      1.0  0.34373  0.41952  0.32287  1.0000
  C   C186      1.0  0.63567  0.11787  0.27077  1.0000
  C   C187      1.0  0.63115  0.09606  0.28784  1.0000
  C   C188      1.0  0.64521  0.09848  0.31639  1.0000
  N   N13       1.0  0.38081  0.41212  0.35835  1.0000
  H   H315      1.0  0.61694  0.07713  0.27867  1.0000
  H   H316      1.0  0.64198  0.08146  0.32885  1.0000
  H   H317      1.0  0.56318  0.36573  0.39116  1.0000
  C   C189      1.0  0.39886  0.34389  0.44792  1.0000
  C   C190      1.0  0.41975  0.36766  0.45768  1.0000
  C   C191      1.0  0.41630  0.38929  0.46393  1.0000
  C   C192      1.0  0.39190  0.38755  0.46111  1.0000
  C   C193      1.0  0.37098  0.36384  0.45114  1.0000
  C   C194      1.0  0.37449  0.34223  0.44448  1.0000
  H   H318      1.0  0.43865  0.36942  0.46021  1.0000
  C   C195      1.0  0.60050  0.10690  0.36756  1.0000
  C   C196      1.0  0.36696  0.49133  0.28771  1.0000
  H   H319      1.0  0.56246  0.07424  0.35422  1.0000
  Fe  Fe30      1.0  0.35718  0.42719  0.46660  1.0000
  C   C197      1.0  0.52062  0.32625  0.35071  1.0000
  C   C198      1.0  0.54175  0.32810  0.33440  1.0000
  C   C199      1.0  0.54658  0.33745  0.30337  1.0000
  C   C200      1.0  0.53002  0.34463  0.28803  1.0000
  C   C201      1.0  0.50927  0.34341  0.30467  1.0000
  C   C202      1.0  0.50461  0.33434  0.33588  1.0000
  H   H320      1.0  0.55434  0.32202  0.34574  1.0000
  H   H321      1.0  0.56277  0.33851  0.29103  1.0000
  H   H322      1.0  0.49642  0.34905  0.29309  1.0000
  H   H323      1.0  0.48833  0.33311  0.34818  1.0000
  H   H324      1.0  0.55818  0.12585  0.41328  1.0000
  H   H325      1.0  0.55913  0.11211  0.34278  1.0000
  H   H326      1.0  0.48100  0.23367  0.17620  1.0000
  H   H327      1.0  0.60869  0.12884  0.31571  1.0000
  H   H328      1.0  0.62054  0.11142  0.36301  1.0000
  H   H329      1.0  0.43276  0.40750  0.47089  1.0000
  C   C203      1.0  0.66412  0.12277  0.32804  1.0000
  H   H330      1.0  0.66128  0.46422  0.06091  1.0000
  H   H331      1.0  0.59937  0.17431  0.33248  1.0000
  C   C204      1.0  0.56992  0.12417  0.36432  1.0000
  H   H332      1.0  0.63233  0.15086  0.39457  1.0000
  C   C205      1.0  0.65730  0.36922  0.07094  1.0000
  H   H333      1.0  0.35880  0.35936  0.38128  1.0000
  H   H334      1.0  0.41637  0.44344  0.34215  1.0000
  C   C206      1.0  0.54854  0.38104  0.44163  1.0000
  H   H335      1.0  0.53448  0.09957  0.38783  1.0000
  H   H336      1.0  0.47185  0.22123  0.47600  1.0000
  C   C207      1.0  0.58231  0.08340  0.34576  1.0000
  H   H337      1.0  0.41037  0.40090  0.35675  1.0000
  C   C208      1.0  0.59755  0.39735  0.01190  1.0000
  H   H338      1.0  0.35207  0.36204  0.44875  1.0000
  H   H339      1.0  0.55040  0.24119  0.07866  1.0000
  C   C209      1.0  0.56077  0.03342  0.49171  1.0000
  H   H340      1.0  0.52571  0.00834  0.46138  1.0000
  H   H341      1.0  0.60607  0.38169  0.45199  1.0000
  C   C210      1.0  0.57203  0.34499  0.44466  1.0000
  H   H342      1.0  0.33151  0.47502  0.25985  1.0000
  C   C211      1.0  0.35970  0.40955  0.37961  1.0000
  H   H343      1.0  0.63926  0.23993  0.09165  1.0000
  C   C212      1.0  0.35454  0.04303  0.48463  1.0000
  H   H344      1.0  0.56192  0.40715  0.37723  1.0000
  N   N14       1.0  0.57618  0.38984  0.43457  1.0000
  N   N15       1.0  0.59773  0.13079  0.36450  1.0000
  H   H345      1.0  0.56203  0.21001  0.08607  1.0000
  H   H346      1.0  0.62769  0.18726  0.37512  1.0000
  H   H347      1.0  0.63137  0.15575  0.33836  1.0000
  H   H348      1.0  0.42927  0.44182  0.39784  1.0000
  H   H349      1.0  0.38860  0.40859  0.30892  1.0000
  C   C213      1.0  0.57602  0.01068  0.43889  1.0000
  H   H350      1.0  0.54531  0.09724  0.47424  1.0000
  H   H351      1.0  0.43656  0.49149  0.03728  1.0000
  H   H352      1.0  0.53597  0.36128  0.43125  1.0000
  C   C214      1.0  0.35982  0.42075  0.30894  1.0000
  H   H353      1.0  0.65053  0.43657  0.08428  1.0000
  H   H354      1.0  0.59788  0.10020  0.39236  1.0000
  H   H355      1.0  0.55104  0.33542  0.44721  1.0000
  C   C215      1.0  0.56594  0.25719  0.06624  1.0000
  H   H356      1.0  0.57261  0.42103  0.48541  1.0000
  H   H357      1.0  0.57622  0.34117  0.42013  1.0000
  H   H358      1.0  0.56733  0.02242  0.43040  1.0000
  C   C216      1.0  0.41648  0.45016  0.39267  1.0000
  H   H359      1.0  0.65417  0.40143  0.08877  1.0000
  H   H360      1.0  0.53591  0.04173  0.46097  1.0000
  C   C217      1.0  0.36303  0.47912  0.34354  1.0000
  H   H361      1.0  0.63385  0.30714  0.19538  1.0000
  Fe  Fe31      1.0  0.63107  0.10024  0.45749  1.0000
  C   C218      1.0  0.39252  0.39594  0.36958  1.0000
  H   H362      1.0  0.52388  0.17951  0.06232  1.0000
  H   H363      1.0  0.38245  0.08232  0.47499  1.0000
  H   H364      1.0  0.59707  0.38441  0.39623  1.0000
  H   H365      1.0  0.62597  0.30947  0.13892  1.0000
  H   H366      1.0  0.35100  0.04173  0.45837  1.0000
  C   C219      1.0  0.57896  0.40447  0.37597  1.0000
  H   H367      1.0  0.63652  0.38796  0.05314  1.0000
  H   H368      1.0  0.53151  0.20126  0.03154  1.0000
  S   S65       1.0  0.59277  0.09936  0.45896  1.0000
  H   H369      1.0  0.57580  0.04793  0.47689  1.0000
  C   C220      1.0  0.58771  0.37119  0.00377  1.0000
  H   H370      1.0  0.55039  0.41806  0.42688  1.0000
  C   C221      1.0  0.59373  0.41775  0.44441  1.0000
  N   N16       1.0  0.58458  0.22862  0.04501  1.0000
  Fe  Fe32      1.0  0.35436  0.47678  0.48222  1.0000
  H   H371      1.0  0.59675  0.42333  0.37886  1.0000
  H   H372      1.0  0.57212  0.33306  0.02196  1.0000
  H   H373      1.0  0.65678  0.27151  0.13973  1.0000
  C   C222      1.0  0.61029  0.14333  0.33409  1.0000
  H   H374      1.0  0.39834  0.40011  0.39535  1.0000
  H   H375      1.0  0.58187  0.26940  0.08353  1.0000
  C   C223      1.0  0.65558  0.39389  0.06479  1.0000
  H   H376      1.0  0.61079  0.20970  0.08754  1.0000
  C   C224      1.0  0.56491  0.20524  0.06123  1.0000
  C   C225      1.0  0.45476  0.47790  0.47743  1.0000
  C   C226      1.0  0.60773  0.24240  0.06766  1.0000
  H   H377      1.0  0.57865  0.39695  0.35134  1.0000
  C   C227      1.0  0.33317  0.38513  0.37457  1.0000
  H   H378      1.0  0.46705  0.48515  0.45657  1.0000
  C   C228      1.0  0.59991  0.15934  0.31684  1.0000
  H   H379      1.0  0.61255  0.16929  0.29696  1.0000
  H   H380      1.0  0.38711  0.35746  0.37534  1.0000
  C   C229      1.0  0.42308  0.07323  0.49558  1.0000
  H   H381      1.0  0.65512  0.31039  0.12833  1.0000
  H   H382      1.0  0.59034  0.43108  0.42957  1.0000
  C   C230      1.0  0.57886  0.38499  0.39973  1.0000
  N   N17       1.0  0.49890  0.26878  0.22937  1.0000
  C   C231      1.0  0.51432  0.26317  0.20551  1.0000
  C   C232      1.0  0.51688  0.28351  0.25731  1.0000
  C   C233      1.0  0.48995  0.28586  0.21369  1.0000
  C   C234      1.0  0.47650  0.24363  0.23847  1.0000
  C   C235      1.0  0.52993  0.26977  0.27417  1.0000
  C   C236      1.0  0.47326  0.29375  0.23344  1.0000
  C   C237      1.0  0.46480  0.24338  0.27112  1.0000
  H   H383      1.0  0.53198  0.28125  0.20002  1.0000
  H   H384      1.0  0.52116  0.25021  0.21544  1.0000
  H   H385      1.0  0.50736  0.28898  0.27589  1.0000
  H   H386      1.0  0.53246  0.30224  0.24953  1.0000
  H   H387      1.0  0.50674  0.30394  0.20620  1.0000
  H   H388      1.0  0.47818  0.27640  0.19155  1.0000
  H   H389      1.0  0.46069  0.23681  0.21989  1.0000
  H   H390      1.0  0.48236  0.22841  0.23930  1.0000
  H   H391      1.0  0.53874  0.28005  0.29738  1.0000
  H   H392      1.0  0.51627  0.24950  0.27910  1.0000
  H   H393      1.0  0.54574  0.27046  0.26006  1.0000
  H   H394      1.0  0.47009  0.30800  0.22008  1.0000
  H   H395      1.0  0.48257  0.30341  0.25659  1.0000
  H   H396      1.0  0.45409  0.27707  0.23692  1.0000
  H   H397      1.0  0.44381  0.23002  0.26906  1.0000
  H   H398      1.0  0.46717  0.26209  0.28012  1.0000
  H   H399      1.0  0.47228  0.23525  0.28950  1.0000
  H   H400      1.0  0.59626  0.17481  0.39226  1.0000
  H   H401      1.0  0.62173  0.26130  0.05824  1.0000
  H   H402      1.0  0.65326  0.11493  0.17690  1.0000
  S   S66       1.0  0.64560  0.02515  0.47502  1.0000
  H   H403      1.0  0.54539  0.37870  0.46760  1.0000
  H   H404      1.0  0.53819  0.17461  0.02744  1.0000
  H   H405      1.0  0.58049  0.14668  0.30586  1.0000
  H   H406      1.0  0.58881  0.06872  0.34668  1.0000
  H   H407      1.0  0.58205  0.08820  0.32046  1.0000
  C   C238      1.0  0.61245  0.14819  0.39293  1.0000
  C   C239      1.0  0.55527  0.11123  0.39427  1.0000
  H   H408      1.0  0.60381  0.13917  0.41556  1.0000
  H   H409      1.0  0.56780  0.14165  0.36198  1.0000
  H   H410      1.0  0.56083  0.09746  0.40420  1.0000
  H   H411      1.0  0.36995  0.35924  0.34122  1.0000
  H   H412      1.0  0.52549  0.38923  0.40691  1.0000
  H   H413      1.0  0.55902  0.23942  0.01954  1.0000
  H   H414      1.0  0.57204  0.19128  0.06478  1.0000
  H   H415      1.0  0.57956  0.33557  0.46108  1.0000
  C   C240      1.0  0.59316  0.22092  0.01500  1.0000
  C   C241      1.0  0.58500  0.37408  0.45375  1.0000
  C   C242      1.0  0.65418  0.29498  0.25079  1.0000
  Fe  Fe33      1.0  0.46018  0.27963  0.48442  1.0000
  H   H416      1.0  0.59047  0.26470  0.02638  1.0000
  Fe  Fe34      1.0  0.66052  0.19388  0.16847  1.0000
  H   H417      1.0  0.61407  0.42298  0.44035  1.0000
  C   C243      1.0  0.62265  0.22774  0.07519  1.0000
  C   C244      1.0  0.53836  0.18948  0.04419  1.0000
  H   H418      1.0  0.55801  0.26956  0.05749  1.0000
  H   H419      1.0  0.60225  0.24689  0.09116  1.0000
  C   C245      1.0  0.58008  0.15298  0.00066  1.0000
  H   H420      1.0  0.42895  0.47136  0.39201  1.0000
  H   H421      1.0  0.65197  0.26900  0.21254  1.0000
  H   H422      1.0  0.63052  0.22339  0.05367  1.0000
  H   H423      1.0  0.41229  0.06861  0.47235  1.0000
  C   C246      1.0  0.57512  0.24746  0.03759  1.0000
  C   C247      1.0  0.65409  0.14223  0.28292  1.0000
  C   C248      1.0  0.37822  0.49252  0.31802  1.0000
  H   H424      1.0  0.59494  0.20335  0.01871  1.0000
  Fe  Fe35      1.0  0.65602  0.06587  0.45791  1.0000
  C   C249      1.0  0.59229  0.42539  0.47943  1.0000
  H   H425      1.0  0.62444  0.18514  0.41711  1.0000
  C   C250      1.0  0.64593  0.31559  0.14763  1.0000
  H   H426      1.0  0.66291  0.38958  0.16471  1.0000
  H   H427      1.0  0.60474  0.44654  0.48330  1.0000
  S   S67       1.0  0.64905  0.18761  0.21937  1.0000
  H   H428      1.0  0.63754  0.35282  0.07239  1.0000
  H   H429      1.0  0.64233  0.27656  0.26258  1.0000
  H   H430      1.0  0.36391  0.03115  0.48875  1.0000
  H   H431      1.0  0.61271  0.23613  0.00907  1.0000
  H   H432      1.0  0.47839  0.18317  0.48253  1.0000
  H   H433      1.0  0.64060  0.37414  0.00369  1.0000
  C   C251      1.0  0.53410  0.02615  0.47669  1.0000
  H   H434      1.0  0.46716  0.49642  0.02302  1.0000
  C   C252      1.0  0.45049  0.49949  0.01815  1.0000
  H   H435      1.0  0.58181  0.37541  0.47954  1.0000
  Fe  Fe36      1.0  0.48857  0.33925  0.48796  1.0000
  H   H436      1.0  0.52047  0.02393  0.49551  1.0000
  H   H437      1.0  0.60653  0.03655  0.49474  1.0000
  C   C253      1.0  0.57960  0.09962  0.49591  1.0000
  C   C254      1.0  0.55538  0.09807  0.49641  1.0000
  S   S68       1.0  0.65147  0.09086  0.49600  1.0000
  C   C255      1.0  0.37107  0.07161  0.49548  1.0000
  H   H438      1.0  0.33575  0.03430  0.49611  1.0000
  H   H439      1.0  0.43347  0.06191  0.49607  1.0000
  C   C256      1.0  0.43013  0.47484  0.53701  1.0000
  Fe  Fe37      1.0  0.47099  0.12155  0.57185  1.0000
  S   S69       1.0  0.50404  0.13440  0.60755  1.0000
  S   S70       1.0  0.46954  0.14822  0.53324  1.0000
  Fe  Fe38      1.0  0.44753  0.06404  0.59209  1.0000
  S   S71       1.0  0.47878  0.07389  0.62985  1.0000
  S   S72       1.0  0.41712  0.02355  0.57254  1.0000
  Fe  Fe39      1.0  0.47487  0.10903  0.64181  1.0000
  S   S73       1.0  0.47845  0.12819  0.69087  1.0000
  Fe  Fe40      1.0  0.50569  0.09857  0.59307  1.0000
  S   S74       1.0  0.54344  0.09812  0.59121  1.0000
  S   S75       1.0  0.44117  0.09766  0.60678  1.0000
  S   S76       1.0  0.47508  0.08723  0.55465  1.0000
  S   S77       1.0  0.61381  0.40738  0.59256  1.0000
  S   S78       1.0  0.45138  0.24663  0.51916  1.0000
  C   C257      1.0  0.47290  0.26068  0.62950  1.0000
  H   H440      1.0  0.65494  0.42451  0.68320  1.0000
  Fe  Fe41      1.0  0.61594  0.20179  0.85006  1.0000
  S   S79       1.0  0.61187  0.21434  0.89915  1.0000
  H   H441      1.0  0.63900  0.40448  0.78240  1.0000
  Fe  Fe42      1.0  0.56404  0.15367  0.84818  1.0000
  S   S80       1.0  0.55583  0.16139  0.89851  1.0000
  S   S81       1.0  0.53609  0.11952  0.81605  1.0000
  Fe  Fe43      1.0  0.57149  0.20206  0.88312  1.0000
  S   S82       1.0  0.55404  0.22653  0.89844  1.0000
  Fe  Fe44      1.0  0.59706  0.17299  0.91109  1.0000
  S   S83       1.0  0.61750  0.16931  0.95549  1.0000
  S   S84       1.0  0.57694  0.19366  0.83244  1.0000
  S   S85       1.0  0.60390  0.16113  0.86230  1.0000
  Fe  Fe45      1.0  0.61870  0.36315  0.85856  1.0000
  S   S86       1.0  0.63272  0.36460  0.90872  1.0000
  S   S87       1.0  0.60659  0.32941  0.82399  1.0000
  Fe  Fe46      1.0  0.62377  0.41616  0.86391  1.0000
  S   S88       1.0  0.63725  0.42242  0.91603  1.0000
  S   S89       1.0  0.61554  0.44119  0.83036  1.0000
  H   H442      1.0  0.44384  0.21248  0.57056  1.0000
  Fe  Fe47      1.0  0.60723  0.38111  0.92200  1.0000
  S   S90       1.0  0.58330  0.35969  0.96359  1.0000
  H   H443      1.0  0.60309  0.41117  0.99332  1.0000
  S   S91       1.0  0.59096  0.37654  0.87171  1.0000
  S   S92       1.0  0.62903  0.47102  0.64482  1.0000
  C   C258      1.0  0.56612  0.25464  0.87662  1.0000
  C   C259      1.0  0.56963  0.27768  0.89108  1.0000
  C   C260      1.0  0.58133  0.30066  0.87462  1.0000
  C   C261      1.0  0.58903  0.30050  0.84344  1.0000
  C   C262      1.0  0.58419  0.27721  0.82839  1.0000
  C   C263      1.0  0.57311  0.25441  0.84510  1.0000
  H   H444      1.0  0.56406  0.27799  0.91536  1.0000
  H   H445      1.0  0.58451  0.31849  0.88623  1.0000
  H   H446      1.0  0.58983  0.27694  0.80415  1.0000
  H   H447      1.0  0.57008  0.23674  0.83350  1.0000
  H   H448      1.0  0.57130  0.16619  0.65781  1.0000
  C   C264      1.0  0.59925  0.03660  0.54427  1.0000
  H   H449      1.0  0.54736  0.35218  0.60991  1.0000
  C   C265      1.0  0.63466  0.45427  0.79702  1.0000
  C   C266      1.0  0.62340  0.45682  0.76842  1.0000
  C   C267      1.0  0.63818  0.46667  0.74136  1.0000
  H   H450      1.0  0.60306  0.45048  0.76699  1.0000
  H   H451      1.0  0.33163  0.50001  0.62962  1.0000
  C   C268      1.0  0.36104  0.04039  0.56337  1.0000
  C   C269      1.0  0.66424  0.29100  0.80162  1.0000
  H   H452      1.0  0.59380  0.09970  0.64684  1.0000
  H   H453      1.0  0.61738  0.36885  0.70078  1.0000
  S   S93       1.0  0.44924  0.30961  0.50088  1.0000
  C   C270      1.0  0.55698  0.09874  0.55425  1.0000
  C   C271      1.0  0.54410  0.09771  0.52552  1.0000
  H   H454      1.0  0.44051  0.48800  0.99599  1.0000
  H   H455      1.0  0.64839  0.37038  0.77834  1.0000
  C   C272      1.0  0.65649  0.39075  0.99255  1.0000
  H   H456      1.0  0.52875  0.28531  0.55931  1.0000
  H   H457      1.0  0.52550  0.09671  0.52572  1.0000
  H   H458      1.0  0.59122  0.10098  0.57590  1.0000
  H   H459      1.0  0.54136  0.31374  0.53727  1.0000
  C   C273      1.0  0.49588  0.12547  0.72398  1.0000
  C   C274      1.0  0.51519  0.14788  0.73976  1.0000
  C   C275      1.0  0.52828  0.14632  0.76732  1.0000
  C   C276      1.0  0.52144  0.12239  0.78018  1.0000
  C   C277      1.0  0.50235  0.09998  0.76415  1.0000
  C   C278      1.0  0.48973  0.10148  0.73610  1.0000
  H   H460      1.0  0.52010  0.16651  0.73053  1.0000
  H   H461      1.0  0.54347  0.16365  0.77873  1.0000
  H   H462      1.0  0.49702  0.08135  0.77372  1.0000
  H   H463      1.0  0.47468  0.08409  0.72438  1.0000
  C   C279      1.0  0.53931  0.38546  0.53622  1.0000
  C   C280      1.0  0.55138  0.40849  0.55473  1.0000
  C   C281      1.0  0.57474  0.41575  0.57127  1.0000
  C   C282      1.0  0.58581  0.39970  0.56984  1.0000
  C   C283      1.0  0.57401  0.37688  0.55082  1.0000
  C   C284      1.0  0.55098  0.36999  0.53358  1.0000
  H   H464      1.0  0.54256  0.42069  0.55651  1.0000
  H   H465      1.0  0.58387  0.43349  0.58574  1.0000
  C   C285      1.0  0.51086  0.31806  0.62046  1.0000
  H   H466      1.0  0.62760  0.40063  0.66116  1.0000
  H   H467      1.0  0.41771  0.07122  0.54615  1.0000
  N   N18       1.0  0.45842  0.48322  0.53958  1.0000
  C   C286      1.0  0.46551  0.17632  0.53064  1.0000
  C   C287      1.0  0.45599  0.18507  0.55545  1.0000
  H   H468      1.0  0.48933  0.49285  0.50712  1.0000
  C   C288      1.0  0.37168  0.06877  0.55455  1.0000
  H   H469      1.0  0.65947  0.35322  0.84798  1.0000
  S   S94       1.0  0.50938  0.37635  0.51745  1.0000
  H   H470      1.0  0.59326  0.37049  0.73704  1.0000
  H   H471      1.0  0.60612  0.33941  0.74710  1.0000
  H   H472      1.0  0.60852  0.13063  0.73523  1.0000
  N   N19       1.0  0.64680  0.39151  0.73758  1.0000
  C   C289      1.0  0.63695  0.38556  0.70326  1.0000
  C   C290      1.0  0.64742  0.36859  0.75177  1.0000
  C   C291      1.0  0.62515  0.34156  0.74222  1.0000
  C   C292      1.0  0.60254  0.38128  0.75963  1.0000
  H   H473      1.0  0.54706  0.00599  0.54326  1.0000
  H   H474      1.0  0.57841  0.23404  0.97480  1.0000
  C   C293      1.0  0.63524  0.28617  0.90187  1.0000
  C   C294      1.0  0.45750  0.21986  0.52279  1.0000
  H   H475      1.0  0.41593  0.11418  0.50742  1.0000
  C   C295      1.0  0.60617  0.16386  0.99463  1.0000
  C   C296      1.0  0.39059  0.12226  0.53447  1.0000
  C   C297      1.0  0.35498  0.49020  0.76269  1.0000
  C   C298      1.0  0.53222  0.30547  0.55994  1.0000
  H   H476      1.0  0.60021  0.15131  0.67356  1.0000
  H   H477      1.0  0.56241  0.04455  0.51414  1.0000
  H   H478      1.0  0.58356  0.20748  0.96539  1.0000
  H   H479      1.0  0.62295  0.41381  0.69735  1.0000
  H   H480      1.0  0.35502  0.07236  0.55227  1.0000
  H   H481      1.0  0.62128  0.27074  0.88516  1.0000
  H   H482      1.0  0.63556  0.29606  0.82594  1.0000
  H   H483      1.0  0.39460  0.45807  0.56201  1.0000
  H   H484      1.0  0.59909  0.36769  0.77905  1.0000
  C   C299      1.0  0.41523  0.46466  0.56756  1.0000
  H   H485      1.0  0.59255  0.39253  0.76515  1.0000
  N   N20       1.0  0.56413  0.11845  0.68535  1.0000
  H   H486      1.0  0.45139  0.17507  0.57756  1.0000
  C   C300      1.0  0.55097  0.08949  0.68048  1.0000
  C   C301      1.0  0.57138  0.12707  0.71992  1.0000
  C   C302      1.0  0.52720  0.07418  0.70039  1.0000
  C   C303      1.0  0.58776  0.11741  0.73793  1.0000
  H   H487      1.0  0.52827  0.11913  0.68890  1.0000
  H   H488      1.0  0.56405  0.08158  0.68565  1.0000
  H   H489      1.0  0.58251  0.14844  0.72245  1.0000
  H   H490      1.0  0.55418  0.12235  0.73394  1.0000
  H   H491      1.0  0.51095  0.07723  0.69286  1.0000
  H   H492      1.0  0.52047  0.05326  0.69643  1.0000
  H   H493      1.0  0.53153  0.07859  0.72634  1.0000
  H   H494      1.0  0.62160  0.13063  0.64946  1.0000
  H   H495      1.0  0.58808  0.02381  0.56333  1.0000
  H   H496      1.0  0.58312  0.09751  0.73104  1.0000
  H   H497      1.0  0.58373  0.11678  0.76372  1.0000
  N   N21       1.0  0.48817  0.17501  0.84197  1.0000
  C   C304      1.0  0.48734  0.19924  0.85208  1.0000
  C   C305      1.0  0.51303  0.18344  0.82558  1.0000
  C   C306      1.0  0.48847  0.16143  0.87182  1.0000
  C   C307      1.0  0.46485  0.15833  0.82061  1.0000
  C   C308      1.0  0.46489  0.19559  0.87281  1.0000
  C   C309      1.0  0.51682  0.19955  0.79586  1.0000
  C   C310      1.0  0.46657  0.13843  0.79758  1.0000
  H   H498      1.0  0.50539  0.21305  0.86554  1.0000
  H   H499      1.0  0.48614  0.20963  0.83093  1.0000
  H   H500      1.0  0.51584  0.16701  0.81838  1.0000
  H   H501      1.0  0.52948  0.19514  0.84252  1.0000
  H   H502      1.0  0.44775  0.14761  0.83516  1.0000
  H   H503      1.0  0.46022  0.17067  0.80515  1.0000
  H   H504      1.0  0.44606  0.18072  0.86248  1.0000
  H   H505      1.0  0.46770  0.19102  0.89759  1.0000
  H   H506      1.0  0.46434  0.21406  0.87454  1.0000
  H   H507      1.0  0.53378  0.20135  0.78334  1.0000
  H   H508      1.0  0.50015  0.19052  0.77869  1.0000
  H   H509      1.0  0.52105  0.21947  0.80258  1.0000
  H   H510      1.0  0.44775  0.12050  0.79601  1.0000
  H   H511      1.0  0.48092  0.13254  0.80441  1.0000
  H   H512      1.0  0.46988  0.14544  0.77291  1.0000
  S   S95       1.0  0.65076  0.40217  0.84823  1.0000
  H   H513      1.0  0.47389  0.24287  0.63473  1.0000
  C   C311      1.0  0.65179  0.31132  0.88471  1.0000
  H   H514      1.0  0.66352  0.32671  0.90306  1.0000
  H   H515      1.0  0.66153  0.38295  0.97126  1.0000
  H   H516      1.0  0.50713  0.27230  0.60421  1.0000
  H   H517      1.0  0.52491  0.31207  0.62925  1.0000
  H   H518      1.0  0.64691  0.27911  0.91482  1.0000
  C   C312      1.0  0.59249  0.10065  0.52463  1.0000
  H   H519      1.0  0.58276  0.36461  0.54940  1.0000
  C   C313      1.0  0.63572  0.40762  0.68577  1.0000
  H   H520      1.0  0.47892  0.25959  0.57935  1.0000
  H   H521      1.0  0.60992  0.11369  0.68517  1.0000
  C   C314      1.0  0.45177  0.20643  0.55139  1.0000
  H   H522      1.0  0.59670  0.05391  0.54412  1.0000
  H   H523      1.0  0.41656  0.00158  0.63534  1.0000
  H   H524      1.0  0.47971  0.33426  0.56185  1.0000
  H   H525      1.0  0.64908  0.37975  0.68917  1.0000
  Fe  Fe48      1.0  0.66177  0.40530  0.90028  1.0000
  H   H526      1.0  0.57438  0.48345  0.69093  1.0000
  C   C315      1.0  0.54532  0.12708  0.67415  1.0000
  H   H527      1.0  0.54485  0.08389  0.65495  1.0000
  H   H528      1.0  0.50494  0.17464  0.88816  1.0000
  H   H529      1.0  0.47088  0.15596  0.88531  1.0000
  H   H530      1.0  0.50670  0.13871  0.85446  1.0000
  C   C316      1.0  0.48893  0.27297  0.60024  1.0000
  H   H531      1.0  0.49897  0.31671  0.64113  1.0000
  C   C317      1.0  0.57655  0.21585  0.98410  1.0000
  S   S96       1.0  0.65007  0.22577  0.82135  1.0000
  Fe  Fe49      1.0  0.63718  0.44979  0.60594  1.0000
  H   H532      1.0  0.63362  0.41874  0.74966  1.0000
  H   H533      1.0  0.56617  0.14764  0.98098  1.0000
  H   H534      1.0  0.41985  0.45947  0.51827  1.0000
  H   H535      1.0  0.47190  0.12068  0.85574  1.0000
  H   H536      1.0  0.34701  0.03596  0.58235  1.0000
  C   C318      1.0  0.46363  0.46225  0.55124  1.0000
  C   C319      1.0  0.48977  0.13624  0.86740  1.0000
  S   S97       1.0  0.34528  0.44173  0.50967  1.0000
  C   C320      1.0  0.45085  0.43634  0.53205  1.0000
  H   H537      1.0  0.63811  0.31723  0.87451  1.0000
  H   H538      1.0  0.35108  0.02650  0.54322  1.0000
  H   H539      1.0  0.62915  0.46761  0.71918  1.0000
  H   H540      1.0  0.36088  0.47836  0.77710  1.0000
  C   C321      1.0  0.60391  0.11776  0.66188  1.0000
  H   H541      1.0  0.37652  0.03706  0.57352  1.0000
  S   S98       1.0  0.64722  0.48090  0.57115  1.0000
  N   N22       1.0  0.49423  0.29999  0.59339  1.0000
  C   C322      1.0  0.52702  0.34698  0.61324  1.0000
  H   H542      1.0  0.52743  0.35887  0.63433  1.0000
  H   H543      1.0  0.41650  0.44777  0.57622  1.0000
  H   H544      1.0  0.39469  0.04448  0.52362  1.0000
  H   H545      1.0  0.53965  0.16004  0.66592  1.0000
  H   H546      1.0  0.46411  0.49925  0.58813  1.0000
  C   C323      1.0  0.50687  0.30645  0.56177  1.0000
  H   H547      1.0  0.54213  0.35266  0.51850  1.0000
  H   H548      1.0  0.47774  0.33920  0.60438  1.0000
  H   H549      1.0  0.45810  0.29330  0.61257  1.0000
  H   H550      1.0  0.35727  0.07904  0.49824  1.0000
  C   C324      1.0  0.58727  0.13105  0.66494  1.0000
  H   H551      1.0  0.49154  0.12942  0.89128  1.0000
  C   C325      1.0  0.58113  0.10010  0.55373  1.0000
  C   C326      1.0  0.46876  0.29961  0.59031  1.0000
  H   H552      1.0  0.52000  0.35358  0.59284  1.0000
  H   H553      1.0  0.62383  0.28984  0.91975  1.0000
  C   C327      1.0  0.55545  0.15648  0.67431  1.0000
  H   H554      1.0  0.53780  0.11942  0.64950  1.0000
  H   H555      1.0  0.38304  0.08025  0.57624  1.0000
  H   H556      1.0  0.61983  0.04358  0.55069  1.0000
  H   H557      1.0  0.61124  0.10200  0.52445  1.0000
  H   H558      1.0  0.45636  0.28534  0.57111  1.0000
  H   H559      1.0  0.48453  0.46871  0.55140  1.0000
  H   H560      1.0  0.51062  0.32558  0.55412  1.0000
  H   H561      1.0  0.56140  0.16560  0.69856  1.0000
  H   H562      1.0  0.49365  0.29300  0.54259  1.0000
  C   C328      1.0  0.47109  0.18966  0.50201  1.0000
  H   H563      1.0  0.44953  0.32180  0.57955  1.0000
  C   C329      1.0  0.46951  0.32538  0.58362  1.0000
  H   H564      1.0  0.45893  0.45830  0.57671  1.0000
  H   H565      1.0  0.42147  0.47990  0.58672  1.0000
  H   H566      1.0  0.44846  0.42069  0.54799  1.0000
  H   H567      1.0  0.58136  0.13239  0.63993  1.0000
  H   H568      1.0  0.62722  0.32709  0.75656  1.0000
  H   H569      1.0  0.62575  0.33636  0.71680  1.0000
  H   H570      1.0  0.54607  0.31674  0.57974  1.0000
  H   H571      1.0  0.64098  0.27131  0.84040  1.0000
  H   H572      1.0  0.48014  0.27359  0.65115  1.0000
  H   H573      1.0  0.45232  0.25452  0.62454  1.0000
  C   C330      1.0  0.63138  0.40009  0.75738  1.0000
  C   C331      1.0  0.46740  0.21136  0.49820  1.0000
  H   H574      1.0  0.60287  0.49898  0.66919  1.0000
  N   N23       1.0  0.56583  0.01139  0.49829  1.0000
  C   C332      1.0  0.66094  0.46240  0.79859  1.0000
  H   H575      1.0  0.55611  0.20195  0.98672  1.0000
  C   C333      1.0  0.59306  0.02242  0.51129  1.0000
  H   H576      1.0  0.40518  0.14299  0.53687  1.0000
  H   H577      1.0  0.40498  0.49877  0.77335  1.0000
  H   H578      1.0  0.65833  0.33711  0.81046  1.0000
  C   C334      1.0  0.40531  0.06582  0.52402  1.0000
  H   H579      1.0  0.43123  0.43050  0.52276  1.0000
  C   C335      1.0  0.65104  0.29154  0.83256  1.0000
  C   C336      1.0  0.40453  0.10636  0.52894  1.0000
  H   H580      1.0  0.64990  0.27560  0.78507  1.0000
  H   H581      1.0  0.64969  0.40393  0.98359  1.0000
  H   H582      1.0  0.42721  0.49112  0.52934  1.0000
  H   H583      1.0  0.43800  0.09383  0.49726  1.0000
  H   H584      1.0  0.59888  0.00724  0.51276  1.0000
  H   H585      1.0  0.33444  0.48337  0.76727  1.0000
  H   H586      1.0  0.38003  0.11751  0.55684  1.0000
  H   H587      1.0  0.35603  0.48648  0.73693  1.0000
  C   C337      1.0  0.47055  0.49263  0.50796  1.0000
  H   H588      1.0  0.61011  0.49624  0.72831  1.0000
  H   H589      1.0  0.41876  0.11147  0.54923  1.0000
  N   N24       1.0  0.38774  0.07747  0.52543  1.0000
  H   H590      1.0  0.66138  0.21441  0.88479  1.0000
  H   H591      1.0  0.46293  0.43664  0.51217  1.0000
  H   H592      1.0  0.37761  0.12034  0.51400  1.0000
  H   H593      1.0  0.59957  0.41622  0.49654  1.0000
  Fe  Fe50      1.0  0.54889  0.86544  0.44680  1.0000
  S   S99       1.0  0.50653  0.85243  0.44385  1.0000
  S   S100      1.0  0.34573  0.54564  0.14441  1.0000
  Fe  Fe51      1.0  0.53923  0.81151  0.47049  1.0000
  S   S101      1.0  0.49670  0.79617  0.46902  1.0000
  H   H594      1.0  0.43784  0.59188  0.49219  1.0000
  Fe  Fe52      1.0  0.50135  0.81509  0.42169  1.0000
  S   S102      1.0  0.47097  0.79060  0.38276  1.0000
  C   C338      1.0  0.46138  0.73549  0.07402  1.0000
  S   S103      1.0  0.54370  0.82865  0.42165  1.0000
  H   H595      1.0  0.48080  0.75212  0.01747  1.0000
  C   C339      1.0  0.62375  0.82356  0.47089  1.0000
  H   H596      1.0  0.35284  0.66740  0.13843  1.0000
  Fe  Fe53      1.0  0.35500  0.55856  0.19572  1.0000
  H   H597      1.0  0.33246  0.66253  0.24943  1.0000
  H   H598      1.0  0.43319  0.61001  0.46055  1.0000
  C   C340      1.0  0.35343  0.58016  0.06005  1.0000
  Fe  Fe54      1.0  0.38248  0.54389  0.14631  1.0000
  S   S104      1.0  0.41094  0.56617  0.10867  1.0000
  H   H599      1.0  0.62293  0.83896  0.42566  1.0000
  S   S105      1.0  0.39304  0.55978  0.19704  1.0000
  Fe  Fe55      1.0  0.43750  0.77610  0.19515  1.0000
  S   S106      1.0  0.45067  0.76462  0.15086  1.0000
  S   S107      1.0  0.46907  0.80205  0.23177  1.0000
  Fe  Fe56      1.0  0.38178  0.74463  0.17242  1.0000
  S   S108      1.0  0.39043  0.73041  0.12679  1.0000
  H   H600      1.0  0.42520  0.73326  0.06530  1.0000
  Fe  Fe57      1.0  0.41847  0.72515  0.15751  1.0000
  S   S109      1.0  0.42455  0.69152  0.14597  1.0000
  Fe  Fe58      1.0  0.42181  0.77096  0.12289  1.0000
  S   S110      1.0  0.43487  0.78762  0.07435  1.0000
  S   S111      1.0  0.40731  0.73562  0.20391  1.0000
  S   S112      1.0  0.41120  0.78624  0.16645  1.0000
  H   H601      1.0  0.43677  0.67567  0.06498  1.0000
  H   H602      1.0  0.59416  0.86957  0.44190  1.0000
  C   C341      1.0  0.42229  0.78603  0.01075  1.0000
  C   C342      1.0  0.41293  0.77971  0.04151  1.0000
  C   C343      1.0  0.38646  0.76702  0.04537  1.0000
  C   C344      1.0  0.36953  0.76080  0.01864  1.0000
  C   C345      1.0  0.46886  0.55799  0.09840  1.0000
  S   S113      1.0  0.57612  0.90597  0.42850  1.0000
  H   H603      1.0  0.37906  0.76232  0.06898  1.0000
  H   H604      1.0  0.34907  0.75139  0.02185  1.0000
  C   C346      1.0  0.36956  0.61877  0.19503  1.0000
  C   C347      1.0  0.38646  0.61816  0.17295  1.0000
  C   C348      1.0  0.40314  0.64056  0.15776  1.0000
  C   C349      1.0  0.40275  0.66357  0.16429  1.0000
  C   C350      1.0  0.38526  0.66406  0.18557  1.0000
  C   C351      1.0  0.36873  0.64166  0.20106  1.0000
  H   H605      1.0  0.38697  0.60050  0.16779  1.0000
  H   H606      1.0  0.41655  0.64006  0.14120  1.0000
  H   H607      1.0  0.38453  0.68164  0.19035  1.0000
  H   H608      1.0  0.35539  0.64207  0.21780  1.0000
  C   C352      1.0  0.61723  0.98497  0.42962  1.0000
  H   H609      1.0  0.36801  0.59861  0.05095  1.0000
  C   C353      1.0  0.41802  0.57863  0.04602  1.0000
  C   C354      1.0  0.40577  0.55870  0.06728  1.0000
  C   C355      1.0  0.39214  0.53323  0.05528  1.0000
  C   C356      1.0  0.39228  0.52767  0.02251  1.0000
  H   H610      1.0  0.52440  0.57153  0.01140  1.0000
  H   H611      1.0  0.42866  0.59838  0.05518  1.0000
  H   H612      1.0  0.51028  0.56134  0.06645  1.0000
  H   H613      1.0  0.64463  0.83027  0.47179  1.0000
  C   C357      1.0  0.47049  0.79521  0.34108  1.0000
  C   C358      1.0  0.44826  0.77880  0.32241  1.0000
  C   C359      1.0  0.44739  0.78076  0.28902  1.0000
  C   C360      1.0  0.46878  0.79929  0.27388  1.0000
  C   C361      1.0  0.49094  0.81581  0.29254  1.0000
  C   C362      1.0  0.49182  0.81383  0.32594  1.0000
  H   H614      1.0  0.43164  0.76438  0.33389  1.0000
  H   H615      1.0  0.43016  0.76803  0.27505  1.0000
  H   H616      1.0  0.50756  0.83026  0.28108  1.0000
  H   H617      1.0  0.50904  0.82658  0.33993  1.0000
  H   H618      1.0  0.49665  0.58877  0.04553  1.0000
  H   H619      1.0  0.33698  0.58205  0.06884  1.0000
  H   H620      1.0  0.42259  0.70413  0.07693  1.0000
  H   H621      1.0  0.45574  0.65053  0.47649  1.0000
  H   H622      1.0  0.35158  0.67721  0.07952  1.0000
  H   H623      1.0  0.57714  0.75003  0.48869  1.0000
  C   C363      1.0  0.59360  0.93908  0.44254  1.0000
  C   C364      1.0  0.60048  0.94646  0.47478  1.0000
  C   C365      1.0  0.40534  0.54754  0.00142  1.0000
  S   S114      1.0  0.33990  0.73105  0.17975  1.0000
  H   H624      1.0  0.33695  0.58052  0.30122  1.0000
  C   C366      1.0  0.47928  0.57387  0.03196  1.0000
  H   H625      1.0  0.34975  0.64617  0.06989  1.0000
  H   H626      1.0  0.41129  0.51499  0.47327  1.0000
  C   C367      1.0  0.62099  0.88055  0.40430  1.0000
  C   C368      1.0  0.45824  0.53903  0.06907  1.0000
  N   N25       1.0  0.48599  0.64034  0.48518  1.0000
  N   N26       1.0  0.62729  0.86822  0.46128  1.0000
  H   H627      1.0  0.51778  0.65952  0.45377  1.0000
  H   H628      1.0  0.61263  0.89134  0.39192  1.0000
  C   C369      1.0  0.43917  0.73381  0.00478  1.0000
  H   H629      1.0  0.47904  0.66091  0.44766  1.0000
  H   H630      1.0  0.47978  0.60185  0.47329  1.0000
  S   S115      1.0  0.36441  0.50264  0.16145  1.0000
  H   H631      1.0  0.64182  0.89071  0.40022  1.0000
  H   H632      1.0  0.47415  0.72855  0.06453  1.0000
  C   C370      1.0  0.65605  0.88125  0.45936  1.0000
  C   C371      1.0  0.62478  0.99229  0.46171  1.0000
  H   H633      1.0  0.34889  0.63685  0.12628  1.0000
  C   C372      1.0  0.51426  0.65284  0.47866  1.0000
  H   H634      1.0  0.36258  0.57640  0.08120  1.0000
  H   H635      1.0  0.38558  0.71712  0.04578  1.0000
  H   H636      1.0  0.43860  0.53590  0.06343  1.0000
  H   H637      1.0  0.54238  0.98236  0.46139  1.0000
  H   H638      1.0  0.46181  0.73298  0.10013  1.0000
  H   H639      1.0  0.50765  0.53743  0.99950  1.0000
  H   H640      1.0  0.34067  0.80007  0.46877  1.0000
  S   S116      1.0  0.54830  0.84948  0.49523  1.0000
  H   H641      1.0  0.37648  0.67075  0.09221  1.0000
  H   H642      1.0  0.46942  0.75639  0.06985  1.0000
  H   H643      1.0  0.57365  0.99688  0.41903  1.0000
  H   H644      1.0  0.38277  0.51772  0.07147  1.0000
  H   H645      1.0  0.35645  0.70472  0.22446  1.0000
  C   C373      1.0  0.52724  0.63601  0.48344  1.0000
  H   H646      1.0  0.62104  0.90014  0.44757  1.0000
  C   C374      1.0  0.35535  0.66184  0.08829  1.0000
  N   N27       1.0  0.42929  0.71114  0.02630  1.0000
  C   C375      1.0  0.43344  0.72023  0.06089  1.0000
  S   S117      1.0  0.55811  0.78631  0.48264  1.0000
  H   H647      1.0  0.66120  0.92113  0.45754  1.0000
  H   H648      1.0  0.62372  0.99953  0.41191  1.0000
  C   C376      1.0  0.61958  0.86847  0.49529  1.0000
  H   H649      1.0  0.46336  0.57720  0.03971  1.0000
  N   N28       1.0  0.46773  0.72034  0.25589  1.0000
  C   C377      1.0  0.47541  0.74555  0.24012  1.0000
  C   C378      1.0  0.45663  0.72179  0.28734  1.0000
  C   C379      1.0  0.44767  0.69900  0.23420  1.0000
  C   C380      1.0  0.49129  0.71725  0.25995  1.0000
  C   C381      1.0  0.48581  0.74785  0.20635  1.0000
  C   C382      1.0  0.47593  0.74091  0.31295  1.0000
  C   C383      1.0  0.42968  0.67331  0.24943  1.0000
  C   C384      1.0  0.48883  0.69456  0.27958  1.0000
  H   H650      1.0  0.45883  0.74929  0.23824  1.0000
  H   H651      1.0  0.49053  0.76216  0.25450  1.0000
  H   H652      1.0  0.44712  0.70294  0.29873  1.0000
  H   H653      1.0  0.44107  0.72693  0.28355  1.0000
  H   H654      1.0  0.43471  0.70533  0.22263  1.0000
  H   H655      1.0  0.45678  0.69430  0.21409  1.0000
  H   H656      1.0  0.49783  0.71445  0.23632  1.0000
  H   H657      1.0  0.50795  0.73529  0.27010  1.0000
  H   H658      1.0  0.47150  0.73324  0.18909  1.0000
  H   H659      1.0  0.49034  0.76709  0.19761  1.0000
  H   H660      1.0  0.50396  0.74699  0.20625  1.0000
  H   H661      1.0  0.46549  0.74041  0.33473  1.0000
  H   H662      1.0  0.49080  0.73569  0.32014  1.0000
  H   H663      1.0  0.48527  0.76108  0.30542  1.0000
  H   H664      1.0  0.43973  0.66611  0.26512  1.0000
  H   H665      1.0  0.41962  0.65821  0.23027  1.0000
  H   H666      1.0  0.41466  0.67498  0.26278  1.0000
  H   H667      1.0  0.48261  0.67697  0.26402  1.0000
  H   H668      1.0  0.47577  0.69008  0.29953  1.0000
  H   H669      1.0  0.50780  0.69976  0.29106  1.0000
  C   C385      1.0  0.51681  0.55168  0.01968  1.0000
  C   C386      1.0  0.42334  0.83757  0.49454  1.0000
  H   H670      1.0  0.36081  0.55326  0.03355  1.0000
  H   H671      1.0  0.41241  0.65610  0.03443  1.0000
  C   C387      1.0  0.41755  0.57311  0.01314  1.0000
  H   H672      1.0  0.45860  0.53890  0.48114  1.0000
  H   H673      1.0  0.46248  0.70521  0.02130  1.0000
  C   C388      1.0  0.38486  0.70910  0.02143  1.0000
  C   C389      1.0  0.61534  0.88001  0.43999  1.0000
  C   C390      1.0  0.42000  0.52774  0.49404  1.0000
  H   H674      1.0  0.44407  0.66069  0.03247  1.0000
  Fe  Fe59      1.0  0.50569  0.83473  0.49077  1.0000
  H   H675      1.0  0.45748  0.83800  0.47778  1.0000
  C   C391      1.0  0.43285  0.67046  0.03912  1.0000
  C   C392      1.0  0.60207  0.95861  0.42015  1.0000
  C   C393      1.0  0.44128  0.69439  0.01879  1.0000
  H   H676      1.0  0.52234  0.62175  0.46328  1.0000
  H   H677      1.0  0.47923  0.69595  0.48340  1.0000
  C   C394      1.0  0.44328  0.59937  0.46804  1.0000
  Fe  Fe60      1.0  0.37132  0.51880  0.21236  1.0000
  S   S118      1.0  0.34922  0.59087  0.21460  1.0000
  H   H678      1.0  0.43611  0.74940  0.01540  1.0000
  C   C395      1.0  0.47656  0.65837  0.47380  1.0000
  H   H679      1.0  0.39216  0.67899  0.03624  1.0000
  H   H680      1.0  0.59705  0.95329  0.39512  1.0000
  H   H681      1.0  0.47684  0.61863  0.44016  1.0000
  H   H682      1.0  0.44064  0.52899  0.00775  1.0000
  H   H683      1.0  0.59520  0.83067  0.44784  1.0000
  C   C396      1.0  0.40076  0.69489  0.01943  1.0000
  H   H684      1.0  0.48742  0.56036  0.10787  1.0000
  H   H685      1.0  0.44277  0.79607  0.00766  1.0000
  C   C397      1.0  0.35590  0.76717  0.48339  1.0000
  H   H686      1.0  0.61168  0.86096  0.39280  1.0000
  C   C398      1.0  0.48210  0.58097  0.99653  1.0000
  H   H687      1.0  0.61418  0.80360  0.46028  1.0000
  H   H688      1.0  0.41588  0.83766  0.47081  1.0000
  H   H689      1.0  0.36736  0.78669  0.49471  1.0000
  H   H690      1.0  0.35673  0.76879  0.45717  1.0000
  H   H691      1.0  0.50968  0.69733  0.48211  1.0000
  H   H692      1.0  0.53365  0.54989  0.02829  1.0000
  H   H693      1.0  0.57093  0.98217  0.47237  1.0000
  C   C399      1.0  0.61657  0.84041  0.44994  1.0000
  C   C400      1.0  0.61623  0.97277  0.48416  1.0000
  C   C401      1.0  0.49876  0.54661  0.04737  1.0000
  H   H694      1.0  0.38278  0.50782  0.01358  1.0000
  N   N29       1.0  0.47409  0.54699  0.03975  1.0000
  H   H695      1.0  0.43611  0.58210  0.45164  1.0000
  C   C402      1.0  0.47260  0.61521  0.46585  1.0000
  C   C403      1.0  0.34450  0.55725  0.03572  1.0000
  H   H696      1.0  0.59426  0.93188  0.49242  1.0000
  C   C404      1.0  0.34295  0.65134  0.12013  1.0000
  H   H697      1.0  0.36547  0.75590  0.49066  1.0000
  H   H698      1.0  0.47063  0.57709  0.09362  1.0000
  C   C405      1.0  0.56289  0.99543  0.46833  1.0000
  H   H699      1.0  0.52543  0.67045  0.49437  1.0000
  H   H700      1.0  0.54841  0.64844  0.48425  1.0000
  C   C406      1.0  0.33615  0.69299  0.21922  1.0000
  H   H701      1.0  0.45569  0.52031  0.07747  1.0000
  H   H702      1.0  0.39880  0.50390  0.32172  1.0000
  H   H703      1.0  0.49476  0.52781  0.05719  1.0000
  H   H704      1.0  0.45508  0.55004  0.11779  1.0000
  S   S119      1.0  0.38678  0.50730  0.25572  1.0000
  H   H705      1.0  0.39123  0.60611  0.00492  1.0000
  C   C407      1.0  0.48985  0.68556  0.49013  1.0000
  H   H706      1.0  0.36441  0.69522  0.01533  1.0000
  H   H707      1.0  0.39078  0.72459  0.00410  1.0000
  H   H708      1.0  0.66426  0.87301  0.47668  1.0000
  H   H709      1.0  0.66186  0.87701  0.43592  1.0000
  C   C408      1.0  0.45856  0.52801  0.01286  1.0000
  H   H710      1.0  0.33560  0.51132  0.01249  1.0000
  S   S120      1.0  0.33404  0.51910  0.21463  1.0000
  H   H711      1.0  0.36483  0.61293  0.00054  1.0000
  N   N30       1.0  0.33488  0.55976  0.00303  1.0000
  H   H712      1.0  0.42771  0.58856  0.99711  1.0000
  H   H713      1.0  0.61674  0.82210  0.49538  1.0000
  H   H714      1.0  0.60245  0.89414  0.49591  1.0000
  H   H715      1.0  0.37744  0.64272  0.91083  1.0000
  C   C409      1.0  0.42806  0.91558  0.61826  1.0000
  C   C410      1.0  0.35068  0.64809  0.87844  1.0000
  C   C411      1.0  0.40328  0.57724  0.76371  1.0000
  S   S121      1.0  0.61390  0.52029  0.60682  1.0000
  C   C412      1.0  0.53173  0.75374  0.53212  1.0000
  C   C413      1.0  0.44166  0.91020  0.52867  1.0000
  C   C414      1.0  0.47439  0.66473  0.64745  1.0000
  S   S122      1.0  0.37126  0.85124  0.60729  1.0000
  Fe  Fe61      1.0  0.33913  0.72070  0.84609  1.0000
  Fe  Fe62      1.0  0.35690  0.83370  0.55824  1.0000
  S   S123      1.0  0.38043  0.83779  0.51535  1.0000
  S   S124      1.0  0.48674  0.83917  0.53467  1.0000
  H   H716      1.0  0.39788  0.90165  0.49900  1.0000
  Fe  Fe63      1.0  0.55912  0.62216  0.61433  1.0000
  S   S125      1.0  0.51998  0.58867  0.62151  1.0000
  S   S126      1.0  0.59541  0.61841  0.62370  1.0000
  Fe  Fe64      1.0  0.53700  0.65817  0.59143  1.0000
  S   S127      1.0  0.49714  0.62554  0.59686  1.0000
  S   S128      1.0  0.53290  0.69399  0.57847  1.0000
  Fe  Fe65      1.0  0.51094  0.61830  0.64388  1.0000
  S   S129      1.0  0.48452  0.61685  0.68349  1.0000
  Fe  Fe66      1.0  0.51026  0.59977  0.57438  1.0000
  S   S130      1.0  0.49158  0.57262  0.53149  1.0000
  S   S131      1.0  0.55062  0.65154  0.63951  1.0000
  S   S132      1.0  0.54954  0.63229  0.56612  1.0000
  Fe  Fe67      1.0  0.45258  0.59550  0.86494  1.0000
  S   S133      1.0  0.45701  0.60573  0.91806  1.0000
  S   S134      1.0  0.48367  0.59745  0.83259  1.0000
  Fe  Fe68      1.0  0.39600  0.57768  0.86264  1.0000
  S   S135      1.0  0.39491  0.58677  0.91419  1.0000
  S   S136      1.0  0.36082  0.56137  0.83035  1.0000
  Fe  Fe69      1.0  0.43145  0.62288  0.90669  1.0000
  S   S137      1.0  0.43265  0.65661  0.93389  1.0000
  Fe  Fe70      1.0  0.41994  0.56899  0.92284  1.0000
  S   S138      1.0  0.40797  0.53954  0.96138  1.0000
  S   S139      1.0  0.42996  0.61574  0.85364  1.0000
  S   S140      1.0  0.41810  0.55673  0.87126  1.0000
  Fe  Fe71      1.0  0.39676  0.74638  0.85421  1.0000
  S   S141      1.0  0.36524  0.72031  0.88508  1.0000
  S   S142      1.0  0.42891  0.73820  0.84316  1.0000
  Fe  Fe72      1.0  0.37101  0.77812  0.83706  1.0000
  C   C415      1.0  0.60712  0.51221  0.71956  1.0000
  S   S143      1.0  0.36899  0.81000  0.81037  1.0000
  Fe  Fe73      1.0  0.36645  0.75656  0.90389  1.0000
  S   S144      1.0  0.35690  0.75929  0.95523  1.0000
  H   H717      1.0  0.38244  0.57066  0.76308  1.0000
  S   S145      1.0  0.40030  0.78315  0.87584  1.0000
  S   S146      1.0  0.37043  0.74364  0.81338  1.0000
  C   C416      1.0  0.43139  0.71673  0.86920  1.0000
  C   C417      1.0  0.44300  0.70223  0.85924  1.0000
  C   C418      1.0  0.44354  0.68371  0.87902  1.0000
  C   C419      1.0  0.43297  0.68012  0.90906  1.0000
  C   C420      1.0  0.42207  0.69514  0.91936  1.0000
  C   C421      1.0  0.42118  0.71335  0.89944  1.0000
  H   H718      1.0  0.45112  0.70498  0.83597  1.0000
  H   H719      1.0  0.45237  0.67246  0.87116  1.0000
  H   H720      1.0  0.41379  0.69230  0.94244  1.0000
  H   H721      1.0  0.41291  0.72500  0.90763  1.0000
  C   C422      1.0  0.48671  0.61352  0.72523  1.0000
  C   C423      1.0  0.50166  0.60362  0.73878  1.0000
  C   C424      1.0  0.50092  0.59925  0.77177  1.0000
  C   C425      1.0  0.48540  0.60487  0.79158  1.0000
  C   C426      1.0  0.47117  0.61562  0.77814  1.0000
  C   C427      1.0  0.47159  0.61961  0.74515  1.0000
  H   H722      1.0  0.51335  0.59879  0.72377  1.0000
  H   H723      1.0  0.51220  0.59117  0.78192  1.0000
  H   H724      1.0  0.45956  0.62052  0.79315  1.0000
  H   H725      1.0  0.45995  0.62729  0.73498  1.0000
  H   H726      1.0  0.44063  0.53392  0.72130  1.0000
  H   H727      1.0  0.33997  0.63202  0.79849  1.0000
  C   C428      1.0  0.55778  0.72503  0.52712  1.0000
  C   C429      1.0  0.53988  0.71909  0.55088  1.0000
  C   C430      1.0  0.52691  0.73363  0.55308  1.0000
  H   H728      1.0  0.64845  0.57504  0.70008  1.0000
  H   H729      1.0  0.56955  0.97852  0.54557  1.0000
  H   H730      1.0  0.56808  0.71427  0.52502  1.0000
  H   H731      1.0  0.51291  0.72933  0.57110  1.0000
  H   H732      1.0  0.46879  0.53284  0.99021  1.0000
  C   C431      1.0  0.40941  0.83712  0.52115  1.0000
  C   C432      1.0  0.41916  0.83706  0.55174  1.0000
  C   C433      1.0  0.44293  0.83766  0.55565  1.0000
  C   C434      1.0  0.45684  0.83799  0.52901  1.0000
  H   H733      1.0  0.62687  0.55024  0.76452  1.0000
  C   C435      1.0  0.40199  0.90397  0.55180  1.0000
  H   H734      1.0  0.40845  0.83655  0.57237  1.0000
  H   H735      1.0  0.45050  0.83767  0.57935  1.0000
  H   H736      1.0  0.34756  0.59941  0.86682  1.0000
  H   H737      1.0  0.42826  0.72832  0.98138  1.0000
  C   C436      1.0  0.35431  0.79885  0.70167  1.0000
  C   C437      1.0  0.36493  0.80672  0.76826  1.0000
  C   C438      1.0  0.35521  0.82076  0.75183  1.0000
  H   H738      1.0  0.64529  0.52536  0.67641  1.0000
  H   H739      1.0  0.47142  0.98200  0.57873  1.0000
  H   H740      1.0  0.35247  0.86172  0.88925  1.0000
  H   H741      1.0  0.43141  0.56878  0.78399  1.0000
  C   C439      1.0  0.40497  0.98594  0.61838  1.0000
  C   C440      1.0  0.34210  0.64365  0.82067  1.0000
  C   C441      1.0  0.45817  0.55759  0.52560  1.0000
  C   C442      1.0  0.44282  0.56105  0.54767  1.0000
  C   C443      1.0  0.41605  0.54801  0.54273  1.0000
  H   H742      1.0  0.39672  0.51086  0.72432  1.0000
  H   H743      1.0  0.45155  0.57357  0.56863  1.0000
  H   H744      1.0  0.40416  0.55069  0.55982  1.0000
  H   H745      1.0  0.36631  0.52103  0.79784  1.0000
  C   C444      1.0  0.60958  0.54818  0.61039  1.0000
  C   C445      1.0  0.58464  0.54505  0.60659  1.0000
  C   C446      1.0  0.57998  0.56622  0.61016  1.0000
  C   C447      1.0  0.60023  0.59098  0.61785  1.0000
  C   C448      1.0  0.62516  0.59410  0.62171  1.0000
  C   C449      1.0  0.62987  0.57298  0.61778  1.0000
  H   H746      1.0  0.56877  0.52605  0.60085  1.0000
  H   H747      1.0  0.56070  0.56336  0.60712  1.0000
  H   H748      1.0  0.64103  0.61310  0.62754  1.0000
  H   H749      1.0  0.64918  0.57589  0.62061  1.0000
  H   H750      1.0  0.37834  0.77908  0.76316  1.0000
  H   H751      1.0  0.47100  0.67415  0.62676  1.0000
  C   C450      1.0  0.36488  0.78556  0.71797  1.0000
  C   C451      1.0  0.37605  0.93953  0.60721  1.0000
  H   H752      1.0  0.40858  0.64334  0.81157  1.0000
  C   C452      1.0  0.37404  0.94489  0.57526  1.0000
  H   H753      1.0  0.39329  0.95656  0.65341  1.0000
  C   C453      1.0  0.36682  0.87440  0.90773  1.0000
  H   H754      1.0  0.35835  0.88516  0.92000  1.0000
  C   C454      1.0  0.37028  0.78954  0.75103  1.0000
  C   C455      1.0  0.46759  0.74633  0.99626  1.0000
  C   C456      1.0  0.41030  0.55906  0.78198  1.0000
  C   C457      1.0  0.65118  0.53078  0.70203  1.0000
  H   H755      1.0  0.47508  0.51300  0.50500  1.0000
  C   C458      1.0  0.40533  0.77905  0.98390  1.0000
  H   H756      1.0  0.52701  0.98580  0.51142  1.0000
  Fe  Fe74      1.0  0.34266  0.86572  0.60259  1.0000
  H   H757      1.0  0.62202  0.97803  0.50904  1.0000
  C   C459      1.0  0.33824  0.51762  0.61576  1.0000
  H   H758      1.0  0.45063  0.53935  0.77604  1.0000
  N   N31       1.0  0.37270  0.83507  0.92284  1.0000
  H   H759      1.0  0.34719  0.67598  0.79249  1.0000
  H   H760      1.0  0.36799  0.81066  0.98537  1.0000
  H   H761      1.0  0.46209  0.65036  0.54942  1.0000
  H   H762      1.0  0.47249  0.76410  0.98317  1.0000
  S   S147      1.0  0.37111  0.51448  0.51091  1.0000
  H   H763      1.0  0.48020  0.96849  0.54539  1.0000
  C   C460      1.0  0.47060  0.50559  0.56375  1.0000
  H   H764      1.0  0.39650  0.92898  0.51759  1.0000
  Fe  Fe75      1.0  0.64226  0.50406  0.61133  1.0000
  H   H765      1.0  0.35529  0.65012  0.93005  1.0000
  C   C461      1.0  0.64154  0.54710  0.75222  1.0000
  H   H766      1.0  0.36791  0.83785  0.87153  1.0000
  H   H767      1.0  0.39173  0.53729  0.71874  1.0000
  C   C462      1.0  0.40922  0.51691  0.78674  1.0000
  C   C463      1.0  0.44675  0.54125  0.49857  1.0000
  C   C464      1.0  0.38088  0.64361  0.84396  1.0000
  H   H768      1.0  0.34006  0.81279  0.95184  1.0000
  C   C465      1.0  0.43151  0.54639  0.72268  1.0000
  C   C466      1.0  0.54999  0.76003  0.50875  1.0000
  C   C467      1.0  0.38008  0.83436  0.88887  1.0000
  C   C468      1.0  0.35682  0.57412  0.98148  1.0000
  H   H769      1.0  0.36169  0.92936  0.55860  1.0000
  C   C469      1.0  0.40248  0.99136  0.58660  1.0000
  H   H770      1.0  0.43362  0.90764  0.63884  1.0000
  Fe  Fe76      1.0  0.33876  0.81487  0.62464  1.0000
  H   H771      1.0  0.41435  0.87311  0.89160  1.0000
  H   H772      1.0  0.37661  0.81471  0.88188  1.0000
  H   H773      1.0  0.39400  0.88279  0.55317  1.0000
  H   H774      1.0  0.49892  0.65188  0.53436  1.0000
  H   H775      1.0  0.35934  0.52910  0.62009  1.0000
  C   C470      1.0  0.38564  0.82858  0.98001  1.0000
  C   C471      1.0  0.45794  0.63279  0.53483  1.0000
  H   H776      1.0  0.65878  0.56653  0.75256  1.0000
  H   H777      1.0  0.34426  0.61841  0.91349  1.0000
  C   C472      1.0  0.38745  0.63521  0.81203  1.0000
  C   C473      1.0  0.37887  0.76658  0.98783  1.0000
  H   H778      1.0  0.37701  0.67850  0.80583  1.0000
  H   H779      1.0  0.40164  0.82772  0.99311  1.0000
  H   H780      1.0  0.36153  0.52875  0.75856  1.0000
  C   C474      1.0  0.37044  0.51916  0.77243  1.0000
  H   H781      1.0  0.59390  0.54947  0.72402  1.0000
  C   C475      1.0  0.35737  0.63904  0.90970  1.0000
  C   C476      1.0  0.43662  0.90792  0.58732  1.0000
  C   C477      1.0  0.61856  0.89267  0.50768  1.0000
  H   H782      1.0  0.48434  0.61826  0.52619  1.0000
  H   H783      1.0  0.34559  0.79433  0.92225  1.0000
  C   C478      1.0  0.39157  0.90854  0.51994  1.0000
  H   H784      1.0  0.48769  0.65749  0.64098  1.0000
  N   N32       1.0  0.43080  0.91751  0.55687  1.0000
  H   H785      1.0  0.43746  0.93677  0.62252  1.0000
  H   H786      1.0  0.38399  0.88928  0.89617  1.0000
  H   H787      1.0  0.36960  0.56532  0.98114  1.0000
  C   C479      1.0  0.44012  0.94610  0.55880  1.0000
  H   H788      1.0  0.47448  0.90817  0.51032  1.0000
  H   H789      1.0  0.38827  0.63583  0.86296  1.0000
  H   H790      1.0  0.49026  0.68495  0.51647  1.0000
  C   C480      1.0  0.46885  0.96379  0.56718  1.0000
  H   H791      1.0  0.45737  0.91471  0.59130  1.0000
  H   H792      1.0  0.39933  0.51086  0.80972  1.0000
  N   N33       1.0  0.35298  0.63543  0.84806  1.0000
  C   C481      1.0  0.46799  0.91149  0.53371  1.0000
  H   H793      1.0  0.41274  0.78381  0.96031  1.0000
  H   H794      1.0  0.38170  0.64254  0.79111  1.0000
  H   H795      1.0  0.50899  0.52931  0.54409  1.0000
  H   H796      1.0  0.42880  0.95111  0.57554  1.0000
  H   H797      1.0  0.62522  0.55115  0.67455  1.0000
  H   H798      1.0  0.42132  0.84651  0.89061  1.0000
  C   C482      1.0  0.64763  0.52974  0.77363  1.0000
  H   H799      1.0  0.50823  0.50752  0.57423  1.0000
  C   C483      1.0  0.54693  0.99447  0.52185  1.0000
  C   C484      1.0  0.59170  0.50228  0.68757  1.0000
  H   H800      1.0  0.49605  0.57699  0.98422  1.0000
  C   C485      1.0  0.34992  0.81687  0.71860  1.0000
  H   H801      1.0  0.65131  0.51368  0.71201  1.0000
  H   H802      1.0  0.47687  0.95582  0.58486  1.0000
  C   C486      1.0  0.50025  0.52005  0.56650  1.0000
  N   N34       1.0  0.51093  0.70508  0.67701  1.0000
  C   C487      1.0  0.48395  0.68282  0.67755  1.0000
  C   C488      1.0  0.51669  0.71956  0.70883  1.0000
  C   C489      1.0  0.52884  0.69396  0.67253  1.0000
  C   C490      1.0  0.51208  0.72146  0.64950  1.0000
  C   C491      1.0  0.50007  0.73229  0.71656  1.0000
  C   C492      1.0  0.55695  0.71054  0.68486  1.0000
  C   C493      1.0  0.53740  0.74656  0.64572  1.0000
  H   H803      1.0  0.48198  0.67063  0.69829  1.0000
  H   H804      1.0  0.46976  0.68972  0.68057  1.0000
  H   H805      1.0  0.53682  0.73525  0.71133  1.0000
  H   H806      1.0  0.51473  0.70643  0.72846  1.0000
  H   H807      1.0  0.52175  0.67533  0.68473  1.0000
  H   H808      1.0  0.52941  0.68916  0.64690  1.0000
  H   H809      1.0  0.50876  0.71041  0.62652  1.0000
  H   H810      1.0  0.49605  0.72607  0.64936  1.0000
  H   H811      1.0  0.45579  0.64759  0.65220  1.0000
  H   H812      1.0  0.47985  0.71790  0.72036  1.0000
  H   H813      1.0  0.50752  0.74386  0.73933  1.0000
  H   H814      1.0  0.50099  0.74577  0.69812  1.0000
  H   H815      1.0  0.55844  0.71157  0.71133  1.0000
  H   H816      1.0  0.56619  0.73017  0.67567  1.0000
  H   H817      1.0  0.56830  0.70130  0.67680  1.0000
  H   H818      1.0  0.55093  0.74279  0.63174  1.0000
  H   H819      1.0  0.54682  0.75678  0.66855  1.0000
  H   H820      1.0  0.53330  0.76035  0.63266  1.0000
  H   H821      1.0  0.36858  0.77179  0.70499  1.0000
  H   H822      1.0  0.44316  0.51633  0.80599  1.0000
  H   H823      1.0  0.33644  0.72574  0.75128  1.0000
  H   H824      1.0  0.34455  0.50311  0.57123  1.0000
  S   S148      1.0  0.35838  0.90773  0.62210  1.0000
  H   H825      1.0  0.65445  0.53938  0.79761  1.0000
  H   H826      1.0  0.40702  0.90743  0.61871  1.0000
  H   H827      1.0  0.53581  0.96088  0.55057  1.0000
  C   C494      1.0  0.34602  0.81311  0.92690  1.0000
  H   H828      1.0  0.43721  0.68757  0.99326  1.0000
  C   C495      1.0  0.33831  0.60648  0.84926  1.0000
  H   H829      1.0  0.46333  0.57072  0.98313  1.0000
  C   C496      1.0  0.56290  0.74543  0.50649  1.0000
  H   H830      1.0  0.38474  0.84560  0.98990  1.0000
  H   H831      1.0  0.46653  0.89578  0.54894  1.0000
  S   S149      1.0  0.34429  0.79000  0.66115  1.0000
  H   H832      1.0  0.62000  0.58182  0.72983  1.0000
  C   C497      1.0  0.43811  0.53060  0.79615  1.0000
  H   H833      1.0  0.38474  0.97436  0.54055  1.0000
  H   H834      1.0  0.61482  0.89101  0.53354  1.0000
  C   C498      1.0  0.33250  0.51154  0.57960  1.0000
  H   H835      1.0  0.50660  0.53593  0.58492  1.0000
  C   C499      1.0  0.40812  0.85342  0.88165  1.0000
  H   H836      1.0  0.45082  0.61686  0.55171  1.0000
  H   H837      1.0  0.40451  0.55889  0.80692  1.0000
  H   H838      1.0  0.34989  0.57190  0.95609  1.0000
  H   H839      1.0  0.35806  0.53480  0.88805  1.0000
  H   H840      1.0  0.39685  0.68546  0.99514  1.0000
  H   H841      1.0  0.35760  0.68495  0.83300  1.0000
  H   H842      1.0  0.39287  0.90949  0.57091  1.0000
  H   H843      1.0  0.41001  0.85459  0.85538  1.0000
  H   H844      1.0  0.37888  0.61399  0.80941  1.0000
  N   N35       1.0  0.63239  0.53678  0.71857  1.0000
  H   H845      1.0  0.41043  0.58018  0.73921  1.0000
  H   H846      1.0  0.48295  0.93031  0.54384  1.0000
  H   H847      1.0  0.39273  0.66489  0.84686  1.0000
  C   C500      1.0  0.38706  0.97056  0.56513  1.0000
  C   C501      1.0  0.40461  0.53107  0.51616  1.0000
  H   H848      1.0  0.52160  0.76467  0.53438  1.0000
  H   H849      1.0  0.42771  0.88648  0.58583  1.0000
  H   H850      1.0  0.42851  0.88995  0.52015  1.0000
  H   H851      1.0  0.63252  0.86546  0.51218  1.0000
  H   H852      1.0  0.33835  0.71926  0.71010  1.0000
  C   C502      1.0  0.39169  0.96030  0.62858  1.0000
  C   C503      1.0  0.61041  0.56508  0.71259  1.0000
  C   C504      1.0  0.35716  0.67240  0.81287  1.0000
  H   H853      1.0  0.35119  0.83426  0.76491  1.0000
  C   C505      1.0  0.40357  0.53104  0.73313  1.0000
  H   H854      1.0  0.46455  0.52024  0.55846  1.0000
  H   H855      1.0  0.36352  0.66929  0.87854  1.0000
  H   H856      1.0  0.44376  0.56353  0.73811  1.0000
  N   N36       1.0  0.39905  0.53189  0.76821  1.0000
  H   H857      1.0  0.60211  0.57056  0.69209  1.0000
  C   C506      1.0  0.37468  0.86060  0.93298  1.0000
  C   C507      1.0  0.62978  0.55696  0.70022  1.0000
  H   H858      1.0  0.36318  0.85839  0.95436  1.0000
  H   H859      1.0  0.41264  0.59643  0.77640  1.0000
  H   H860      1.0  0.41091  0.84600  0.94233  1.0000
  H   H861      1.0  0.37030  0.89724  0.51925  1.0000
  H   H862      1.0  0.43652  0.95270  0.53561  1.0000
  C   C508      1.0  0.39079  0.83033  0.94401  1.0000
  H   H863      1.0  0.44283  0.54546  0.81546  1.0000
  H   H864      1.0  0.39084  0.81227  0.93609  1.0000
  H   H865      1.0  0.59433  0.51399  0.73710  1.0000
  H   H866      1.0  0.39491  0.87455  0.94047  1.0000
  H   H867      1.0  0.38194  0.61328  0.96702  1.0000
  C   C509      1.0  0.33475  0.53986  0.85185  1.0000
  H   H868      1.0  0.63659  0.91075  0.50485  1.0000
  S   S150      1.0  0.33750  0.75475  0.86709  1.0000
  C   C510      1.0  0.48284  0.63571  0.52039  1.0000
  H   H869      1.0  0.43177  0.55410  0.69873  1.0000
  H   H870      1.0  0.34172  0.82719  0.70630  1.0000
  H   H871      1.0  0.34035  0.53044  0.56813  1.0000
  C   C511      1.0  0.37454  0.60310  0.98944  1.0000
  H   H872      1.0  0.52212  0.62580  0.50603  1.0000
  H   H873      1.0  0.58496  0.51551  0.67855  1.0000
  C   C512      1.0  0.55063  0.97185  0.53320  1.0000
  H   H874      1.0  0.54816  0.95814  0.51324  1.0000
  H   H875      1.0  0.44305  0.92218  0.50800  1.0000
  C   C513      1.0  0.33890  0.53043  0.88036  1.0000
  H   H876      1.0  0.33859  0.59733  0.82594  1.0000
  H   H877      1.0  0.34829  0.52290  0.97380  1.0000
  H   H878      1.0  0.66307  0.52638  0.76433  1.0000
  H   H879      1.0  0.63037  0.51095  0.77713  1.0000
  H   H880      1.0  0.44184  0.62820  0.51770  1.0000
  H   H881      1.0  0.47110  0.73342  0.97995  1.0000
  C   C514      1.0  0.44693  0.83783  0.49843  1.0000
  H   H882      1.0  0.60001  0.85206  0.49864  1.0000
  H   H883      1.0  0.48862  0.60190  0.99496  1.0000
  S   S151      1.0  0.68476  0.12629  0.36107  1.0000
  S   S152      1.0  0.69458  0.09896  0.44454  1.0000
  H   H884      1.0  0.70551  0.11321  0.23491  1.0000
  H   H885      1.0  0.75757  0.14745  0.22954  1.0000
  S   S153      1.0  0.70062  0.21931  0.15278  1.0000
  Fe  Fe77      1.0  0.77810  0.35734  0.20445  1.0000
  S   S154      1.0  0.76920  0.36069  0.15327  1.0000
  S   S155      1.0  0.75440  0.32394  0.23463  1.0000
  Fe  Fe78      1.0  0.82496  0.41023  0.21012  1.0000
  S   S156      1.0  0.82101  0.41861  0.15850  1.0000
  S   S157      1.0  0.85586  0.43298  0.24876  1.0000
  Fe  Fe79      1.0  0.77889  0.40109  0.16781  1.0000
  S   S158      1.0  0.75241  0.41463  0.14721  1.0000
  Fe  Fe80      1.0  0.81149  0.37754  0.14707  1.0000
  S   S159      1.0  0.82384  0.36083  0.10613  1.0000
  S   S160      1.0  0.78362  0.39609  0.21982  1.0000
  S   S161      1.0  0.81953  0.37074  0.19764  1.0000
  C   C515      1.0  0.72936  0.15239  0.20002  1.0000
  H   H886      1.0  0.68845  0.27570  0.13671  1.0000
  C   C516      1.0  0.83044  0.35864  0.04204  1.0000
  C   C517      1.0  0.82506  0.37135  0.06690  1.0000
  C   C518      1.0  0.81999  0.39143  0.05981  1.0000
  C   C519      1.0  0.82045  0.39876  0.02808  1.0000
  H   H887      1.0  0.75455  0.21921  0.45389  1.0000
  H   H888      1.0  0.83485  0.34342  0.04748  1.0000
  H   H889      1.0  0.81595  0.40143  0.07881  1.0000
  H   H890      1.0  0.82182  0.48389  0.30287  1.0000
  C   C520      1.0  0.66920  0.43506  0.03987  1.0000
  C   C521      1.0  0.70262  0.40176  0.15715  1.0000
  C   C522      1.0  0.72657  0.40831  0.17139  1.0000
  C   C523      1.0  0.72942  0.40917  0.20462  1.0000
  C   C524      1.0  0.70809  0.40230  0.22342  1.0000
  H   H891      1.0  0.72170  0.26672  0.05805  1.0000
  C   C525      1.0  0.68679  0.30331  0.17026  1.0000
  H   H892      1.0  0.74805  0.41527  0.21581  1.0000
  C   C526      1.0  0.74077  0.29478  0.21227  1.0000
  C   C527      1.0  0.74921  0.29319  0.18189  1.0000
  C   C528      1.0  0.73716  0.26981  0.16387  1.0000
  C   C529      1.0  0.71629  0.24825  0.17587  1.0000
  C   C530      1.0  0.70797  0.25001  0.20620  1.0000
  C   C531      1.0  0.72042  0.27306  0.22455  1.0000
  H   H893      1.0  0.76520  0.30987  0.17247  1.0000
  H   H894      1.0  0.74387  0.26849  0.14059  1.0000
  H   H895      1.0  0.69215  0.23360  0.21583  1.0000
  H   H896      1.0  0.71398  0.27417  0.24811  1.0000
  H   H897      1.0  0.67088  0.26117  0.17092  1.0000
  H   H898      1.0  0.77530  0.34715  0.03003  1.0000
  H   H899      1.0  0.71420  0.44735  0.05877  1.0000
  C   C532      1.0  0.83557  0.46058  0.27901  1.0000
  C   C533      1.0  0.84926  0.44710  0.28230  1.0000
  C   C534      1.0  0.85898  0.44587  0.31268  1.0000
  C   C535      1.0  0.85480  0.45778  0.33960  1.0000
  H   H900      1.0  0.82831  0.46196  0.25567  1.0000
  H   H901      1.0  0.86954  0.43540  0.31539  1.0000
  C   C536      1.0  0.83196  0.47303  0.30578  1.0000
  N   N37       1.0  0.76506  0.39228  0.32180  1.0000
  C   C537      1.0  0.76958  0.37155  0.30636  1.0000
  C   C538      1.0  0.73890  0.37906  0.33570  1.0000
  C   C539      1.0  0.78547  0.40585  0.34799  1.0000
  C   C540      1.0  0.76690  0.41057  0.29634  1.0000
  C   C541      1.0  0.79743  0.37981  0.29737  1.0000
  C   C542      1.0  0.71620  0.36420  0.31148  1.0000
  C   C543      1.0  0.78031  0.42122  0.37426  1.0000
  C   C544      1.0  0.76007  0.43185  0.30518  1.0000
  H   H902      1.0  0.76378  0.35495  0.32218  1.0000
  H   H903      1.0  0.75755  0.36342  0.28399  1.0000
  H   H904      1.0  0.73461  0.39275  0.34912  1.0000
  H   H905      1.0  0.73815  0.36524  0.35374  1.0000
  H   H906      1.0  0.78913  0.39168  0.36099  1.0000
  H   H907      1.0  0.80399  0.41936  0.33766  1.0000
  H   H908      1.0  0.78668  0.42078  0.28769  1.0000
  H   H909      1.0  0.75520  0.40004  0.27449  1.0000
  H   H910      1.0  0.79764  0.36397  0.28290  1.0000
  H   H911      1.0  0.80569  0.39704  0.28280  1.0000
  H   H912      1.0  0.81023  0.38343  0.31872  1.0000
  H   H913      1.0  0.71707  0.34785  0.29936  1.0000
  H   H914      1.0  0.69803  0.35588  0.32435  1.0000
  H   H915      1.0  0.71490  0.37705  0.29362  1.0000
  H   H916      1.0  0.79789  0.43165  0.38997  1.0000
  H   H917      1.0  0.76484  0.40833  0.38977  1.0000
  H   H918      1.0  0.77608  0.43606  0.36493  1.0000
  H   H919      1.0  0.77727  0.44957  0.31464  1.0000
  H   H920      1.0  0.74459  0.42610  0.32217  1.0000
  H   H921      1.0  0.75267  0.43682  0.28340  1.0000
  C   C545      1.0  0.92490  0.49731  0.37942  1.0000
  H   H922      1.0  0.76052  0.27503  0.08496  1.0000
  H   H923      1.0  0.74148  0.14674  0.27512  1.0000
  H   H924      1.0  0.80120  0.28824  0.43606  1.0000
  H   H925      1.0  0.68924  0.15839  0.18588  1.0000
  H   H926      1.0  0.69789  0.42964  0.09203  1.0000
  H   H927      1.0  0.79204  0.30643  0.02887  1.0000
  H   H928      1.0  0.73696  0.20280  0.20269  1.0000
  H   H929      1.0  0.66972  0.30715  0.26859  1.0000
  H   H930      1.0  0.70414  0.24993  0.00006  1.0000
  C   C546      1.0  0.75355  0.31049  0.00166  1.0000
  Fe  Fe81      1.0  0.85016  0.48737  0.41996  1.0000
  H   H931      1.0  0.67212  0.33958  0.22195  1.0000
  H   H932      1.0  0.74981  0.32482  0.07426  1.0000
  C   C547      1.0  0.68058  0.40479  0.01496  1.0000
  H   H933      1.0  0.68438  0.45998  0.08402  1.0000
  H   H934      1.0  0.73699  0.18214  0.25606  1.0000
  Fe  Fe82      1.0  0.84657  0.45325  0.47468  1.0000
  N   N38       1.0  0.71013  0.15087  0.22376  1.0000
  H   H935      1.0  0.70500  0.19698  0.21160  1.0000
  H   H936      1.0  0.69309  0.31800  0.15169  1.0000
  C   C548      1.0  0.70158  0.42739  0.06657  1.0000
  H   H937      1.0  0.94876  0.47844  0.37253  1.0000
  C   C549      1.0  0.75681  0.16143  0.21316  1.0000
  H   H938      1.0  0.78053  0.26845  0.05880  1.0000
  C   C550      1.0  0.73401  0.30499  0.07665  1.0000
  C   C551      1.0  0.68420  0.33513  0.20595  1.0000
  C   C552      1.0  0.68128  0.39472  0.17591  1.0000
  C   C553      1.0  0.68383  0.39423  0.20904  1.0000
  S   S162      1.0  0.87297  0.46800  0.43403  1.0000
  H   H939      1.0  0.68821  0.39119  0.01765  1.0000
  C   C554      1.0  0.66635  0.44954  0.06926  1.0000
  H   H940      1.0  0.77603  0.43074  0.48983  1.0000
  H   H941      1.0  0.86172  0.45612  0.36297  1.0000
  C   C555      1.0  0.71850  0.41427  0.06609  1.0000
  H   H942      1.0  0.70493  0.30625  0.18218  1.0000
  H   H943      1.0  0.71024  0.40261  0.24909  1.0000
  H   H944      1.0  0.71651  0.30668  0.08057  1.0000
  H   H945      1.0  0.71600  0.14890  0.29453  1.0000
  C   C556      1.0  0.71029  0.34384  0.22344  1.0000
  C   C557      1.0  0.84149  0.47167  0.33618  1.0000
  C   C558      1.0  0.82469  0.32426  0.46074  1.0000
  H   H946      1.0  0.68244  0.11464  0.16988  1.0000
  H   H947      1.0  0.77292  0.24647  0.43058  1.0000
  H   H948      1.0  0.81695  0.41459  0.02284  1.0000
  H   H949      1.0  0.76896  0.16256  0.19294  1.0000
  H   H950      1.0  0.73738  0.29713  0.09893  1.0000
  N   N39       1.0  0.80410  0.27880  0.48488  1.0000
  S   S163      1.0  0.82148  0.46945  0.45786  1.0000
  C   C559      1.0  0.72334  0.19932  0.22185  1.0000
  H   H951      1.0  0.70815  0.39384  0.07234  1.0000
  H   H952      1.0  0.93919  0.48380  0.28952  1.0000
  H   H953      1.0  0.72299  0.13326  0.18793  1.0000
  H   H954      1.0  0.70950  0.33062  0.24201  1.0000
  H   H955      1.0  0.90733  0.48082  0.36839  1.0000
  H   H956      1.0  0.71689  0.36283  0.23570  1.0000
  H   H957      1.0  0.71233  0.28494  0.03328  1.0000
  H   H958      1.0  0.71575  0.11887  0.29116  1.0000
  H   H959      1.0  0.68315  0.16346  0.31990  1.0000
  H   H960      1.0  0.73458  0.42434  0.08409  1.0000
  N   N40       1.0  0.67032  0.30740  0.19388  1.0000
  H   H961      1.0  0.72509  0.34639  0.20625  1.0000
  H   H962      1.0  0.68423  0.12123  0.25459  1.0000
  C   C560      1.0  0.71890  0.17620  0.24192  1.0000
  C   C561      1.0  0.82517  0.38556  0.00315  1.0000
  H   H963      1.0  0.76566  0.18097  0.22471  1.0000
  H   H964      1.0  0.72740  0.41608  0.04270  1.0000
  H   H965      1.0  0.68827  0.34834  0.18594  1.0000
  H   H966      1.0  0.74116  0.33608  0.02477  1.0000
  H   H967      1.0  0.70456  0.17414  0.25974  1.0000
  H   H968      1.0  0.70048  0.40155  0.13158  1.0000
  H   H969      1.0  0.81731  0.33719  0.45233  1.0000
  H   H970      1.0  0.79457  0.29522  0.08682  1.0000
  C   C562      1.0  0.72878  0.28606  0.04776  1.0000
  H   H971      1.0  0.73071  0.16542  0.18061  1.0000
  S   S164      1.0  0.82508  0.41299  0.49301  1.0000
  C   C563      1.0  0.77765  0.28385  0.07032  1.0000
  C   C564      1.0  0.94217  0.48655  0.39189  1.0000
  H   H972      1.0  0.73161  0.21707  0.23753  1.0000
  N   N41       1.0  0.67674  0.41465  0.04672  1.0000
  Fe  Fe83      1.0  0.67119  0.10857  0.40930  1.0000
  C   C565      1.0  0.77906  0.25374  0.48293  1.0000
  H   H973      1.0  0.82638  0.27002  0.45154  1.0000
  H   H974      1.0  0.68339  0.28946  0.22851  1.0000
  C   C566      1.0  0.67121  0.11739  0.18874  1.0000
  H   H975      1.0  0.67192  0.14664  0.22082  1.0000
  C   C567      1.0  0.77618  0.30186  0.04540  1.0000
  H   H976      1.0  0.76376  0.16788  0.48709  1.0000
  C   C568      1.0  0.77365  0.23661  0.45235  1.0000
  C   C569      1.0  0.68563  0.14458  0.20515  1.0000
  C   C570      1.0  0.92846  0.48793  0.30795  1.0000
  H   H977      1.0  0.78767  0.22948  0.44991  1.0000
  C   C571      1.0  0.66846  0.14461  0.31116  1.0000
  C   C572      1.0  0.82995  0.36531  0.01019  1.0000
  H   H978      1.0  0.68334  0.44989  0.02439  1.0000
  N   N42       1.0  0.75098  0.29165  0.02678  1.0000
  H   H979      1.0  0.83986  0.32580  0.44468  1.0000
  S   S165      1.0  0.83592  0.48718  0.36912  1.0000
  C   C573      1.0  0.74613  0.26692  0.00957  1.0000
  C   C574      1.0  0.67468  0.27632  0.15360  1.0000
  H   H980      1.0  0.78158  0.32033  0.05834  1.0000
  C   C575      1.0  0.75832  0.33723  0.01357  1.0000
  H   H981      1.0  0.82157  0.25417  0.48813  1.0000
  C   C576      1.0  0.72062  0.13676  0.27836  1.0000
  H   H982      1.0  0.91893  0.47048  0.32215  1.0000
  H   H983      1.0  0.69544  0.42097  0.00167  1.0000
  Fe  Fe84      1.0  0.68820  0.12452  0.47990  1.0000
  H   H984      1.0  0.78418  0.29713  0.46207  1.0000
  C   C577      1.0  0.70433  0.12959  0.24677  1.0000
  S   S166      1.0  0.66666  0.13533  0.44396  1.0000
  H   H985      1.0  0.74433  0.25224  0.02684  1.0000
  C   C578      1.0  0.66535  0.28928  0.22073  1.0000
  H   H986      1.0  0.66589  0.36346  0.05157  1.0000
  H   H987      1.0  0.93090  0.47055  0.40784  1.0000
  H   H988      1.0  0.78296  0.49672  0.48685  1.0000
  C   C579      1.0  0.80241  0.29632  0.46060  1.0000
  C   C580      1.0  0.82544  0.27277  0.47770  1.0000
  H   H989      1.0  0.76240  0.25725  0.48492  1.0000
  H   H990      1.0  0.87817  0.42734  0.48436  1.0000
  H   H991      1.0  0.66786  0.37116  0.09387  1.0000
  H   H992      1.0  0.91382  0.49099  0.29481  1.0000
  H   H993      1.0  0.86655  0.28653  0.48076  1.0000
  H   H994      1.0  0.83348  0.33241  0.48457  1.0000
  C   C581      1.0  0.85278  0.29233  0.49026  1.0000
  H   H995      1.0  0.85911  0.31224  0.48306  1.0000
  H   H996      1.0  0.66518  0.10177  0.20591  1.0000
  Fe  Fe85      1.0  0.67053  0.48743  0.65906  1.0000
  Fe  Fe86      1.0  0.88098  0.33476  0.57789  1.0000
  S   S167      1.0  0.89381  0.30543  0.56885  1.0000
  S   S168      1.0  0.89333  0.36436  0.54021  1.0000
  Fe  Fe87      1.0  0.85781  0.31185  0.64090  1.0000
  S   S169      1.0  0.86919  0.28082  0.63570  1.0000
  S   S170      1.0  0.83148  0.31303  0.67865  1.0000
  Fe  Fe88      1.0  0.90735  0.31307  0.62017  1.0000
  S   S171      1.0  0.94676  0.32006  0.63966  1.0000
  Fe  Fe89      1.0  0.85452  0.27629  0.58434  1.0000
  S   S172      1.0  0.83328  0.23998  0.55088  1.0000
  S   S173      1.0  0.89643  0.34404  0.62860  1.0000
  S   S174      1.0  0.84129  0.30562  0.59038  1.0000
  S   S175      1.0  0.70093  0.41797  0.92256  1.0000
  Fe  Fe90      1.0  0.82695  0.35017  0.85658  1.0000
  S   S176      1.0  0.82168  0.33494  0.90633  1.0000
  S   S177      1.0  0.85740  0.34996  0.82523  1.0000
  Fe  Fe91      1.0  0.78254  0.36169  0.86123  1.0000
  S   S178      1.0  0.77300  0.34616  0.90993  1.0000
  S   S179      1.0  0.76095  0.37875  0.83564  1.0000
  Fe  Fe92      1.0  0.81529  0.36819  0.92064  1.0000
  S   S180      1.0  0.82601  0.39566  0.96379  1.0000
  Fe  Fe93      1.0  0.77987  0.31456  0.89142  1.0000
  S   S181      1.0  0.75277  0.27438  0.90600  1.0000
  S   S182      1.0  0.82465  0.38548  0.87230  1.0000
  S   S183      1.0  0.78548  0.32787  0.84120  1.0000
  C   C582      1.0  0.71867  0.40845  0.89844  1.0000
  C   C583      1.0  0.73372  0.39888  0.91250  1.0000
  C   C584      1.0  0.74743  0.39048  0.89343  1.0000
  C   C585      1.0  0.74609  0.39154  0.86024  1.0000
  C   C586      1.0  0.73191  0.40214  0.84630  1.0000
  C   C587      1.0  0.71795  0.41031  0.86534  1.0000
  H   H997      1.0  0.73455  0.39768  0.93814  1.0000
  H   H998      1.0  0.75897  0.38323  0.90453  1.0000
  H   H999      1.0  0.73122  0.40347  0.82067  1.0000
  H   H1000     1.0  0.70679  0.41823  0.85444  1.0000
  C   C588      1.0  0.72429  0.25996  0.88222  1.0000
  C   C589      1.0  0.70175  0.24026  0.89406  1.0000
  H   H1001     1.0  0.84127  0.19915  0.58715  1.0000
  H   H1002     1.0  0.75556  0.45548  0.55483  1.0000
  C   C590      1.0  0.70144  0.25623  0.83206  1.0000
  C   C591      1.0  0.72401  0.26785  0.85121  1.0000
  H   H1003     1.0  0.70184  0.23367  0.91784  1.0000
  H   H1004     1.0  0.69929  0.33610  0.83073  1.0000
  H   H1005     1.0  0.70154  0.26219  0.80790  1.0000
  H   H1006     1.0  0.74124  0.28258  0.84161  1.0000
  C   C592      1.0  0.97799  0.34000  0.62507  1.0000
  H   H1007     1.0  0.73773  0.44303  0.58948  1.0000
  C   C593      1.0  0.98202  0.34511  0.59270  1.0000
  H   H1008     1.0  0.76910  0.46988  0.59395  1.0000
  H   H1009     1.0  0.96573  0.33806  0.57599  1.0000
  C   C594      1.0  0.84017  0.32498  0.71873  1.0000
  C   C595      1.0  0.82287  0.32951  0.73632  1.0000
  C   C596      1.0  0.82810  0.33749  0.76875  1.0000
  C   C597      1.0  0.85071  0.34095  0.78406  1.0000
  C   C598      1.0  0.86820  0.33674  0.76642  1.0000
  C   C599      1.0  0.86299  0.32880  0.73387  1.0000
  H   H1010     1.0  0.80526  0.32679  0.72477  1.0000
  H   H1011     1.0  0.81468  0.34108  0.78181  1.0000
  H   H1012     1.0  0.88582  0.33951  0.77800  1.0000
  H   H1013     1.0  0.87648  0.32540  0.72062  1.0000
  C   C600      1.0  0.81952  0.44936  0.84813  1.0000
  H   H1014     1.0  0.82194  0.45231  0.96128  1.0000
  H   H1015     1.0  0.92864  0.21700  0.61957  1.0000
  C   C601      1.0  0.80020  0.21738  0.54157  1.0000
  C   C602      1.0  0.78018  0.21645  0.55926  1.0000
  C   C603      1.0  0.75443  0.19789  0.55119  1.0000
  H   H1016     1.0  0.91349  0.23539  0.66960  1.0000
  H   H1017     1.0  0.78450  0.22976  0.57947  1.0000
  H   H1018     1.0  0.73923  0.19717  0.56542  1.0000
  C   C604      1.0  0.66459  0.47527  0.74320  1.0000
  H   H1019     1.0  0.71896  0.23436  0.97927  1.0000
  C   C605      1.0  0.84884  0.36802  0.53794  1.0000
  C   C606      1.0  0.87428  0.37830  0.52903  1.0000
  H   H1020     1.0  0.76805  0.42957  0.61052  1.0000
  H   H1021     1.0  0.85244  0.22451  0.61731  1.0000
  H   H1022     1.0  0.79062  0.44371  0.88029  1.0000
  H   H1023     1.0  0.84075  0.35166  0.55305  1.0000
  H   H1024     1.0  0.81547  0.42054  0.55973  1.0000
  C   C607      1.0  0.83390  0.48486  0.90908  1.0000
  H   H1025     1.0  0.69035  0.31240  0.92269  1.0000
  C   C608      1.0  0.76778  0.43243  0.58447  1.0000
  H   H1026     1.0  0.94609  0.24883  0.58177  1.0000
  H   H1027     1.0  0.83676  0.44716  0.84504  1.0000
  H   H1028     1.0  0.84959  0.49260  0.56976  1.0000
  H   H1029     1.0  0.85973  0.45479  0.96286  1.0000
  H   H1030     1.0  0.78297  0.39988  0.56594  1.0000
  H   H1031     1.0  0.82635  0.30724  0.52289  1.0000
  N   N43       1.0  0.90749  0.23434  0.59841  1.0000
  H   H1032     1.0  0.77663  0.44134  0.96447  1.0000
  C   C609      1.0  0.92689  0.24544  0.57279  1.0000
  C   C610      1.0  0.84171  0.47398  0.58183  1.0000
  C   C611      1.0  0.88151  0.22761  0.58384  1.0000
  H   H1033     1.0  0.91424  0.19333  0.56659  1.0000
  H   H1034     1.0  0.68499  0.36745  0.82121  1.0000
  C   C612      1.0  0.77322  0.42460  0.51484  1.0000
  C   C613      1.0  0.85780  0.21168  0.60363  1.0000
  H   H1035     1.0  0.67985  0.28633  0.80596  1.0000
  H   H1036     1.0  0.81748  0.48775  0.90126  1.0000
  H   H1037     1.0  0.69628  0.47995  0.77372  1.0000
  H   H1038     1.0  0.87354  0.48509  0.94288  1.0000
  C   C614      1.0  0.67091  0.34893  0.83090  1.0000
  H   H1039     1.0  0.80910  0.20016  0.50141  1.0000
  H   H1040     1.0  0.88072  0.24548  0.57831  1.0000
  H   H1041     1.0  0.87811  0.21759  0.56000  1.0000
  H   H1042     1.0  0.69885  0.30017  0.85366  1.0000
  H   H1043     1.0  0.67373  0.27834  0.87686  1.0000
  H   H1044     1.0  0.80756  0.27564  0.53565  1.0000
  H   H1045     1.0  0.83956  0.49374  0.93368  1.0000
  H   H1046     1.0  0.89682  0.20316  0.63134  1.0000
  H   H1047     1.0  0.81399  0.37058  0.53325  1.0000
  H   H1048     1.0  0.93794  0.28691  0.57787  1.0000
  C   C615      1.0  0.80623  0.41396  0.60910  1.0000
  H   H1049     1.0  0.80859  0.39646  0.60874  1.0000
  H   H1050     1.0  0.88448  0.46222  0.93582  1.0000
  H   H1051     1.0  0.85973  0.19837  0.61995  1.0000
  H   H1052     1.0  0.75374  0.42090  0.52071  1.0000
  N   N44       1.0  0.82542  0.45646  0.90989  1.0000
  C   C616      1.0  0.80975  0.44562  0.93899  1.0000
  C   C617      1.0  0.84753  0.45081  0.91198  1.0000
  C   C618      1.0  0.80826  0.44182  0.88123  1.0000
  H   H1053     1.0  0.80499  0.43604  0.82991  1.0000
  H   H1054     1.0  0.71312  0.30341  0.90897  1.0000
  H   H1055     1.0  0.69236  0.40406  0.77831  1.0000
  C   C619      1.0  0.90460  0.24594  0.65799  1.0000
  H   H1056     1.0  0.73592  0.30286  0.98603  1.0000
  H   H1057     1.0  0.80088  0.42418  0.93841  1.0000
  C   C620      1.0  0.67884  0.22928  0.87531  1.0000
  S   S184      1.0  0.67774  0.46339  0.62284  1.0000
  H   H1058     1.0  0.84021  0.42978  0.91383  1.0000
  H   H1059     1.0  0.80158  0.42081  0.88294  1.0000
  H   H1060     1.0  0.79258  0.30584  0.55370  1.0000
  C   C621      1.0  0.86719  0.46425  0.94009  1.0000
  C   C622      1.0  0.84433  0.40019  0.50742  1.0000
  C   C623      1.0  0.67866  0.23748  0.84437  1.0000
  H   H1061     1.0  0.81142  0.46222  0.61565  1.0000
  H   H1062     1.0  0.67178  0.30935  0.78913  1.0000
  H   H1063     1.0  0.78697  0.31217  0.51385  1.0000
  H   H1064     1.0  0.93661  0.26541  0.62874  1.0000
  N   N45       1.0  0.66829  0.30958  0.85917  1.0000
  C   C624      1.0  0.80753  0.28973  0.51852  1.0000
  C   C625      1.0  0.81332  0.46447  0.58944  1.0000
  H   H1065     1.0  0.79088  0.41066  0.62570  1.0000
  H   H1066     1.0  0.76795  0.28035  0.52974  1.0000
  N   N46       1.0  0.77971  0.25091  0.80180  1.0000
  C   C626      1.0  0.75072  0.23673  0.80011  1.0000
  C   C627      1.0  0.78841  0.27147  0.77740  1.0000
  C   C628      1.0  0.78820  0.26363  0.83469  1.0000
  C   C629      1.0  0.78925  0.23179  0.79588  1.0000
  C   C630      1.0  0.73757  0.21664  0.82567  1.0000
  C   C631      1.0  0.77727  0.26181  0.74311  1.0000
  C   C632      1.0  0.81725  0.27992  0.84170  1.0000
  C   C633      1.0  0.81580  0.24209  0.78111  1.0000
  H   H1067     1.0  0.74315  0.25060  0.80151  1.0000
  H   H1068     1.0  0.74323  0.22601  0.77677  1.0000
  H   H1069     1.0  0.80958  0.28202  0.77603  1.0000
  H   H1070     1.0  0.78327  0.28661  0.78446  1.0000
  H   H1071     1.0  0.77947  0.27617  0.83967  1.0000
  H   H1072     1.0  0.78140  0.24915  0.85348  1.0000
  H   H1073     1.0  0.78994  0.22258  0.81844  1.0000
  H   H1074     1.0  0.77568  0.21553  0.77956  1.0000
  H   H1075     1.0  0.74519  0.20293  0.82724  1.0000
  H   H1076     1.0  0.73912  0.22594  0.84946  1.0000
  H   H1077     1.0  0.71671  0.20529  0.81935  1.0000
  H   H1078     1.0  0.78918  0.27635  0.72590  1.0000
  H   H1079     1.0  0.77689  0.24348  0.73616  1.0000
  H   H1080     1.0  0.75760  0.25926  0.74036  1.0000
  H   H1081     1.0  0.82056  0.29080  0.86479  1.0000
  H   H1082     1.0  0.82709  0.29442  0.82369  1.0000
  H   H1083     1.0  0.82629  0.26753  0.84464  1.0000
  H   H1084     1.0  0.81528  0.24685  0.75580  1.0000
  H   H1085     1.0  0.82151  0.22682  0.78142  1.0000
  H   H1086     1.0  0.83115  0.25920  0.79418  1.0000
  C   C634      1.0  0.90878  0.21122  0.61047  1.0000
  H   H1087     1.0  0.85338  0.47745  0.60426  1.0000
  H   H1088     1.0  0.71598  0.33345  0.89775  1.0000
  H   H1089     1.0  0.66506  0.36790  0.74499  1.0000
  H   H1090     1.0  0.68082  0.42635  0.78884  1.0000
  H   H1091     1.0  0.81301  0.45057  0.52672  1.0000
  H   H1092     1.0  0.90989  0.26953  0.61801  1.0000
  S   S185      1.0  0.71509  0.15658  0.51695  1.0000
  C   C635      1.0  0.75731  0.45150  0.58016  1.0000
  C   C636      1.0  0.68952  0.42014  0.76995  1.0000
  C   C637      1.0  0.67401  0.41352  0.73780  1.0000
  H   H1093     1.0  0.76219  0.34971  0.99280  1.0000
  H   H1094     1.0  0.77434  0.40650  0.51541  1.0000
  H   H1095     1.0  0.82328  0.46901  0.84246  1.0000
  C   C638      1.0  0.76813  0.18136  0.50711  1.0000
  H   H1096     1.0  0.72337  0.26426  0.96579  1.0000
  H   H1097     1.0  0.75312  0.41340  0.57392  1.0000
  H   H1098     1.0  0.69660  0.34963  0.86761  1.0000
  N   N47       1.0  0.79379  0.44039  0.57136  1.0000
  H   H1099     1.0  0.67444  0.43169  0.73068  1.0000
  C   C639      1.0  0.78822  0.45261  0.94451  1.0000
  H   H1100     1.0  0.82471  0.43014  0.61848  1.0000
  H   H1101     1.0  0.80969  0.48086  0.58471  1.0000
  C   C640      1.0  0.79956  0.41839  0.57490  1.0000
  C   C641      1.0  0.70190  0.31316  0.90208  1.0000
  H   H1102     1.0  0.85851  0.45550  0.89003  1.0000
  C   C642      1.0  0.74811  0.18006  0.52518  1.0000
  H   H1103     1.0  0.79287  0.46397  0.53316  1.0000
  H   H1104     1.0  0.90979  0.26335  0.67354  1.0000
  H   H1105     1.0  0.83405  0.35534  0.99122  1.0000
  H   H1106     1.0  0.88091  0.18161  0.57588  1.0000
  H   H1107     1.0  0.92148  0.23176  0.55183  1.0000
  H   H1108     1.0  0.68533  0.40957  0.71991  1.0000
  H   H1109     1.0  0.91320  0.26895  0.54710  1.0000
  C   C643      1.0  0.79424  0.44618  0.53659  1.0000
  H   H1110     1.0  0.77791  0.24157  0.50329  1.0000
  C   C644      1.0  0.91532  0.25477  0.62483  1.0000
  H   H1111     1.0  0.70890  0.43669  0.76676  1.0000
  H   H1112     1.0  0.94576  0.27733  0.54120  1.0000
  H   H1113     1.0  0.86251  0.49057  0.87155  1.0000
  H   H1114     1.0  0.77482  0.44802  0.92369  1.0000
  C   C645      1.0  0.93086  0.27109  0.55933  1.0000
  C   C646      1.0  0.68521  0.29917  0.87187  1.0000
  S   S186      1.0  0.68443  0.48891  0.71052  1.0000
  H   H1115     1.0  0.90054  0.17206  0.59827  1.0000
  H   H1116     1.0  0.66987  0.46085  0.82058  1.0000
  C   C647      1.0  0.79391  0.19974  0.51538  1.0000
  H   H1117     1.0  0.98063  0.41231  0.61150  1.0000
  C   C648      1.0  0.88473  0.39967  0.50968  1.0000
  C   C649      1.0  0.67586  0.47323  0.77200  1.0000
  C   C650      1.0  0.68510  0.33620  0.84745  1.0000
  H   H1118     1.0  0.88351  0.23429  0.65745  1.0000
  H   H1119     1.0  0.84495  0.46056  0.56640  1.0000
  C   C651      1.0  0.90060  0.18850  0.58603  1.0000
  H   H1120     1.0  0.76266  0.27028  0.99470  1.0000
  C   C652      1.0  0.78735  0.29728  0.52901  1.0000
  C   C653      1.0  0.83376  0.37876  0.52677  1.0000
  Fe  Fe94      1.0  0.68820  0.49586  0.58975  1.0000
  H   H1121     1.0  0.99681  0.34542  0.67133  1.0000
  S   S187      1.0  0.87158  0.48708  0.50727  1.0000
  H   H1122     1.0  0.90442  0.40769  0.50280  1.0000
  H   H1123     1.0  0.99705  0.40193  0.58505  1.0000
  C   C654      1.0  0.86990  0.41080  0.49921  1.0000
  H   H1124     1.0  0.76937  0.31355  0.98561  1.0000
  C   C655      1.0  0.75386  0.49818  0.51552  1.0000
  H   H1125     1.0  0.85448  0.29213  0.51660  1.0000
  H   H1126     1.0  0.79620  0.47327  0.95170  1.0000
  C   C656      1.0  0.72166  0.25347  0.98762  1.0000
  H   H1127     1.0  0.73926  0.49027  0.49649  1.0000
  H   H1128     1.0  0.89209  0.51823  0.38602  1.0000
  S   S188      1.0  0.94013  0.51660  0.46631  1.0000
  S   S189      1.0  0.87458  0.52409  0.44954  1.0000
  C   C657      1.0  0.94745  0.51198  0.32841  1.0000
  H   H1129     1.0  0.98749  0.53254  0.38180  1.0000
  H   H1130     1.0  0.68918  0.91883  0.45328  1.0000
  H   H1131     1.0  0.95752  0.56082  0.36328  1.0000
  C   C658      1.0  0.95688  0.54344  0.37381  1.0000
  H   H1132     1.0  0.91704  0.55127  0.38275  1.0000
  C   C659      1.0  0.97183  0.54323  0.46340  1.0000
  C   C660      1.0  0.97669  0.56863  0.45997  1.0000
  H   H1133     1.0  0.96085  0.57272  0.45942  1.0000
  C   C661      1.0  0.90305  0.53350  0.36923  1.0000
  C   C662      1.0  0.99286  0.53850  0.46406  1.0000
  H   H1134     1.0  0.95592  0.52843  0.31219  1.0000
  C   C663      1.0  0.91553  0.52411  0.34415  1.0000
  H   H1135     1.0  0.95212  0.54426  0.39915  1.0000
  H   H1136     1.0  0.88895  0.53788  0.35694  1.0000
  N   N48       1.0  0.93656  0.51897  0.35668  1.0000
  H   H1137     1.0  0.92280  0.53868  0.32537  1.0000
  Fe  Fe95      1.0  0.89674  0.50395  0.46532  1.0000
  C   C664      1.0  0.98495  0.54876  0.37366  1.0000
  H   H1138     1.0  0.91853  0.50352  0.40094  1.0000
  H   H1139     1.0  0.98946  0.51900  0.46669  1.0000
  C   C665      1.0  0.67106  0.91064  0.46627  1.0000
  H   H1140     1.0  0.95861  0.50112  0.40673  1.0000
  H   H1141     1.0  0.89943  0.50647  0.33254  1.0000
  H   H1142     1.0  0.67595  0.91518  0.49216  1.0000
  H   H1143     1.0  0.96347  0.50848  0.33584  1.0000
  Fe  Fe96      1.0  0.84712  0.50403  0.48901  1.0000
  H   H1144     1.0  0.99282  0.55400  0.34963  1.0000
  H   H1145     1.0  0.99693  0.56555  0.39013  1.0000
  C   C666      1.0  0.79819  0.51302  0.53383  1.0000
  C   C667      1.0  0.79212  0.51970  0.56362  1.0000
  S   S190      1.0  0.68414  0.52178  0.62749  1.0000
  H   H1146     1.0  0.85178  0.51378  0.87323  1.0000
  C   C668      1.0  0.76708  0.51544  0.56944  1.0000
  C   C669      1.0  0.67928  0.55264  0.70281  1.0000
  H   H1147     1.0  0.68153  0.56911  0.68867  1.0000
  S   S191      1.0  0.83030  0.51907  0.52781  1.0000
  H   H1148     1.0  0.69125  0.54514  0.69180  1.0000
  H   H1149     1.0  0.80696  0.52845  0.58229  1.0000
  C   C670      1.0  0.85674  0.50141  0.88808  1.0000
  H   H1150     1.0  0.76293  0.52106  0.59231  1.0000
  H   H1151     1.0  0.87378  0.51481  0.90327  1.0000
  H   H1152     1.0  0.68750  0.55935  0.72732  1.0000
  C   C671      1.0  0.74777  0.50492  0.54526  1.0000
  C   C672      1.0  0.77872  0.50187  0.50994  1.0000
  S   S192      1.0  0.71631  0.50116  0.54995  1.0000
