data_image0
_chemical_formula_structural       FeS2FeS2FeSFeHS2FeS2FeS2FeSFeS3FeS2H5CFeS2H2CHCHSHCHCHCH2C2H3C6H4C4HCHCH3C2HCH2CH4C7H4C3H2C2NH2C2HFeHCHCH3CH3CH3NH4CNH3NHNC8H11CH2CH5CHCH2SHCH4SH2CHCH3C2H6C2H2CH8FeH4C2HCHC2H3C2H2C2H2C2H3CH2C2H7CH2NHCSC2H9SCHC2FeS2FeS2FeHFeS3FeS2FeS2FeSFeS3HS3HSH2C3H5C2HC2H4C6H5C3HNHC2H2CH3C2H2C2HC7H3CHCFeCH3CH2CNC5HC2H10CHCH7NC5HC2H7CH5C2HCH7CH3C2H2C2HNHC2H2SH4CH4CH2CHCH5CHCH8NHCNHCHFeCH2CH8CHC2H7CH5NCHC2H3FeSFe2S2FeSFeS3HSC2H2FeS2FeS2FeHCSHCFeS2FeS2FeSFeS3H3C6H2CHC3H3C6H5SHCHC3HC3H2CHS3CHC6H5C2HCH4CH4C2H2CH10CH3C3HC2HSH2C2HCHNCFeH3CHNC3HCHCHC3H2C2HCHCHCSH5NH4CH2NHCHCH2NC8H20CH5CH6SH5CFeH6CH2CH2C2HCH8NHCHCH2C2HNC2HFeS2FeSHFeSFeS3FeS2FeS2FeS2FeS2FeSFeS3C2HC2H2C4H4C4H3C6H10C6H4C2H8C2H4NC4H2C2FeH10CHCH7CH2C3HC2H3CH2CHCH2CH5CH2CFeH6NC8H8SCH10NCH4CH2CHNHNC2HCH3CSCHC2HC3SH2C2H5CH3CHCHC2H3SCHCH2C2HCSH9CHFeS2FeS2FeSFeS3FeS2FeS2FeSFeS3FeS2H2FeH2CFeS2HCNH4SCH2NCH2CHSH3CHC6H5C2H2CHC5HC2H3C6H4CH3CH6CHFeHCHC3H3SH2NHCHCFeNC8H21CH3SNHCH3CS2HC2HCHCH2CHCH2CHCH3NC8H10CH5CH3C5HCHCFeCH7C4H2C2H7CH2SNH2FeS2FeS2FeSFeS3FeS2FeS2FeSFeS3HSHCSCHCH2C3H2C6H6C3H2C3H2C2H4C6H4C7H2C3H4FeHN2H15SH3CHNH3C2HC3HCH3CH3CHCH4NC8H13C2H5CH4CHCHCH7CH4CH6NC5H7C2HCH4CH2CHC2HCH4CHCHCH8C2H5FeH9CFeS2FeS2FeSFeS3FeS2HFeSFeHCHFeS2H5CFeS2FeS2FeSFeS3HCH3C2HSHC7H4C2HCHC4H5SCHCHC2HC3HCH2CH4C6H4CNC8H10C2H7CHC2HCSH3CHCH4C2NC8H21C3H3SCHSC2H9CH2CH2SCH2CH3NCH2C2FeHCFeCNHCH3NCHCHSHCHC2H4CH3C2H4NCHCH2CH4C2H2SCHCH3C2HCH2C2FeS2FeS2FeSFeS4HSHSFeS2FeS2FeSFeS3HCH2C3H2C3H2C6H7C2HCH5C6H4C4H4FeNC8H20NC8H3NH19C2H2CHCH4C3HC2H4CH3C2H2CH2CHC2H2NHCHCH10CHNC8H20S2H2CH5FeHC2H3C2HCH4C2HC5HFeS2FeS2FeSFeS3FeS2FeS2FeSFeS3C3HCHFeS2FeS2C2H2SHCHC2H3C2H2C2H3CHC3H5FeC2NC3H2C6H4C6H4C4HCHCH2CHCHC2NH3CH2C2H2CH3NH2CH4CHC2HCH2CH8CHCHCH3C2HCH12C2HCHNCH2C4HCH2CHC2H2CFeHNHCH2CH2SH11SH4CH3CH3CH3C2H5CH3CH2C2SCFeH3CHCSH2NHCH4C3H2C2H2C2H5FeS2FeSHFeSFeS3FeS2FeS2FeSFeS3HSCSH2NC2H4CHCH5C3H2C6H4C3H4C7H4C4NC4HC3H10CH5CH3NC5HC2HSH10CH6CHCH2CH2CNH2CH4CHC2H2CHC2H2CH2C2H3C2H4CFeNH3CHC3HCHCH8CH3SH3SH4CH4CHCHCH2CFeCH5CH3C3FeS2FeS2FeSFeS3HFeS2H2CH6FeSHFeS2FeS2FeS2FeSFeS3C4H3C3H4C6H5SH2SCSH2CH3CHC2HC6H4C3H2CH3CH3C2NH3CH2CHCHCSHNCHCH2CH6CH3CH3C2H4CH2SH4C2HNH3SCH2C2H3FeHCH2CH2CH3C2H4CH3FeC2H2NC8H8CH11NC6HCH2CHCFeCH13NHNC2H3C3HCSHCHCH4NCFeS2FeS2FeSFeS3FeS2HSFeS2FeS2FeSFeS3H3C5H3C2H2FeCHC7H7C3SC2HC6H6C3NH4CHCH6C3HC3HC2H2C2H2SH4CH7CH2CH2CH3NHFeHCH4NC8H20NC4HCHCH8CHCH5CH6C2H3SH11C2H3NC3HC2H2CH6CHCH2NH3SHC2H2SH3C2H5C3HCH4CFeS2FeS2FeSFeS3FeS2FeS2FeSFeS3FeS2FeCFeS3FeS2FeSFeSCSC5HC2H3CHSH2C7H6CH2C2H2C2H2CHCH3CHC6H4CH5SH3CH3CH2C2H8C2HCH4NH2C4HSCH8CH3NC8H13CH6C2H3C4H5CH3NH6C2HC2H8NCHCHCH2C2H3NH2C3HCH8CH2NC2H3CH3Fe2S2FeS2FeSFeS3FeS2FeS2FeSFeS4HSCHSHCH4C3HCH2CH2C6H9C3HCH2C2H4CNC6H4C4H3NC2HC4H3SH3CHCHSCHCHCHCNHC2H2CHCH5CH2CH7CH4CHNC8H8CH13C2H2FeH3NHC3H2CH5CH11NC7H6CH4SH2CFeHCH2NH3C4H5CH3CH4C2HFeS2FeS2FeSFeS3FeS2HCH2SCFeS2HCH2SCFeS2FeS2FeCFeS3CHCHCHCHC7H7FeHCNH4FeH3C4HC3H2C6H4C3HNH4C3HCHCH2C2SNCHCH2CH2CH8CH4CHCH2CH5SHC3HCHCH3NC8H22CSH4CHCFeH2SHNFeH8C2HCHCHCHC2H5SHC2H3CHCHCH2CH3C2H2CH7C3NCHCH5FeS2FeS2FeSFeS3H2SFeHSFeS2FeS2FeHFeS3CH6C4H4C6H5C3H6C6H6C2H3C4H3NC5HC2HCH7CH3NH9CNCHCHCHC3H8CH3C3H4NC8H12CH12C2H2CHCH2C2H2C2HCHC2HCH2C2H7C2H3CH3CHCHC2SH
_chemical_formula_sum              "Fe192 S384 H2304 C1344 N96"
_cell_length_a       58.4886
_cell_length_b       58.412
_cell_length_c       72.8826
_cell_angle_alpha    86.2976
_cell_angle_beta     86.3692
_cell_angle_gamma    86.0439

_space_group_name_H-M_alt    "P 1"
_space_group_IT_number       1

loop_
  _space_group_symop_operation_xyz
  'x, y, z'

loop_
  _atom_site_type_symbol
  _atom_site_label
  _atom_site_symmetry_multiplicity
  _atom_site_fract_x
  _atom_site_fract_y
  _atom_site_fract_z
  _atom_site_occupancy
  Fe  Fe1       1.0  0.42483  0.08515  0.15800  1.0000
  S   S1        1.0  0.43120  0.04655  0.15871  1.0000
  S   S2        1.0  0.43603  0.10619  0.13164  1.0000
  Fe  Fe2       1.0  0.41671  0.08430  0.20071  1.0000
  S   S3        1.0  0.42247  0.04615  0.20394  1.0000
  S   S4        1.0  0.41018  0.10516  0.22613  1.0000
  Fe  Fe3       1.0  0.45158  0.05033  0.18312  1.0000
  S   S5        1.0  0.48488  0.03003  0.18765  1.0000
  Fe  Fe4       1.0  0.40122  0.04560  0.17954  1.0000
  H   H1        1.0  0.31512  0.03933  0.25192  1.0000
  S   S6        1.0  0.44769  0.08880  0.18130  1.0000
  S   S7        1.0  0.39299  0.08401  0.17739  1.0000
  Fe  Fe5       1.0  0.14362  0.37795  0.15592  1.0000
  S   S8        1.0  0.11083  0.38482  0.14159  1.0000
  S   S9        1.0  0.17710  0.36779  0.13965  1.0000
  Fe  Fe6       1.0  0.12023  0.38902  0.19430  1.0000
  S   S10       1.0  0.08595  0.39629  0.18210  1.0000
  S   S11       1.0  0.11974  0.40067  0.22375  1.0000
  Fe  Fe7       1.0  0.09491  0.36528  0.16607  1.0000
  S   S12       1.0  0.06781  0.34036  0.16317  1.0000
  Fe  Fe8       1.0  0.10513  0.41501  0.15902  1.0000
  S   S13       1.0  0.09258  0.44983  0.14786  1.0000
  S   S14       1.0  0.12804  0.35606  0.17974  1.0000
  S   S15       1.0  0.13906  0.40996  0.17173  1.0000
  Fe  Fe9       1.0  0.21870  0.36277  0.03298  1.0000
  S   S16       1.0  0.25465  0.35872  0.04226  1.0000
  S   S17       1.0  0.18620  0.36462  0.05215  1.0000
  H   H2        1.0  0.20549  0.40863  0.09411  1.0000
  H   H3        1.0  0.48999  0.11580  0.15959  1.0000
  H   H4        1.0  0.37007  0.08550  0.06270  1.0000
  H   H5        1.0  0.02302  0.43520  0.21151  1.0000
  H   H6        1.0  0.17975  0.45551  0.08669  1.0000
  C   C1        1.0  0.25745  0.48684  0.02901  1.0000
  Fe  Fe10      1.0  0.40404  0.17077  0.03538  1.0000
  S   S18       1.0  0.42281  0.20320  0.03221  1.0000
  S   S19       1.0  0.38702  0.15573  0.06223  1.0000
  H   H7        1.0  0.32951  0.03753  0.21076  1.0000
  H   H8        1.0  0.03119  0.48760  0.19253  1.0000
  C   C2        1.0  0.16248  0.47829  0.16984  1.0000
  H   H9        1.0  0.30337  0.48898  0.05504  1.0000
  C   C3        1.0  0.21671  0.42329  0.05945  1.0000
  H   H10       1.0  0.35715  0.01070  0.22356  1.0000
  S   S20       1.0  0.37559  0.01823  0.18349  1.0000
  H   H11       1.0  0.13747  0.34308  0.13193  1.0000
  C   C4        1.0  0.10676  0.49947  0.19072  1.0000
  H   H12       1.0  0.47278  0.06796  0.21033  1.0000
  C   C5        1.0  0.36084  0.03117  0.24782  1.0000
  H   H13       1.0  0.16890  0.46003  0.17204  1.0000
  C   C6        1.0  0.18157  0.43755  0.09240  1.0000
  H   H14       1.0  0.16820  0.30502  0.07823  1.0000
  H   H15       1.0  0.35358  0.14615  0.03436  1.0000
  C   C7        1.0  0.04858  0.41192  0.22321  1.0000
  C   C8        1.0  0.35882  0.06468  0.22518  1.0000
  H   H16       1.0  0.17116  0.42658  0.08476  1.0000
  H   H17       1.0  0.38429  0.02356  0.22384  1.0000
  H   H18       1.0  0.02145  0.40832  0.14121  1.0000
  C   C9        1.0  0.18023  0.36905  0.11521  1.0000
  C   C10       1.0  0.16245  0.37792  0.10433  1.0000
  C   C11       1.0  0.16469  0.37668  0.08505  1.0000
  C   C12       1.0  0.18498  0.36723  0.07633  1.0000
  C   C13       1.0  0.20317  0.35924  0.08712  1.0000
  C   C14       1.0  0.20072  0.36001  0.10647  1.0000
  H   H19       1.0  0.14678  0.38536  0.11079  1.0000
  H   H20       1.0  0.15057  0.38304  0.07681  1.0000
  H   H21       1.0  0.21885  0.35180  0.08061  1.0000
  H   H22       1.0  0.21462  0.35314  0.11474  1.0000
  C   C15       1.0  0.10642  0.47595  0.19553  1.0000
  C   C16       1.0  0.10165  0.46072  0.18243  1.0000
  C   C17       1.0  0.09717  0.46897  0.16449  1.0000
  C   C18       1.0  0.38664  0.11107  0.02470  1.0000
  H   H23       1.0  0.01136  0.34127  0.09774  1.0000
  C   C19       1.0  0.25881  0.46273  0.02668  1.0000
  H   H24       1.0  0.10162  0.44256  0.18629  1.0000
  C   C20       1.0  0.29082  0.48189  0.04711  1.0000
  H   H25       1.0  0.21763  0.47025  0.10171  1.0000
  H   H26       1.0  0.30046  0.04057  0.21829  1.0000
  H   H27       1.0  0.36461  0.07631  0.25796  1.0000
  C   C21       1.0  0.04187  0.35549  0.15766  1.0000
  C   C22       1.0  0.04195  0.37816  0.15026  1.0000
  H   H28       1.0  0.11432  0.32759  0.14137  1.0000
  C   C23       1.0  0.00614  0.35765  0.20657  1.0000
  H   H29       1.0  0.05801  0.38617  0.14729  1.0000
  H   H30       1.0  0.37692  0.06763  0.22772  1.0000
  C   C24       1.0  0.40271  0.10661  0.26368  1.0000
  H   H31       1.0  0.19301  0.42476  0.03750  1.0000
  H   H32       1.0  0.35746  0.11380  0.05653  1.0000
  H   H33       1.0  0.11015  0.46940  0.20933  1.0000
  H   H34       1.0  0.15867  0.48495  0.18370  1.0000
  C   C25       1.0  0.48447  0.05930  0.12684  1.0000
  C   C26       1.0  0.42185  0.11914  0.11229  1.0000
  C   C27       1.0  0.39797  0.12018  0.11133  1.0000
  C   C28       1.0  0.38762  0.13131  0.09587  1.0000
  C   C29       1.0  0.40099  0.14137  0.08114  1.0000
  C   C30       1.0  0.42486  0.14005  0.08197  1.0000
  C   C31       1.0  0.43518  0.12909  0.09749  1.0000
  H   H35       1.0  0.38748  0.11268  0.12260  1.0000
  H   H36       1.0  0.36914  0.13225  0.09539  1.0000
  H   H37       1.0  0.43538  0.14772  0.07079  1.0000
  H   H38       1.0  0.45365  0.12843  0.09808  1.0000
  C   C32       1.0  0.15031  0.31517  0.10384  1.0000
  C   C33       1.0  0.31774  0.03489  0.22306  1.0000
  C   C34       1.0  0.40869  0.09256  0.24894  1.0000
  H   H39       1.0  0.04907  0.49271  0.17178  1.0000
  H   H40       1.0  0.48807  0.04067  0.13030  1.0000
  C   C35       1.0  0.12520  0.36233  0.24841  1.0000
  C   C36       1.0  0.14755  0.30978  0.14398  1.0000
  N   N1        1.0  0.22280  0.43416  0.07664  1.0000
  H   H41       1.0  0.48353  0.06539  0.15566  1.0000
  H   H42       1.0  0.34871  0.10145  0.22828  1.0000
  C   C37       1.0  0.35577  0.09519  0.05567  1.0000
  C   C38       1.0  0.19820  0.43626  0.04784  1.0000
  H   H43       1.0  0.10609  0.29526  0.10114  1.0000
  Fe  Fe11      1.0  0.26350  0.33675  0.01799  1.0000
  H   H44       1.0  0.21097  0.40566  0.06283  1.0000
  C   C39       1.0  0.09718  0.49251  0.15971  1.0000
  H   H45       1.0  0.00691  0.38918  0.23823  1.0000
  C   C40       1.0  0.27360  0.49647  0.03928  1.0000
  H   H46       1.0  0.32916  0.08661  0.21536  1.0000
  H   H47       1.0  0.25953  0.43070  0.07008  1.0000
  H   H48       1.0  0.08398  0.30566  0.13222  1.0000
  C   C41       1.0  0.47147  0.06723  0.25659  1.0000
  H   H49       1.0  0.14648  0.32738  0.07487  1.0000
  H   H50       1.0  0.24090  0.39167  0.09635  1.0000
  H   H51       1.0  0.02568  0.47571  0.17117  1.0000
  C   C42       1.0  0.03125  0.49114  0.17738  1.0000
  H   H52       1.0  0.12765  0.28109  0.11440  1.0000
  H   H53       1.0  0.09381  0.49889  0.14581  1.0000
  H   H54       1.0  0.47510  0.11637  0.24478  1.0000
  N   N2        1.0  0.34731  0.05318  0.24212  1.0000
  H   H55       1.0  0.41728  0.05781  0.24157  1.0000
  H   H56       1.0  0.04103  0.40911  0.23744  1.0000
  H   H57       1.0  0.24583  0.38973  0.07168  1.0000
  H   H58       1.0  0.23630  0.46377  0.06150  1.0000
  C   C43       1.0  0.35402  0.08693  0.03602  1.0000
  N   N3        1.0  0.12693  0.31845  0.11379  1.0000
  H   H59       1.0  0.40979  0.00465  0.15534  1.0000
  H   H60       1.0  0.12698  0.35199  0.23655  1.0000
  H   H61       1.0  0.30584  0.44744  0.05089  1.0000
  N   N4        1.0  0.36459  0.10137  0.02018  1.0000
  H   H62       1.0  0.20707  0.46795  0.06832  1.0000
  N   N5        1.0  0.35457  0.24168  0.06588  1.0000
  C   C44       1.0  0.33008  0.25108  0.06364  1.0000
  C   C45       1.0  0.35915  0.22223  0.05320  1.0000
  C   C46       1.0  0.36992  0.26084  0.05980  1.0000
  C   C47       1.0  0.35729  0.23399  0.08586  1.0000
  C   C48       1.0  0.32248  0.27324  0.07344  1.0000
  C   C49       1.0  0.34251  0.20275  0.05613  1.0000
  C   C50       1.0  0.39595  0.25504  0.05965  1.0000
  C   C51       1.0  0.37694  0.21555  0.09006  1.0000
  H   H63       1.0  0.32690  0.25476  0.04880  1.0000
  H   H64       1.0  0.31769  0.23822  0.06887  1.0000
  H   H65       1.0  0.37671  0.21403  0.05401  1.0000
  H   H66       1.0  0.35846  0.22884  0.03861  1.0000
  H   H67       1.0  0.36606  0.26784  0.04567  1.0000
  H   H68       1.0  0.36675  0.27549  0.06883  1.0000
  H   H69       1.0  0.35959  0.24901  0.09408  1.0000
  H   H70       1.0  0.34128  0.22641  0.09182  1.0000
  H   H71       1.0  0.30355  0.27636  0.07301  1.0000
  H   H72       1.0  0.32668  0.27201  0.08810  1.0000
  H   H73       1.0  0.32999  0.28851  0.06614  1.0000
  C   C52       1.0  0.22944  0.47334  0.08944  1.0000
  H   H74       1.0  0.34035  0.19651  0.07077  1.0000
  H   H75       1.0  0.48928  0.06037  0.25317  1.0000
  C   C53       1.0  0.46749  0.11915  0.25891  1.0000
  H   H76       1.0  0.40156  0.24087  0.05076  1.0000
  H   H77       1.0  0.40181  0.25149  0.07377  1.0000
  H   H78       1.0  0.38356  0.21854  0.10361  1.0000
  H   H79       1.0  0.39192  0.21536  0.08005  1.0000
  H   H80       1.0  0.37034  0.19809  0.09172  1.0000
  C   C54       1.0  0.49125  0.06593  0.20844  1.0000
  H   H81       1.0  0.24649  0.45538  0.01871  1.0000
  C   C55       1.0  0.41239  0.06883  0.25266  1.0000
  H   H82       1.0  0.18245  0.44158  0.05605  1.0000
  H   H83       1.0  0.48995  0.22526  0.01755  1.0000
  S   S21       1.0  0.28144  0.30009  0.01799  1.0000
  H   H84       1.0  0.44930  0.11486  0.25847  1.0000
  C   C56       1.0  0.11946  0.39938  0.26153  1.0000
  H   H85       1.0  0.35044  0.02042  0.25790  1.0000
  H   H86       1.0  0.14516  0.31345  0.15877  1.0000
  H   H87       1.0  0.16047  0.30024  0.11019  1.0000
  H   H88       1.0  0.02078  0.32775  0.16709  1.0000
  S   S22       1.0  0.27988  0.41797  0.03297  1.0000
  H   H89       1.0  0.10563  0.28769  0.14352  1.0000
  H   H90       1.0  0.18530  0.48209  0.14589  1.0000
  C   C57       1.0  0.29222  0.45823  0.04475  1.0000
  H   H91       1.0  0.03920  0.41855  0.19506  1.0000
  C   C58       1.0  0.15056  0.31110  0.08311  1.0000
  H   H92       1.0  0.24407  0.49790  0.02282  1.0000
  H   H93       1.0  0.06035  0.39694  0.21960  1.0000
  H   H94       1.0  0.35644  0.09411  0.20541  1.0000
  C   C59       1.0  0.25043  0.39854  0.08378  1.0000
  C   C60       1.0  0.34731  0.08799  0.21841  1.0000
  H   H95       1.0  0.16056  0.33025  0.10515  1.0000
  H   H96       1.0  0.08248  0.36019  0.10377  1.0000
  H   H97       1.0  0.40052  0.07948  0.03984  1.0000
  H   H98       1.0  0.17404  0.43804  0.10678  1.0000
  H   H99       1.0  0.32554  0.20819  0.05072  1.0000
  H   H100      1.0  0.08799  0.34737  0.12591  1.0000
  C   C61       1.0  0.46649  0.14529  0.26137  1.0000
  C   C62       1.0  0.24671  0.42494  0.08109  1.0000
  H   H101      1.0  0.33996  0.09107  0.06416  1.0000
  H   H102      1.0  0.36232  0.06916  0.03631  1.0000
  C   C63       1.0  0.02091  0.34530  0.16134  1.0000
  H   H103      1.0  0.13876  0.29791  0.08018  1.0000
  H   H104      1.0  0.12311  0.35365  0.10265  1.0000
  H   H105      1.0  0.32903  0.15243  0.02136  1.0000
  H   H106      1.0  0.32808  0.13016  0.03924  1.0000
  H   H107      1.0  0.26896  0.39395  0.08552  1.0000
  H   H108      1.0  0.03230  0.37777  0.19259  1.0000
  H   H109      1.0  0.11165  0.33362  0.08901  1.0000
  H   H110      1.0  0.14501  0.29132  0.14280  1.0000
  Fe  Fe12      1.0  0.26033  0.38950  0.02243  1.0000
  H   H111      1.0  0.14642  0.47833  0.16258  1.0000
  H   H112      1.0  0.49648  0.09794  0.22013  1.0000
  H   H113      1.0  0.33553  0.08509  0.03401  1.0000
  H   H114      1.0  0.40484  0.27026  0.05368  1.0000
  C   C64       1.0  0.32263  0.04882  0.23951  1.0000
  C   C65       1.0  0.02121  0.39069  0.14678  1.0000
  H   H115      1.0  0.21341  0.43135  0.10613  1.0000
  C   C66       1.0  0.09727  0.29148  0.13033  1.0000
  H   H116      1.0  0.16559  0.31323  0.13955  1.0000
  C   C67       1.0  0.40628  0.09326  0.02981  1.0000
  C   C68       1.0  0.13064  0.32571  0.13281  1.0000
  H   H117      1.0  0.31161  0.06514  0.23871  1.0000
  H   H118      1.0  0.36034  0.05368  0.21329  1.0000
  H   H119      1.0  0.49845  0.11696  0.12581  1.0000
  C   C69       1.0  0.11361  0.33772  0.10349  1.0000
  C   C70       1.0  0.33948  0.13816  0.02826  1.0000
  H   H120      1.0  0.05963  0.42669  0.22309  1.0000
  H   H121      1.0  0.38412  0.12278  0.03603  1.0000
  C   C71       1.0  0.22352  0.45985  0.07305  1.0000
  C   C72       1.0  0.08901  0.34403  0.11113  1.0000
  H   H122      1.0  0.41973  0.10211  0.03621  1.0000
  H   H123      1.0  0.34948  0.18794  0.04824  1.0000
  C   C73       1.0  0.11500  0.29626  0.11410  1.0000
  C   C74       1.0  0.12164  0.38623  0.24591  1.0000
  H   H124      1.0  0.46573  0.06193  0.12503  1.0000
  H   H125      1.0  0.07722  0.33070  0.10849  1.0000
  H   H126      1.0  0.08822  0.27600  0.12776  1.0000
  C   C75       1.0  0.20664  0.42759  0.09278  1.0000
  H   H127      1.0  0.48059  0.09036  0.14122  1.0000
  H   H128      1.0  0.23212  0.42103  0.04975  1.0000
  C   C76       1.0  0.03012  0.41743  0.20900  1.0000
  C   C77       1.0  0.27638  0.44835  0.03457  1.0000
  H   H129      1.0  0.25190  0.43172  0.09400  1.0000
  H   H130      1.0  0.22765  0.49204  0.08540  1.0000
  H   H131      1.0  0.39979  0.12498  0.26097  1.0000
  H   H132      1.0  0.24753  0.46961  0.09298  1.0000
  H   H133      1.0  0.11677  0.41788  0.25973  1.0000
  H   H134      1.0  0.20515  0.45149  0.04005  1.0000
  H   H135      1.0  0.49345  0.06424  0.11350  1.0000
  C   C78       1.0  0.37037  0.01554  0.23247  1.0000
  H   H136      1.0  0.37618  0.03508  0.25506  1.0000
  H   H137      1.0  0.19684  0.48984  0.16610  1.0000
  N   N6        1.0  0.01112  0.40107  0.20951  1.0000
  H   H138      1.0  0.03476  0.37191  0.21661  1.0000
  C   C79       1.0  0.02222  0.37748  0.20613  1.0000
  S   S23       1.0  0.42869  0.15229  0.01579  1.0000
  C   C80       1.0  0.49071  0.07375  0.14257  1.0000
  C   C81       1.0  0.18088  0.49171  0.15846  1.0000
  H   H139      1.0  0.33539  0.08476  0.25510  1.0000
  H   H140      1.0  0.31787  0.01623  0.22715  1.0000
  H   H141      1.0  0.45915  0.15446  0.24903  1.0000
  H   H142      1.0  0.41460  0.08555  0.01734  1.0000
  H   H143      1.0  0.48349  0.15193  0.26273  1.0000
  H   H144      1.0  0.01621  0.34208  0.20183  1.0000
  H   H145      1.0  0.46090  0.05209  0.25873  1.0000
  H   H146      1.0  0.00615  0.40671  0.18044  1.0000
  H   H147      1.0  0.46478  0.07788  0.24470  1.0000
  S   S24       1.0  0.22414  0.39423  0.01399  1.0000
  C   C82       1.0  0.34743  0.06940  0.25749  1.0000
  H   H148      1.0  0.21503  0.50133  0.13123  1.0000
  C   C83       1.0  0.30980  0.28706  0.01387  1.0000
  C   C84       1.0  0.34806  0.12087  0.01389  1.0000
  Fe  Fe13      1.0  0.39323  0.08570  0.37477  1.0000
  S   S25       1.0  0.42879  0.07486  0.38354  1.0000
  S   S26       1.0  0.36196  0.09575  0.39392  1.0000
  Fe  Fe14      1.0  0.40477  0.07059  0.33467  1.0000
  S   S27       1.0  0.44064  0.05847  0.34113  1.0000
  S   S28       1.0  0.39393  0.06002  0.30707  1.0000
  Fe  Fe15      1.0  0.42540  0.04376  0.36770  1.0000
  H   H149      1.0  0.01462  0.38957  0.29606  1.0000
  Fe  Fe16      1.0  0.44095  0.09076  0.35597  1.0000
  S   S29       1.0  0.47326  0.10931  0.34881  1.0000
  S   S30       1.0  0.38922  0.05337  0.36056  1.0000
  S   S31       1.0  0.40560  0.10431  0.34793  1.0000
  Fe  Fe17      1.0  0.09033  0.38847  0.36061  1.0000
  S   S32       1.0  0.10027  0.35193  0.35429  1.0000
  S   S33       1.0  0.05472  0.40468  0.36548  1.0000
  Fe  Fe18      1.0  0.13896  0.40189  0.35765  1.0000
  S   S34       1.0  0.15322  0.36637  0.35105  1.0000
  S   S35       1.0  0.16030  0.43228  0.35975  1.0000
  Fe  Fe19      1.0  0.12412  0.36712  0.33200  1.0000
  S   S36       1.0  0.12576  0.35076  0.30421  1.0000
  Fe  Fe20      1.0  0.12818  0.35409  0.37388  1.0000
  S   S37       1.0  0.13730  0.32341  0.39385  1.0000
  S   S38       1.0  0.11198  0.40358  0.33700  1.0000
  S   S39       1.0  0.11623  0.38964  0.38178  1.0000
  H   H150      1.0  0.36938  0.00961  0.38399  1.0000
  S   S40       1.0  0.35000  0.09120  0.48201  1.0000
  S   S41       1.0  0.28202  0.09054  0.49980  1.0000
  S   S42       1.0  0.11657  0.25206  0.50420  1.0000
  H   H151      1.0  0.18163  0.37132  0.45098  1.0000
  S   S43       1.0  0.13268  0.31596  0.48194  1.0000
  H   H152      1.0  0.02656  0.32765  0.36426  1.0000
  H   H153      1.0  0.03772  0.34870  0.27753  1.0000
  C   C85       1.0  0.12467  0.36499  0.28193  1.0000
  C   C86       1.0  0.12093  0.38887  0.27943  1.0000
  C   C87       1.0  0.12637  0.47217  0.31511  1.0000
  H   H154      1.0  0.15730  0.36817  0.40140  1.0000
  H   H155      1.0  0.13154  0.45631  0.32353  1.0000
  H   H156      1.0  0.11927  0.39923  0.29127  1.0000
  H   H157      1.0  0.32236  0.09118  0.41907  1.0000
  H   H158      1.0  0.41109  0.04076  0.27340  1.0000
  C   C88       1.0  0.14309  0.45674  0.36604  1.0000
  C   C89       1.0  0.15284  0.47783  0.36736  1.0000
  H   H159      1.0  0.06955  0.40630  0.30887  1.0000
  C   C90       1.0  0.10557  0.47496  0.37382  1.0000
  C   C91       1.0  0.11945  0.45535  0.36944  1.0000
  H   H160      1.0  0.17117  0.47895  0.36487  1.0000
  H   H161      1.0  0.01999  0.49963  0.41561  1.0000
  H   H162      1.0  0.22238  0.44623  0.40116  1.0000
  H   H163      1.0  0.11176  0.43918  0.36860  1.0000
  C   C92       1.0  0.13592  0.32167  0.41834  1.0000
  C   C93       1.0  0.14269  0.30075  0.42779  1.0000
  C   C94       1.0  0.14168  0.29852  0.44724  1.0000
  C   C95       1.0  0.13420  0.31738  0.45745  1.0000
  C   C96       1.0  0.12758  0.33834  0.44799  1.0000
  C   C97       1.0  0.12814  0.34042  0.42857  1.0000
  H   H164      1.0  0.14872  0.28613  0.42000  1.0000
  H   H165      1.0  0.14693  0.28233  0.45429  1.0000
  H   H166      1.0  0.12174  0.35301  0.45576  1.0000
  H   H167      1.0  0.12259  0.35652  0.42154  1.0000
  H   H168      1.0  0.14680  0.44998  0.41733  1.0000
  C   C98       1.0  0.14297  0.43282  0.42381  1.0000
  C   C99       1.0  0.03362  0.38512  0.36406  1.0000
  C   C100      1.0  0.03886  0.36139  0.36621  1.0000
  H   H169      1.0  0.18793  0.41539  0.43928  1.0000
  N   N7        1.0  0.17870  0.40827  0.41205  1.0000
  H   H170      1.0  0.05564  0.35488  0.37015  1.0000
  C   C101      1.0  0.40237  0.07318  0.28540  1.0000
  C   C102      1.0  0.39968  0.09700  0.28184  1.0000
  H   H171      1.0  0.39674  0.02987  0.39708  1.0000
  H   H172      1.0  0.09225  0.24129  0.46764  1.0000
  C   C103      1.0  0.13875  0.49770  0.37119  1.0000
  H   H173      1.0  0.39418  0.10792  0.29296  1.0000
  H   H174      1.0  0.15959  0.37416  0.43530  1.0000
  H   H175      1.0  0.48407  0.13010  0.29202  1.0000
  C   C104      1.0  0.35729  0.01146  0.39634  1.0000
  C   C105      1.0  0.45314  0.11391  0.30128  1.0000
  H   H176      1.0  0.14335  0.39815  0.41580  1.0000
  H   H177      1.0  0.47791  0.08526  0.38459  1.0000
  C   C106      1.0  0.03714  0.49626  0.38790  1.0000
  C   C107      1.0  0.17073  0.38414  0.44293  1.0000
  H   H178      1.0  0.22190  0.41997  0.39019  1.0000
  C   C108      1.0  0.03725  0.46586  0.36662  1.0000
  C   C109      1.0  0.35915  0.09250  0.41844  1.0000
  C   C110      1.0  0.37808  0.09221  0.42927  1.0000
  C   C111      1.0  0.37491  0.09141  0.44866  1.0000
  C   C112      1.0  0.35286  0.09055  0.45754  1.0000
  C   C113      1.0  0.33399  0.08997  0.44672  1.0000
  C   C114      1.0  0.33713  0.09114  0.42730  1.0000
  H   H179      1.0  0.39511  0.09335  0.42270  1.0000
  H   H180      1.0  0.38966  0.09181  0.45685  1.0000
  H   H181      1.0  0.31698  0.08889  0.45330  1.0000
  C   C115      1.0  0.02230  0.34599  0.36314  1.0000
  H   H182      1.0  0.22470  0.41979  0.41492  1.0000
  C   C116      1.0  0.40310  0.03393  0.42537  1.0000
  Fe  Fe21      1.0  0.31990  0.08922  0.50386  1.0000
  C   C117      1.0  0.18629  0.39083  0.39811  1.0000
  H   H183      1.0  0.14828  0.41842  0.39742  1.0000
  H   H184      1.0  0.02384  0.36629  0.32609  1.0000
  H   H185      1.0  0.07981  0.33795  0.31610  1.0000
  C   C118      1.0  0.04681  0.33848  0.28857  1.0000
  H   H186      1.0  0.37623  0.04827  0.40886  1.0000
  H   H187      1.0  0.27268  0.19409  0.48387  1.0000
  C   C119      1.0  0.01145  0.39341  0.35995  1.0000
  N   N8        1.0  0.30383  0.15997  0.46473  1.0000
  C   C120      1.0  0.31475  0.16920  0.48077  1.0000
  C   C121      1.0  0.28605  0.17818  0.45830  1.0000
  C   C122      1.0  0.32241  0.15633  0.44966  1.0000
  C   C123      1.0  0.29373  0.13755  0.47120  1.0000
  C   C124      1.0  0.33603  0.15505  0.48783  1.0000
  H   H188      1.0  0.18211  0.35675  0.38913  1.0000
  C   C125      1.0  0.31491  0.14935  0.43105  1.0000
  C   C126      1.0  0.27467  0.12919  0.45989  1.0000
  H   H189      1.0  0.32003  0.18702  0.47728  1.0000
  H   H190      1.0  0.48259  0.00941  0.36060  1.0000
  H   H191      1.0  0.27769  0.17348  0.44602  1.0000
  H   H192      1.0  0.29437  0.19434  0.45367  1.0000
  H   H193      1.0  0.33193  0.17219  0.44680  1.0000
  H   H194      1.0  0.33536  0.14247  0.45403  1.0000
  H   H195      1.0  0.30751  0.12346  0.47213  1.0000
  H   H196      1.0  0.28608  0.13864  0.48551  1.0000
  H   H197      1.0  0.33281  0.13669  0.49056  1.0000
  H   H198      1.0  0.06996  0.30512  0.49631  1.0000
  C   C127      1.0  0.05402  0.31445  0.32538  1.0000
  H   H199      1.0  0.05239  0.38271  0.28692  1.0000
  C   C128      1.0  0.26651  0.18445  0.47273  1.0000
  H   H200      1.0  0.06834  0.24884  0.45377  1.0000
  H   H201      1.0  0.30301  0.16246  0.42441  1.0000
  H   H202      1.0  0.30762  0.13230  0.43230  1.0000
  H   H203      1.0  0.33038  0.14750  0.42144  1.0000
  H   H204      1.0  0.27824  0.11058  0.45777  1.0000
  H   H205      1.0  0.27271  0.13781  0.44613  1.0000
  H   H206      1.0  0.25784  0.13056  0.46787  1.0000
  N   N9        1.0  0.06659  0.29635  0.45776  1.0000
  C   C129      1.0  0.07731  0.30028  0.43848  1.0000
  C   C130      1.0  0.08135  0.27769  0.46744  1.0000
  C   C131      1.0  0.06732  0.31842  0.46733  1.0000
  C   C132      1.0  0.04215  0.29003  0.45637  1.0000
  C   C133      1.0  0.06702  0.32099  0.42678  1.0000
  H   H207      1.0  0.44861  0.09677  0.30738  1.0000
  C   C134      1.0  0.05960  0.31791  0.48792  1.0000
  C   C135      1.0  0.35515  0.01633  0.43040  1.0000
  H   H208      1.0  0.09592  0.30264  0.43889  1.0000
  H   H209      1.0  0.07619  0.28500  0.43029  1.0000
  H   H210      1.0  0.07473  0.27348  0.48174  1.0000
  H   H211      1.0  0.09876  0.28371  0.46903  1.0000
  H   H212      1.0  0.08509  0.32435  0.46614  1.0000
  H   H213      1.0  0.05630  0.33243  0.46068  1.0000
  H   H214      1.0  0.48238  0.00843  0.40542  1.0000
  C   C136      1.0  0.46961  0.08044  0.27437  1.0000
  H   H215      1.0  0.04812  0.32087  0.42635  1.0000
  H   H216      1.0  0.01918  0.46177  0.40432  1.0000
  H   H217      1.0  0.07444  0.32023  0.41238  1.0000
  H   H218      1.0  0.04149  0.39943  0.31762  1.0000
  H   H219      1.0  0.10856  0.47728  0.31980  1.0000
  C   C137      1.0  0.00768  0.37277  0.30040  1.0000
  C   C138      1.0  0.00814  0.46796  0.39284  1.0000
  H   H220      1.0  0.04111  0.27926  0.44440  1.0000
  C   C139      1.0  0.49487  0.08747  0.37823  1.0000
  H   H221      1.0  0.32375  0.05264  0.27839  1.0000
  H   H222      1.0  0.41400  0.04839  0.42102  1.0000
  H   H223      1.0  0.47992  0.03162  0.38780  1.0000
  H   H224      1.0  0.32732  0.03501  0.40383  1.0000
  H   H225      1.0  0.34941  0.04851  0.38923  1.0000
  H   H226      1.0  0.25311  0.19587  0.46600  1.0000
  H   H227      1.0  0.08152  0.32036  0.28929  1.0000
  C   C140      1.0  0.05906  0.39192  0.31425  1.0000
  H   H228      1.0  0.03940  0.48600  0.33995  1.0000
  H   H229      1.0  0.03582  0.31410  0.33058  1.0000
  H   H230      1.0  0.12396  0.43242  0.42498  1.0000
  C   C141      1.0  0.40901  0.05920  0.27076  1.0000
  C   C142      1.0  0.02361  0.35767  0.31299  1.0000
  H   H231      1.0  0.08740  0.47357  0.37671  1.0000
  H   H232      1.0  0.35129  0.15673  0.47812  1.0000
  C   C143      1.0  0.38622  0.03147  0.41026  1.0000
  C   C144      1.0  0.34049  0.03250  0.39238  1.0000
  H   H233      1.0  0.01251  0.28170  0.47463  1.0000
  N   N10       1.0  0.02177  0.48170  0.37822  1.0000
  H   H234      1.0  0.07800  0.36991  0.29566  1.0000
  C   C145      1.0  0.08473  0.25478  0.45792  1.0000
  C   C146      1.0  0.18982  0.43034  0.40592  1.0000
  H   H235      1.0  0.09709  0.25616  0.44575  1.0000
  H   H236      1.0  0.34042  0.16158  0.50107  1.0000
  S   S44       1.0  0.43774  0.00850  0.37842  1.0000
  H   H237      1.0  0.06231  0.33488  0.49320  1.0000
  H   H238      1.0  0.30226  0.17043  0.49293  1.0000
  H   H239      1.0  0.18227  0.39778  0.38399  1.0000
  H   H240      1.0  0.45497  0.15014  0.27336  1.0000
  C   C147      1.0  0.47767  0.11267  0.29201  1.0000
  H   H241      1.0  0.04973  0.45563  0.37535  1.0000
  H   H242      1.0  0.07178  0.33753  0.43167  1.0000
  H   H243      1.0  0.06215  0.49054  0.35472  1.0000
  H   H244      1.0  0.25805  0.16914  0.47889  1.0000
  C   C148      1.0  0.05091  0.47770  0.35030  1.0000
  H   H245      1.0  0.18293  0.43791  0.39279  1.0000
  H   H246      1.0  0.35401  0.04591  0.28197  1.0000
  C   C149      1.0  0.05955  0.37401  0.29953  1.0000
  H   H247      1.0  0.03823  0.27844  0.48639  1.0000
  C   C150      1.0  0.21623  0.42860  0.40299  1.0000
  H   H248      1.0  0.00726  0.41169  0.35816  1.0000
  H   H249      1.0  0.04102  0.31536  0.49026  1.0000
  H   H250      1.0  0.07946  0.34499  0.27299  1.0000
  H   H251      1.0  0.16007  0.39386  0.45335  1.0000
  H   H252      1.0  0.16035  0.48332  0.31201  1.0000
  C   C151      1.0  0.14341  0.49057  0.31768  1.0000
  H   H253      1.0  0.14509  0.49101  0.33270  1.0000
  C   C152      1.0  0.18638  0.40028  0.43095  1.0000
  H   H254      1.0  0.12702  0.46730  0.30060  1.0000
  H   H255      1.0  0.05743  0.30288  0.31391  1.0000
  H   H256      1.0  0.43998  0.12047  0.29163  1.0000
  H   H257      1.0  0.06455  0.30714  0.33678  1.0000
  H   H258      1.0  0.18261  0.35733  0.41341  1.0000
  H   H259      1.0  0.02776  0.45261  0.36066  1.0000
  H   H260      1.0  0.34093  0.07330  0.28687  1.0000
  H   H261      1.0  0.05939  0.34826  0.33288  1.0000
  N   N11       1.0  0.47986  0.10359  0.27300  1.0000
  H   H262      1.0  0.05130  0.48541  0.39429  1.0000
  C   C153      1.0  0.15309  0.41342  0.41173  1.0000
  N   N12       1.0  0.04774  0.35230  0.30522  1.0000
  H   H263      1.0  0.20388  0.39146  0.42987  1.0000
  C   C154      1.0  0.34106  0.05938  0.27715  1.0000
  H   H264      1.0  0.14913  0.43097  0.43793  1.0000
  Fe  Fe22      1.0  0.13084  0.28687  0.50465  1.0000
  C   C155      1.0  0.06107  0.33907  0.31996  1.0000
  H   H265      1.0  0.49354  0.03534  0.40854  1.0000
  H   H266      1.0  0.40458  0.01122  0.35037  1.0000
  C   C156      1.0  0.17625  0.36713  0.40101  1.0000
  H   H267      1.0  0.20520  0.38709  0.39771  1.0000
  H   H268      1.0  0.18568  0.44363  0.41612  1.0000
  H   H269      1.0  0.41491  0.01842  0.42739  1.0000
  H   H270      1.0  0.06665  0.38467  0.32708  1.0000
  H   H271      1.0  0.47744  0.06895  0.28543  1.0000
  H   H272      1.0  0.03657  0.32320  0.29188  1.0000
  H   H273      1.0  0.03070  0.30573  0.45351  1.0000
  H   H274      1.0  0.36536  0.01525  0.44283  1.0000
  C   C157      1.0  0.49122  0.02284  0.39807  1.0000
  H   H275      1.0  0.45094  0.08225  0.27838  1.0000
  C   C158      1.0  0.12676  0.35181  0.26633  1.0000
  C   C159      1.0  0.03107  0.27623  0.47306  1.0000
  H   H276      1.0  0.01470  0.34164  0.31666  1.0000
  H   H277      1.0  0.12964  0.33333  0.26811  1.0000
  H   H278      1.0  0.45232  0.12556  0.31280  1.0000
  H   H279      1.0  0.33123  0.02966  0.37996  1.0000
  H   H280      1.0  0.34746  0.03436  0.43004  1.0000
  H   H281      1.0  0.06226  0.46444  0.34333  1.0000
  H   H282      1.0  0.24367  0.19900  0.51216  1.0000
  C   C160      1.0  0.07029  0.33030  0.27953  1.0000
  H   H283      1.0  0.48815  0.04735  0.35742  1.0000
  H   H284      1.0  0.48871  0.10183  0.30156  1.0000
  H   H285      1.0  0.03175  0.25763  0.47057  1.0000
  H   H286      1.0  0.39405  0.03838  0.43863  1.0000
  H   H287      1.0  0.06751  0.31886  0.26840  1.0000
  N   N13       1.0  0.37054  0.01192  0.41342  1.0000
  C   C161      1.0  0.00608  0.49770  0.36686  1.0000
  H   H288      1.0  0.32144  0.00921  0.44291  1.0000
  C   C162      1.0  0.49743  0.09882  0.36081  1.0000
  C   C163      1.0  0.11500  0.49628  0.37428  1.0000
  H   H289      1.0  0.01102  0.43212  0.38518  1.0000
  H   H290      1.0  0.00760  0.28338  0.51280  1.0000
  H   H291      1.0  0.00369  0.36374  0.28819  1.0000
  Fe  Fe23      1.0  0.38957  0.04742  0.69047  1.0000
  S   S45       1.0  0.37109  0.08105  0.69723  1.0000
  Fe  Fe24      1.0  0.27770  0.11499  0.52286  1.0000
  Fe  Fe25      1.0  0.43098  0.06999  0.67187  1.0000
  S   S46       1.0  0.41568  0.10535  0.67693  1.0000
  S   S47       1.0  0.46569  0.06103  0.65805  1.0000
  Fe  Fe26      1.0  0.40564  0.09036  0.70547  1.0000
  S   S48       1.0  0.41776  0.10417  0.73147  1.0000
  Fe  Fe27      1.0  0.38281  0.09236  0.66797  1.0000
  S   S49       1.0  0.36126  0.11297  0.64667  1.0000
  S   S50       1.0  0.42306  0.05581  0.70056  1.0000
  S   S51       1.0  0.39920  0.05803  0.66101  1.0000
  H   H292      1.0  0.46739  0.13605  0.58716  1.0000
  S   S52       1.0  0.31610  0.11485  0.52597  1.0000
  C   C164      1.0  0.34294  0.01895  0.74808  1.0000
  C   C165      1.0  0.47906  0.07780  0.71859  1.0000
  H   H293      1.0  0.21046  0.48250  0.67630  1.0000
  H   H294      1.0  0.46717  0.12550  0.71428  1.0000
  Fe  Fe28      1.0  0.31200  0.08489  0.54670  1.0000
  S   S53       1.0  0.33067  0.07287  0.57282  1.0000
  S   S54       1.0  0.27347  0.08634  0.54508  1.0000
  Fe  Fe29      1.0  0.12914  0.28439  0.54777  1.0000
  S   S55       1.0  0.11415  0.24981  0.54988  1.0000
  S   S56       1.0  0.13506  0.30895  0.57015  1.0000
  Fe  Fe30      1.0  0.14089  0.24097  0.52681  1.0000
  H   H295      1.0  0.00560  0.37631  0.73157  1.0000
  C   C166      1.0  0.02542  0.23333  0.53545  1.0000
  S   S57       1.0  0.37675  0.01357  0.70137  1.0000
  H   H296      1.0  0.12770  0.44687  0.73906  1.0000
  C   C167      1.0  0.22896  0.18980  0.51736  1.0000
  Fe  Fe31      1.0  0.10996  0.36213  0.71391  1.0000
  S   S58       1.0  0.10872  0.39948  0.70440  1.0000
  S   S59       1.0  0.09352  0.35629  0.74293  1.0000
  Fe  Fe32      1.0  0.12632  0.34666  0.67448  1.0000
  S   S60       1.0  0.12618  0.38319  0.66268  1.0000
  S   S61       1.0  0.13052  0.31434  0.65787  1.0000
  Fe  Fe33      1.0  0.14201  0.39066  0.68888  1.0000
  S   S62       1.0  0.17279  0.41146  0.69079  1.0000
  Fe  Fe34      1.0  0.09290  0.38858  0.67948  1.0000
  S   S63       1.0  0.06082  0.40656  0.66844  1.0000
  S   S64       1.0  0.14466  0.35357  0.69991  1.0000
  S   S65       1.0  0.09199  0.35169  0.68973  1.0000
  H   H297      1.0  0.23461  0.02508  0.58674  1.0000
  H   H298      1.0  0.38676  0.16264  0.61743  1.0000
  H   H299      1.0  0.39719  0.01845  0.73576  1.0000
  C   C168      1.0  0.17218  0.44163  0.68678  1.0000
  C   C169      1.0  0.15192  0.45598  0.68810  1.0000
  C   C170      1.0  0.15292  0.48015  0.68561  1.0000
  C   C171      1.0  0.25004  0.05654  0.58904  1.0000
  C   C172      1.0  0.19409  0.47527  0.67981  1.0000
  C   C173      1.0  0.19319  0.45147  0.68288  1.0000
  H   H300      1.0  0.13560  0.44850  0.69118  1.0000
  H   H301      1.0  0.07132  0.35385  0.59313  1.0000
  C   C174      1.0  0.01830  0.39064  0.66590  1.0000
  H   H302      1.0  0.20887  0.44055  0.68182  1.0000
  C   C175      1.0  0.03777  0.39017  0.67614  1.0000
  C   C176      1.0  0.03935  0.37551  0.69198  1.0000
  C   C177      1.0  0.02298  0.35938  0.69636  1.0000
  H   H303      1.0  0.44427  0.10151  0.63880  1.0000
  H   H304      1.0  0.05336  0.37644  0.70080  1.0000
  H   H305      1.0  0.07518  0.29974  0.64721  1.0000
  C   C178      1.0  0.13328  0.30985  0.59461  1.0000
  C   C179      1.0  0.13822  0.33026  0.60237  1.0000
  C   C180      1.0  0.13727  0.33197  0.62163  1.0000
  C   C181      1.0  0.13165  0.31312  0.63346  1.0000
  C   C182      1.0  0.12675  0.29264  0.62573  1.0000
  C   C183      1.0  0.12721  0.29111  0.60643  1.0000
  H   H306      1.0  0.14293  0.34490  0.59340  1.0000
  H   H307      1.0  0.14126  0.34778  0.62732  1.0000
  H   H308      1.0  0.12230  0.27797  0.63475  1.0000
  H   H309      1.0  0.12289  0.27548  0.60073  1.0000
  H   H310      1.0  0.42937  0.01803  0.75777  1.0000
  S   S66       1.0  0.25997  0.15167  0.51891  1.0000
  H   H311      1.0  0.23402  0.06695  0.58580  1.0000
  C   C184      1.0  0.38417  0.08681  0.75610  1.0000
  H   H312      1.0  0.05385  0.33065  0.58866  1.0000
  C   C185      1.0  0.31412  0.01542  0.56943  1.0000
  C   C186      1.0  0.04338  0.47134  0.66584  1.0000
  C   C187      1.0  0.27765  0.01509  0.60163  1.0000
  H   H313      1.0  0.04067  0.22443  0.54078  1.0000
  C   C188      1.0  0.00679  0.26647  0.51970  1.0000
  C   C189      1.0  0.06703  0.31229  0.65680  1.0000
  C   C190      1.0  0.06904  0.33530  0.59566  1.0000
  H   H314      1.0  0.03606  0.37295  0.63426  1.0000
  H   H315      1.0  0.47003  0.14395  0.73230  1.0000
  C   C191      1.0  0.14619  0.44987  0.73941  1.0000
  H   H316      1.0  0.12780  0.39991  0.74841  1.0000
  S   S67       1.0  0.31887  0.05922  0.52481  1.0000
  S   S68       1.0  0.15674  0.27533  0.52574  1.0000
  S   S69       1.0  0.10486  0.29824  0.52668  1.0000
  C   C192      1.0  0.44948  0.11019  0.62525  1.0000
  H   H317      1.0  0.46491  0.10660  0.67202  1.0000
  C   C193      1.0  0.33808  0.08458  0.59346  1.0000
  C   C194      1.0  0.35004  0.07008  0.60631  1.0000
  C   C195      1.0  0.35668  0.07835  0.62280  1.0000
  C   C196      1.0  0.35157  0.10136  0.62669  1.0000
  C   C197      1.0  0.33934  0.11582  0.61395  1.0000
  C   C198      1.0  0.33267  0.10753  0.59741  1.0000
  H   H318      1.0  0.35424  0.05229  0.60346  1.0000
  H   H319      1.0  0.36583  0.06691  0.63244  1.0000
  H   H320      1.0  0.33520  0.13362  0.61680  1.0000
  H   H321      1.0  0.32342  0.11889  0.58772  1.0000
  H   H322      1.0  0.13736  0.49124  0.68662  1.0000
  C   C199      1.0  0.20722  0.20194  0.51944  1.0000
  C   C200      1.0  0.43514  0.11933  0.59399  1.0000
  H   H323      1.0  0.17913  0.43097  0.73661  1.0000
  C   C201      1.0  0.44858  0.14033  0.58709  1.0000
  H   H324      1.0  0.47470  0.04951  0.70155  1.0000
  H   H325      1.0  0.44600  0.10407  0.58951  1.0000
  H   H326      1.0  0.41978  0.11931  0.58565  1.0000
  H   H327      1.0  0.15392  0.37322  0.73755  1.0000
  C   C202      1.0  0.48235  0.10869  0.73920  1.0000
  H   H328      1.0  0.17891  0.38539  0.72577  1.0000
  H   H329      1.0  0.43716  0.06713  0.62255  1.0000
  H   H330      1.0  0.40919  0.13431  0.63611  1.0000
  H   H331      1.0  0.04160  0.46570  0.65181  1.0000
  C   C203      1.0  0.48253  0.10007  0.66994  1.0000
  C   C204      1.0  0.19628  0.48692  0.73103  1.0000
  H   H332      1.0  0.28482  0.02935  0.55490  1.0000
  H   H333      1.0  0.19201  0.47464  0.72092  1.0000
  C   C205      1.0  0.40592  0.09548  0.75364  1.0000
  H   H334      1.0  0.39770  0.10030  0.60872  1.0000
  H   H335      1.0  0.40060  0.15363  0.59628  1.0000
  H   H336      1.0  0.46145  0.07582  0.72497  1.0000
  H   H337      1.0  0.17613  0.15749  0.53622  1.0000
  H   H338      1.0  0.42960  0.07184  0.59870  1.0000
  H   H339      1.0  0.26444  0.06689  0.58373  1.0000
  H   H340      1.0  0.05631  0.31170  0.61691  1.0000
  H   H341      1.0  0.05759  0.30241  0.66804  1.0000
  H   H342      1.0  0.24614  0.03680  0.56540  1.0000
  H   H343      1.0  0.42287  0.04523  0.74598  1.0000
  C   C206      1.0  0.19083  0.16666  0.53092  1.0000
  H   H344      1.0  0.13780  0.33261  0.75051  1.0000
  H   H345      1.0  0.46164  0.00490  0.70348  1.0000
  H   H346      1.0  0.02218  0.29213  0.56611  1.0000
  C   C207      1.0  0.24994  0.03317  0.58019  1.0000
  C   C208      1.0  0.21256  0.15450  0.52876  1.0000
  C   C209      1.0  0.00640  0.29676  0.57480  1.0000
  H   H347      1.0  0.02870  0.34909  0.75327  1.0000
  C   C210      1.0  0.41274  0.09726  0.61735  1.0000
  C   C211      1.0  0.23188  0.16596  0.52195  1.0000
  H   H348      1.0  0.38188  0.04035  0.74819  1.0000
  S   S70       1.0  0.16000  0.20494  0.53006  1.0000
  H   H349      1.0  0.40558  0.09613  0.63188  1.0000
  H   H350      1.0  0.02456  0.48684  0.68847  1.0000
  C   C212      1.0  0.17409  0.48976  0.68123  1.0000
  C   C213      1.0  0.10944  0.35281  0.76284  1.0000
  H   H351      1.0  0.15563  0.41778  0.72832  1.0000
  C   C214      1.0  0.18790  0.19047  0.52629  1.0000
  H   H352      1.0  0.48357  0.01521  0.64595  1.0000
  N   N14       1.0  0.27132  0.01721  0.58183  1.0000
  C   C215      1.0  0.17540  0.39106  0.75545  1.0000
  Fe  Fe35      1.0  0.28094  0.06198  0.52224  1.0000
  H   H353      1.0  0.25012  0.05435  0.60427  1.0000
  H   H354      1.0  0.20544  0.22020  0.51580  1.0000
  H   H355      1.0  0.48072  0.12222  0.63491  1.0000
  C   C216      1.0  0.00131  0.37520  0.67076  1.0000
  H   H356      1.0  0.49631  0.13030  0.67936  1.0000
  N   N15       1.0  0.05942  0.34318  0.63031  1.0000
  C   C217      1.0  0.42330  0.07300  0.61328  1.0000
  C   C218      1.0  0.07890  0.35631  0.63597  1.0000
  C   C219      1.0  0.02078  0.48232  0.67441  1.0000
  H   H357      1.0  0.46129  0.09741  0.61809  1.0000
  C   C220      1.0  0.06775  0.32626  0.61613  1.0000
  H   H358      1.0  0.01068  0.29494  0.58948  1.0000
  C   C221      1.0  0.48763  0.07838  0.66307  1.0000
  H   H359      1.0  0.21432  0.13623  0.53235  1.0000
  C   C222      1.0  0.17208  0.37683  0.73880  1.0000
  C   C223      1.0  0.00408  0.35904  0.68562  1.0000
  C   C224      1.0  0.46410  0.12978  0.62996  1.0000
  H   H360      1.0  0.07318  0.36661  0.64795  1.0000
  H   H361      1.0  0.28503  0.03123  0.60522  1.0000
  C   C225      1.0  0.41570  0.13784  0.62154  1.0000
  C   C226      1.0  0.16093  0.42699  0.74009  1.0000
  H   H362      1.0  0.09321  0.34441  0.64076  1.0000
  C   C227      1.0  0.05005  0.33004  0.64740  1.0000
  H   H363      1.0  0.21260  0.48027  0.73690  1.0000
  C   C228      1.0  0.28994  0.02770  0.56941  1.0000
  H   H364      1.0  0.44426  0.14557  0.57273  1.0000
  C   C229      1.0  0.02161  0.36641  0.75688  1.0000
  S   S71       1.0  0.05258  0.26975  0.52384  1.0000
  H   H365      1.0  0.38188  0.13512  0.61011  1.0000
  H   H366      1.0  0.04317  0.34210  0.65799  1.0000
  H   H367      1.0  0.03538  0.32009  0.64429  1.0000
  H   H368      1.0  0.19357  0.39590  0.75430  1.0000
  H   H369      1.0  0.32833  0.01140  0.74215  1.0000
  N   N16       1.0  0.42862  0.11667  0.61433  1.0000
  H   H370      1.0  0.46833  0.14176  0.61812  1.0000
  H   H371      1.0  0.25050  0.48918  0.72488  1.0000
  H   H372      1.0  0.04578  0.37037  0.61127  1.0000
  H   H373      1.0  0.00778  0.44861  0.65061  1.0000
  C   C230      1.0  0.13507  0.40431  0.76142  1.0000
  H   H374      1.0  0.08049  0.32067  0.66338  1.0000
  H   H375      1.0  0.42686  0.15230  0.62214  1.0000
  N   N17       1.0  0.49431  0.08718  0.73183  1.0000
  H   H376      1.0  0.26191  0.01355  0.61097  1.0000
  C   C231      1.0  0.39517  0.14759  0.61052  1.0000
  H   H377      1.0  0.30454  0.00671  0.52949  1.0000
  C   C232      1.0  0.08992  0.37281  0.62118  1.0000
  H   H378      1.0  0.15078  0.45978  0.72635  1.0000
  H   H379      1.0  0.40970  0.06060  0.61587  1.0000
  N   N18       1.0  0.18255  0.23138  0.58104  1.0000
  C   C233      1.0  0.20068  0.22266  0.56699  1.0000
  C   C234      1.0  0.17348  0.25478  0.57371  1.0000
  C   C235      1.0  0.16352  0.21506  0.58227  1.0000
  C   C236      1.0  0.19324  0.23199  0.59932  1.0000
  C   C237      1.0  0.21036  0.19758  0.57039  1.0000
  C   C238      1.0  0.19163  0.27263  0.56936  1.0000
  C   C239      1.0  0.14207  0.22137  0.59469  1.0000
  C   C240      1.0  0.18150  0.24878  0.61320  1.0000
  H   H380      1.0  0.19396  0.22419  0.55296  1.0000
  H   H381      1.0  0.21582  0.23331  0.56606  1.0000
  H   H382      1.0  0.16012  0.26273  0.58313  1.0000
  H   H383      1.0  0.16458  0.25316  0.56088  1.0000
  H   H384      1.0  0.15753  0.21297  0.56830  1.0000
  H   H385      1.0  0.16974  0.19760  0.58756  1.0000
  H   H386      1.0  0.19439  0.21450  0.60639  1.0000
  H   H387      1.0  0.21126  0.23710  0.59704  1.0000
  H   H388      1.0  0.22540  0.19429  0.56058  1.0000
  H   H389      1.0  0.21627  0.19405  0.58450  1.0000
  H   H390      1.0  0.19769  0.18515  0.56753  1.0000
  H   H391      1.0  0.18284  0.28999  0.56725  1.0000
  H   H392      1.0  0.20326  0.27335  0.58069  1.0000
  H   H393      1.0  0.20182  0.26921  0.55633  1.0000
  H   H394      1.0  0.14593  0.22031  0.60942  1.0000
  H   H395      1.0  0.12920  0.20855  0.59329  1.0000
  H   H396      1.0  0.13368  0.23829  0.59053  1.0000
  H   H397      1.0  0.18355  0.24117  0.62742  1.0000
  H   H398      1.0  0.16293  0.25275  0.61198  1.0000
  H   H399      1.0  0.19033  0.26509  0.61248  1.0000
  C   C241      1.0  0.04044  0.36000  0.62385  1.0000
  H   H400      1.0  0.08406  0.32633  0.58842  1.0000
  H   H401      1.0  0.09902  0.36339  0.60990  1.0000
  H   H402      1.0  0.01010  0.48923  0.63796  1.0000
  H   H403      1.0  0.49052  0.04078  0.72123  1.0000
  H   H404      1.0  0.32228  0.01749  0.58248  1.0000
  C   C242      1.0  0.41602  0.03234  0.75643  1.0000
  H   H405      1.0  0.32517  0.02390  0.55842  1.0000
  H   H406      1.0  0.10323  0.38184  0.62753  1.0000
  H   H407      1.0  0.05654  0.48429  0.66469  1.0000
  H   H408      1.0  0.07756  0.38642  0.61579  1.0000
  H   H409      1.0  0.47648  0.09016  0.70659  1.0000
  H   H410      1.0  0.02509  0.34717  0.70801  1.0000
  S   S72       1.0  0.26027  0.03062  0.52016  1.0000
  H   H411      1.0  0.18198  0.35997  0.74044  1.0000
  H   H412      1.0  0.37407  0.08556  0.74431  1.0000
  H   H413      1.0  0.08506  0.31845  0.61926  1.0000
  H   H414      1.0  0.05021  0.45663  0.67473  1.0000
  H   H415      1.0  0.44406  0.15577  0.59488  1.0000
  C   C243      1.0  0.02680  0.25518  0.52652  1.0000
  Fe  Fe36      1.0  0.09129  0.26325  0.52711  1.0000
  H   H416      1.0  0.01667  0.40245  0.65392  1.0000
  H   H417      1.0  0.03543  0.37819  0.75273  1.0000
  H   H418      1.0  0.02107  0.33408  0.61166  1.0000
  H   H419      1.0  0.29241  0.04545  0.57297  1.0000
  H   H420      1.0  0.46794  0.04993  0.74909  1.0000
  H   H421      1.0  0.00321  0.20622  0.54461  1.0000
  C   C244      1.0  0.39335  0.02448  0.74990  1.0000
  H   H422      1.0  0.45483  0.01065  0.67050  1.0000
  H   H423      1.0  0.39337  0.01247  0.66333  1.0000
  C   C245      1.0  0.48782  0.05482  0.71049  1.0000
  H   H424      1.0  0.49152  0.11467  0.75073  1.0000
  H   H425      1.0  0.45553  0.13953  0.64136  1.0000
  C   C246      1.0  0.01794  0.34944  0.61984  1.0000
  C   C247      1.0  0.47870  0.12928  0.72505  1.0000
  H   H426      1.0  0.01883  0.43468  0.67873  1.0000
  C   C248      1.0  0.47746  0.06012  0.75801  1.0000
  H   H427      1.0  0.46493  0.10515  0.74518  1.0000
  H   H428      1.0  0.49877  0.00227  0.69406  1.0000
  H   H429      1.0  0.01439  0.44884  0.69914  1.0000
  H   H430      1.0  0.01702  0.49911  0.66681  1.0000
  H   H431      1.0  0.00709  0.36239  0.61188  1.0000
  H   H432      1.0  0.49503  0.13530  0.71853  1.0000
  H   H433      1.0  0.49247  0.02429  0.67675  1.0000
  H   H434      1.0  0.14916  0.46094  0.75066  1.0000
  N   N19       1.0  0.15907  0.41207  0.75774  1.0000
  H   H435      1.0  0.34922  0.03196  0.73752  1.0000
  C   C249      1.0  0.49886  0.07007  0.74778  1.0000
  H   H436      1.0  0.00779  0.34496  0.63283  1.0000
  C   C250      1.0  0.00415  0.22305  0.53760  1.0000
  H   H437      1.0  0.00206  0.31502  0.57085  1.0000
  H   H438      1.0  0.18221  0.48686  0.74196  1.0000
  C   C251      1.0  0.13062  0.34017  0.76295  1.0000
  C   C252      1.0  0.00586  0.44573  0.68641  1.0000
  H   H439      1.0  0.33606  0.02735  0.76066  1.0000
  N   N20       1.0  0.38173  0.00630  0.76213  1.0000
  C   C253      1.0  0.50033  0.11352  0.67405  1.0000
  C   C254      1.0  0.50019  0.00644  0.67896  1.0000
  H   H440      1.0  0.31048  0.00168  0.61236  1.0000
  Fe  Fe37      1.0  0.44559  0.05944  0.84802  1.0000
  S   S73       1.0  0.42617  0.09308  0.84161  1.0000
  S   S74       1.0  0.48178  0.04985  0.83804  1.0000
  Fe  Fe38      1.0  0.40632  0.03973  0.87134  1.0000
  S   S75       1.0  0.38295  0.07164  0.86671  1.0000
  H   H441      1.0  0.46438  0.14612  0.92067  1.0000
  Fe  Fe39      1.0  0.39726  0.07101  0.83701  1.0000
  S   S76       1.0  0.37614  0.07332  0.81160  1.0000
  Fe  Fe40      1.0  0.41387  0.09104  0.87183  1.0000
  S   S77       1.0  0.41661  0.12260  0.88867  1.0000
  S   S78       1.0  0.41781  0.03746  0.84162  1.0000
  S   S79       1.0  0.43610  0.05909  0.87823  1.0000
  Fe  Fe41      1.0  0.23503  0.36956  0.99202  1.0000
  S   S80       1.0  0.27225  0.36724  0.99903  1.0000
  S   S81       1.0  0.22969  0.37535  0.96113  1.0000
  Fe  Fe42      1.0  0.40605  0.16559  0.99312  1.0000
  S   S82       1.0  0.42455  0.19809  0.98713  1.0000
  S   S83       1.0  0.39626  0.13768  0.97472  1.0000
  Fe  Fe43      1.0  0.14906  0.40628  0.85571  1.0000
  S   S84       1.0  0.16702  0.37114  0.85841  1.0000
  S   S85       1.0  0.16650  0.43904  0.84867  1.0000
  Fe  Fe44      1.0  0.10148  0.38881  0.86217  1.0000
  S   S86       1.0  0.11511  0.35194  0.86564  1.0000
  S   S87       1.0  0.06557  0.40524  0.85993  1.0000
  Fe  Fe45      1.0  0.14200  0.36520  0.88277  1.0000
  S   S88       1.0  0.14981  0.34967  0.91156  1.0000
  Fe  Fe46      1.0  0.13903  0.36095  0.84114  1.0000
  S   S89       1.0  0.14713  0.33966  0.81632  1.0000
  S   S90       1.0  0.12599  0.40122  0.88122  1.0000
  S   S91       1.0  0.12353  0.39664  0.83660  1.0000
  C   C255      1.0  0.14724  0.46195  0.85491  1.0000
  C   C256      1.0  0.15432  0.48439  0.85443  1.0000
  H   H442      1.0  0.47376  0.01491  0.87126  1.0000
  C   C257      1.0  0.11060  0.47481  0.86939  1.0000
  C   C258      1.0  0.12501  0.45749  0.86167  1.0000
  H   H443      1.0  0.17145  0.48800  0.84904  1.0000
  H   H444      1.0  0.11884  0.44068  0.86103  1.0000
  C   C259      1.0  0.02463  0.35302  0.87465  1.0000
  C   C260      1.0  0.04381  0.36638  0.87240  1.0000
  C   C261      1.0  0.04194  0.38815  0.86328  1.0000
  C   C262      1.0  0.02087  0.39659  0.85652  1.0000
  H   H445      1.0  0.45748  0.05007  0.91528  1.0000
  H   H446      1.0  0.05994  0.35995  0.87788  1.0000
  H   H447      1.0  0.38988  0.02044  0.78752  1.0000
  H   H448      1.0  0.07912  0.30118  0.80759  1.0000
  C   C263      1.0  0.04609  0.36365  0.81698  1.0000
  C   C264      1.0  0.14210  0.33649  0.77940  1.0000
  C   C265      1.0  0.13283  0.34588  0.79574  1.0000
  C   C266      1.0  0.11203  0.35923  0.79547  1.0000
  H   H449      1.0  0.04172  0.30023  0.79229  1.0000
  H   H450      1.0  0.45620  0.00584  0.85465  1.0000
  H   H451      1.0  0.10476  0.36660  0.80794  1.0000
  C   C267      1.0  0.20737  0.36753  0.94775  1.0000
  C   C268      1.0  0.20988  0.37094  0.92845  1.0000
  C   C269      1.0  0.19262  0.36523  0.91719  1.0000
  C   C270      1.0  0.17245  0.35630  0.92511  1.0000
  C   C271      1.0  0.17019  0.35238  0.94439  1.0000
  C   C272      1.0  0.18749  0.35802  0.95567  1.0000
  H   H452      1.0  0.22530  0.37803  0.92215  1.0000
  H   H453      1.0  0.19491  0.36774  0.90237  1.0000
  H   H454      1.0  0.15478  0.34521  0.95066  1.0000
  H   H455      1.0  0.18536  0.35516  0.97048  1.0000
  H   H456      1.0  0.44627  0.11730  0.93669  1.0000
  H   H457      1.0  0.04368  0.45359  0.83467  1.0000
  H   H458      1.0  0.43582  0.06875  0.92644  1.0000
  H   H459      1.0  0.48022  0.11383  0.96781  1.0000
  H   H460      1.0  0.46021  0.05682  0.93834  1.0000
  H   H461      1.0  0.47254  0.08821  0.86046  1.0000
  C   C273      1.0  0.40982  0.12672  0.91249  1.0000
  C   C274      1.0  0.40101  0.10949  0.92462  1.0000
  C   C275      1.0  0.39677  0.11328  0.94353  1.0000
  C   C276      1.0  0.40146  0.13423  0.95064  1.0000
  C   C277      1.0  0.41022  0.15149  0.93851  1.0000
  C   C278      1.0  0.41420  0.14778  0.91956  1.0000
  H   H462      1.0  0.39739  0.09328  0.91941  1.0000
  H   H463      1.0  0.38987  0.09983  0.95271  1.0000
  H   H464      1.0  0.41381  0.16773  0.94369  1.0000
  H   H465      1.0  0.42091  0.16129  0.91032  1.0000
  C   C279      1.0  0.49121  0.11740  0.92096  1.0000
  C   C280      1.0  0.47629  0.13659  0.91099  1.0000
  H   H466      1.0  0.03143  0.37679  0.81658  1.0000
  H   H467      1.0  0.07880  0.33111  0.80347  1.0000
  H   H468      1.0  0.17396  0.37879  0.76776  1.0000
  H   H469      1.0  0.08518  0.28777  0.84024  1.0000
  H   H470      1.0  0.15816  0.32610  0.77951  1.0000
  H   H471      1.0  0.21917  0.28943  0.94657  1.0000
  H   H472      1.0  0.02691  0.29792  0.82206  1.0000
  H   H473      1.0  0.21101  0.31703  0.93634  1.0000
  C   C281      1.0  0.38795  0.08206  0.78944  1.0000
  C   C282      1.0  0.40976  0.09057  0.78695  1.0000
  H   H474      1.0  0.15137  0.42008  0.95644  1.0000
  H   H475      1.0  0.35794  0.07456  0.77579  1.0000
  H   H476      1.0  0.41967  0.09221  0.79878  1.0000
  H   H477      1.0  0.04156  0.33115  0.78760  1.0000
  N   N21       1.0  0.16011  0.44082  0.91992  1.0000
  C   C283      1.0  0.05502  0.48659  0.84475  1.0000
  C   C284      1.0  0.15433  0.41669  0.92626  1.0000
  C   C285      1.0  0.17143  0.44130  0.90061  1.0000
  C   C286      1.0  0.17497  0.45094  0.93309  1.0000
  H   H478      1.0  0.46651  0.13007  0.90010  1.0000
  H   H479      1.0  0.14846  0.49068  0.92175  1.0000
  C   C287      1.0  0.18635  0.41980  0.89491  1.0000
  C   C288      1.0  0.19720  0.43675  0.93790  1.0000
  Fe  Fe47      1.0  0.44616  0.18549  0.01089  1.0000
  H   H480      1.0  0.35650  0.06327  0.98607  1.0000
  H   H481      1.0  0.16997  0.40498  0.92674  1.0000
  H   H482      1.0  0.14357  0.40955  0.91623  1.0000
  H   H483      1.0  0.15828  0.44363  0.89012  1.0000
  H   H484      1.0  0.20608  0.44589  0.94801  1.0000
  H   H485      1.0  0.18038  0.46806  0.92754  1.0000
  H   H486      1.0  0.16506  0.45418  0.94632  1.0000
  H   H487      1.0  0.04599  0.29470  0.86073  1.0000
  H   H488      1.0  0.14023  0.39493  0.94882  1.0000
  H   H489      1.0  0.05916  0.45368  0.87318  1.0000
  C   C289      1.0  0.03696  0.34038  0.82420  1.0000
  H   H490      1.0  0.37732  0.00335  0.85725  1.0000
  C   C290      1.0  0.16797  0.41057  0.79210  1.0000
  H   H491      1.0  0.19550  0.42374  0.88136  1.0000
  H   H492      1.0  0.17547  0.40540  0.89299  1.0000
  H   H493      1.0  0.19947  0.41399  0.90471  1.0000
  H   H494      1.0  0.12398  0.42154  0.94567  1.0000
  H   H495      1.0  0.33218  0.11430  0.00920  1.0000
  H   H496      1.0  0.20933  0.43504  0.92573  1.0000
  H   H497      1.0  0.09537  0.30471  0.85682  1.0000
  C   C291      1.0  0.06732  0.31698  0.80694  1.0000
  H   H498      1.0  0.06487  0.46753  0.82032  1.0000
  H   H499      1.0  0.08081  0.34003  0.83468  1.0000
  C   C292      1.0  0.37510  0.08049  0.77395  1.0000
  C   C293      1.0  0.04182  0.29882  0.83071  1.0000
  C   C294      1.0  0.41849  0.09765  0.76918  1.0000
  H   H500      1.0  0.48772  0.14928  0.90399  1.0000
  C   C295      1.0  0.35442  0.26421  0.00906  1.0000
  C   C296      1.0  0.32942  0.29964  0.01233  1.0000
  H   H501      1.0  0.05405  0.36314  0.80282  1.0000
  H   H502      1.0  0.02859  0.34323  0.83800  1.0000
  H   H503      1.0  0.13579  0.38823  0.77034  1.0000
  C   C297      1.0  0.05884  0.46379  0.83490  1.0000
  H   H504      1.0  0.47430  0.13193  0.82383  1.0000
  H   H505      1.0  0.01935  0.41345  0.84949  1.0000
  C   C298      1.0  0.03217  0.29659  0.85089  1.0000
  H   H506      1.0  0.03567  0.44100  0.88574  1.0000
  C   C299      1.0  0.14176  0.41361  0.94543  1.0000
  H   H507      1.0  0.10601  0.30830  0.83306  1.0000
  H   H508      1.0  0.12578  0.44778  0.91042  1.0000
  C   C300      1.0  0.46753  0.08519  0.91709  1.0000
  H   H509      1.0  0.23390  0.30038  0.92545  1.0000
  H   H510      1.0  0.32764  0.31810  0.01322  1.0000
  H   H511      1.0  0.06402  0.31277  0.77787  1.0000
  H   H512      1.0  0.06287  0.32881  0.85257  1.0000
  H   H513      1.0  0.48013  0.07971  0.90588  1.0000
  C   C301      1.0  0.05246  0.31521  0.79041  1.0000
  H   H514      1.0  0.45247  0.12865  0.96762  1.0000
  H   H515      1.0  0.05830  0.36988  0.82628  1.0000
  C   C302      1.0  0.07148  0.32445  0.83908  1.0000
  Fe  Fe48      1.0  0.39950  0.21362  0.00891  1.0000
  H   H516      1.0  0.18215  0.45634  0.89795  1.0000
  H   H517      1.0  0.02607  0.33619  0.88177  1.0000
  H   H518      1.0  0.00873  0.47374  0.87524  1.0000
  H   H519      1.0  0.19392  0.41958  0.94455  1.0000
  H   H520      1.0  0.02043  0.48097  0.81881  1.0000
  H   H521      1.0  0.47490  0.13895  0.95230  1.0000
  N   N22       1.0  0.26343  0.30217  0.95657  1.0000
  C   C303      1.0  0.24273  0.31677  0.95037  1.0000
  C   C304      1.0  0.27637  0.31618  0.96865  1.0000
  C   C305      1.0  0.25659  0.28065  0.96746  1.0000
  C   C306      1.0  0.27800  0.29519  0.93981  1.0000
  C   C307      1.0  0.22602  0.30484  0.93910  1.0000
  C   C308      1.0  0.28973  0.33564  0.95859  1.0000
  C   C309      1.0  0.23891  0.28430  0.98379  1.0000
  C   C310      1.0  0.30068  0.28091  0.94361  1.0000
  H   H522      1.0  0.23258  0.32402  0.96234  1.0000
  H   H523      1.0  0.24808  0.33205  0.94166  1.0000
  H   H524      1.0  0.28869  0.30518  0.97693  1.0000
  H   H525      1.0  0.26444  0.32441  0.97915  1.0000
  H   H526      1.0  0.24966  0.26844  0.95844  1.0000
  H   H527      1.0  0.27193  0.27115  0.97330  1.0000
  H   H528      1.0  0.26840  0.28434  0.93138  1.0000
  H   H529      1.0  0.28174  0.31025  0.93018  1.0000
  S   S92       1.0  0.48506  0.17721  0.00906  1.0000
  C   C311      1.0  0.02487  0.46947  0.86687  1.0000
  H   H530      1.0  0.06970  0.48716  0.85363  1.0000
  H   H531      1.0  0.27820  0.34859  0.95134  1.0000
  H   H532      1.0  0.29829  0.34472  0.96890  1.0000
  H   H533      1.0  0.30361  0.32902  0.94889  1.0000
  H   H534      1.0  0.24520  0.29541  0.99384  1.0000
  H   H535      1.0  0.23607  0.26744  0.99122  1.0000
  H   H536      1.0  0.22202  0.29154  0.97928  1.0000
  H   H537      1.0  0.29799  0.26222  0.94453  1.0000
  H   H538      1.0  0.30840  0.28508  0.95635  1.0000
  H   H539      1.0  0.31375  0.28464  0.93227  1.0000
  N   N23       1.0  0.05442  0.32015  0.82523  1.0000
  C   C312      1.0  0.49564  0.08296  0.94161  1.0000
  H   H540      1.0  0.43494  0.10504  0.76759  1.0000
  H   H541      1.0  0.05275  0.28290  0.82802  1.0000
  H   H542      1.0  0.08389  0.37223  0.77908  1.0000
  H   H543      1.0  0.02261  0.33693  0.81564  1.0000
  C   C313      1.0  0.00645  0.48465  0.82938  1.0000
  H   H544      1.0  0.16999  0.42234  0.80322  1.0000
  H   H545      1.0  0.07286  0.45268  0.84116  1.0000
  C   C314      1.0  0.09051  0.30515  0.84230  1.0000
  H   H546      1.0  0.09404  0.47080  0.87568  1.0000
  N   N24       1.0  0.03265  0.49068  0.85594  1.0000
  H   H547      1.0  0.45464  0.09653  0.90966  1.0000
  N   N25       1.0  0.47856  0.09823  0.93099  1.0000
  C   C315      1.0  0.13783  0.45547  0.91922  1.0000
  C   C316      1.0  0.46771  0.12306  0.95870  1.0000
  H   H548      1.0  0.04403  0.46801  0.89216  1.0000
  C   C317      1.0  0.00183  0.38308  0.85847  1.0000
  H   H549      1.0  0.41335  0.04111  0.76952  1.0000
  H   H550      1.0  0.01997  0.31124  0.85438  1.0000
  H   H551      1.0  0.15216  0.40148  0.79582  1.0000
  C   C318      1.0  0.01395  0.50037  0.84378  1.0000
  S   S93       1.0  0.38298  0.25080  0.00747  1.0000
  C   C319      1.0  0.45457  0.06413  0.92490  1.0000
  H   H552      1.0  0.18301  0.39789  0.79225  1.0000
  C   C320      1.0  0.45996  0.10751  0.94425  1.0000
  C   C321      1.0  0.10016  0.36226  0.77916  1.0000
  H   H553      1.0  0.02024  0.45603  0.85805  1.0000
  C   C322      1.0  0.49098  0.12214  0.82602  1.0000
  C   C323      1.0  0.33474  0.25168  0.01016  1.0000
  C   C324      1.0  0.49008  0.08161  0.86201  1.0000
  S   S94       1.0  0.40137  0.00826  0.89042  1.0000
  H   H554      1.0  0.12890  0.45633  0.93311  1.0000
  H   H555      1.0  0.45114  0.09328  0.95202  1.0000
  C   C325      1.0  0.04215  0.45767  0.88017  1.0000
  C   C326      1.0  0.37457  0.01643  0.78031  1.0000
  H   H556      1.0  0.48694  0.07186  0.95250  1.0000
  H   H557      1.0  0.36516  0.03352  0.77839  1.0000
  H   H558      1.0  0.48798  0.10371  0.82514  1.0000
  H   H559      1.0  0.36649  0.29827  0.00906  1.0000
  H   H560      1.0  0.48302  0.04828  0.76968  1.0000
  C   C327      1.0  0.13994  0.48074  0.91199  1.0000
  H   H561      1.0  0.14903  0.48232  0.89821  1.0000
  H   H562      1.0  0.46564  0.07366  0.76403  1.0000
  H   H563      1.0  0.02244  0.28086  0.85299  1.0000
  C   C328      1.0  0.35149  0.28829  0.00997  1.0000
  H   H564      1.0  0.37986  0.09616  0.99266  1.0000
  C   C329      1.0  0.11753  0.49721  0.86896  1.0000
  H   H565      1.0  0.34022  0.09001  0.98710  1.0000
  C   C330      1.0  0.31266  0.26302  0.01260  1.0000
  C   C331      1.0  0.00370  0.36123  0.86748  1.0000
  H   H566      1.0  0.11484  0.41529  0.78617  1.0000
  H   H567      1.0  0.35584  0.13082  0.00174  1.0000
  H   H568      1.0  0.01842  0.36732  0.77197  1.0000
  S   S95       1.0  0.22648  0.33842  0.01016  1.0000
  C   C332      1.0  0.34985  0.07662  0.99560  1.0000
  H   H569      1.0  0.15625  0.44050  0.77597  1.0000
  C   C333      1.0  0.16705  0.42461  0.77340  1.0000
  H   H570      1.0  0.49751  0.10848  0.87902  1.0000
  H   H571      1.0  0.49563  0.12530  0.84010  1.0000
  C   C334      1.0  0.49902  0.06260  0.85258  1.0000
  C   C335      1.0  0.11719  0.42081  0.77133  1.0000
  H   H572      1.0  0.12243  0.48910  0.91059  1.0000
  C   C336      1.0  0.37033  0.08650  0.00406  1.0000
  S   S96       1.0  0.37973  0.18193  0.01317  1.0000
  H   H573      1.0  0.18455  0.43061  0.76984  1.0000
  H   H574      1.0  0.33808  0.06835  0.00613  1.0000
  H   H575      1.0  0.35014  0.01325  0.80389  1.0000
  H   H576      1.0  0.12065  0.43918  0.76990  1.0000
  H   H577      1.0  0.33652  0.23322  0.00931  1.0000
  H   H578      1.0  0.38201  0.07141  0.00806  1.0000
  H   H579      1.0  0.39327  0.12206  0.01279  1.0000
  H   H580      1.0  0.10021  0.41936  0.76561  1.0000
  H   H581      1.0  0.05745  0.50091  0.83411  1.0000
  C   C337      1.0  0.36049  0.00167  0.79456  1.0000
  H   H582      1.0  0.29767  0.25304  0.01369  1.0000
  Fe  Fe49      1.0  0.39571  0.86008  0.21184  1.0000
  S   S97       1.0  0.42852  0.87738  0.20520  1.0000
  S   S98       1.0  0.37663  0.86444  0.23979  1.0000
  Fe  Fe50      1.0  0.39658  0.84026  0.17322  1.0000
  S   S99       1.0  0.42953  0.85601  0.16418  1.0000
  S   S100      1.0  0.37830  0.81856  0.15425  1.0000
  Fe  Fe51      1.0  0.44043  0.84448  0.19241  1.0000
  S   S101      1.0  0.47554  0.82936  0.19834  1.0000
  Fe  Fe52      1.0  0.41442  0.88757  0.17779  1.0000
  S   S102      1.0  0.42204  0.92136  0.16248  1.0000
  S   S103      1.0  0.40866  0.82618  0.20081  1.0000
  S   S104      1.0  0.38029  0.87287  0.18502  1.0000
  Fe  Fe53      1.0  0.11439  0.60155  0.21445  1.0000
  S   S105      1.0  0.08558  0.57984  0.20899  1.0000
  S   S106      1.0  0.10964  0.61710  0.24257  1.0000
  Fe  Fe54      1.0  0.13966  0.59279  0.17643  1.0000
  S   S107      1.0  0.11261  0.57039  0.16901  1.0000
  S   S108      1.0  0.17285  0.59414  0.15783  1.0000
  Fe  Fe55      1.0  0.08701  0.59687  0.18059  1.0000
  S   S109      1.0  0.05654  0.60409  0.16294  1.0000
  Fe  Fe56      1.0  0.11344  0.55546  0.19799  1.0000
  S   S110      1.0  0.11368  0.51804  0.20718  1.0000
  S   S111      1.0  0.11400  0.62085  0.18633  1.0000
  S   S112      1.0  0.14230  0.57583  0.20514  1.0000
  Fe  Fe57      1.0  0.21191  0.59105  0.04815  1.0000
  S   S113      1.0  0.24969  0.58838  0.05264  1.0000
  S   S114      1.0  0.18260  0.59956  0.06959  1.0000
  H   H583      1.0  0.48485  0.73144  0.07496  1.0000
  H   H584      1.0  0.19161  0.66490  0.03279  1.0000
  Fe  Fe58      1.0  0.25389  0.61035  0.02619  1.0000
  H   H585      1.0  0.01434  0.61197  0.14548  1.0000
  H   H586      1.0  0.38706  0.90917  0.25709  1.0000
  C   C338      1.0  0.04493  0.53587  0.15630  1.0000
  Fe  Fe59      1.0  0.40095  0.77142  0.04909  1.0000
  S   S115      1.0  0.41385  0.73426  0.04722  1.0000
  S   S116      1.0  0.40928  0.79539  0.07140  1.0000
  H   H587      1.0  0.13668  0.53970  0.11990  1.0000
  C   C339      1.0  0.47903  0.96462  0.17334  1.0000
  N   N26       1.0  0.47732  0.95418  0.19289  1.0000
  H   H588      1.0  0.46259  0.96341  0.16662  1.0000
  H   H589      1.0  0.46196  0.91619  0.21838  1.0000
  H   H590      1.0  0.45473  0.78542  0.08885  1.0000
  H   H591      1.0  0.14450  0.55423  0.13904  1.0000
  S   S117      1.0  0.21566  0.61448  0.02229  1.0000
  C   C340      1.0  0.47912  0.81026  0.09145  1.0000
  H   H592      1.0  0.19393  0.64306  0.05095  1.0000
  H   H593      1.0  0.25260  0.61363  0.08713  1.0000
  N   N27       1.0  0.02442  0.53535  0.16989  1.0000
  C   C341      1.0  0.33751  0.68318  0.03365  1.0000
  H   H594      1.0  0.15939  0.54724  0.16580  1.0000
  H   H595      1.0  0.06816  0.54204  0.18749  1.0000
  C   C342      1.0  0.31286  0.58219  0.05351  1.0000
  H   H596      1.0  0.45129  0.95336  0.21553  1.0000
  S   S118      1.0  0.36886  0.76746  0.03412  1.0000
  H   H597      1.0  0.49872  0.96496  0.14698  1.0000
  H   H598      1.0  0.34351  0.65624  0.05474  1.0000
  H   H599      1.0  0.49261  0.81242  0.15719  1.0000
  C   C343      1.0  0.44420  0.98487  0.19980  1.0000
  H   H600      1.0  0.48200  0.77344  0.09534  1.0000
  C   C344      1.0  0.17519  0.59539  0.13328  1.0000
  C   C345      1.0  0.15613  0.60050  0.12273  1.0000
  C   C346      1.0  0.15878  0.60155  0.10331  1.0000
  C   C347      1.0  0.18039  0.59716  0.09413  1.0000
  C   C348      1.0  0.19943  0.59167  0.10466  1.0000
  C   C349      1.0  0.19686  0.59107  0.12410  1.0000
  H   H601      1.0  0.13936  0.60391  0.12953  1.0000
  H   H602      1.0  0.14391  0.60582  0.09534  1.0000
  H   H603      1.0  0.21613  0.58811  0.09784  1.0000
  H   H604      1.0  0.21175  0.58712  0.13210  1.0000
  H   H605      1.0  0.32606  0.61530  0.01655  1.0000
  C   C350      1.0  0.02846  0.61093  0.17213  1.0000
  C   C351      1.0  0.02347  0.61314  0.19100  1.0000
  H   H606      1.0  0.03140  0.56272  0.18700  1.0000
  H   H607      1.0  0.03719  0.61131  0.20037  1.0000
  C   C352      1.0  0.29884  0.65812  0.02642  1.0000
  H   H608      1.0  0.05093  0.55365  0.15432  1.0000
  C   C353      1.0  0.40331  0.91508  0.26165  1.0000
  C   C354      1.0  0.31337  0.65023  0.04039  1.0000
  C   C355      1.0  0.32286  0.69116  0.01979  1.0000
  C   C356      1.0  0.40787  0.94771  0.16832  1.0000
  C   C357      1.0  0.41454  0.96781  0.15851  1.0000
  H   H609      1.0  0.05620  0.51544  0.19618  1.0000
  C   C358      1.0  0.38063  0.97087  0.18714  1.0000
  C   C359      1.0  0.39086  0.94921  0.18267  1.0000
  H   H610      1.0  0.42751  0.96674  0.14729  1.0000
  H   H611      1.0  0.47099  0.78417  0.02677  1.0000
  H   H612      1.0  0.38563  0.93374  0.19031  1.0000
  C   C360      1.0  0.38881  0.80988  0.13207  1.0000
  C   C361      1.0  0.40801  0.81923  0.12278  1.0000
  C   C362      1.0  0.41394  0.81442  0.10432  1.0000
  C   C363      1.0  0.40131  0.79964  0.09499  1.0000
  C   C364      1.0  0.38255  0.78966  0.10443  1.0000
  C   C365      1.0  0.37626  0.79492  0.12281  1.0000
  H   H613      1.0  0.41787  0.83074  0.12964  1.0000
  H   H614      1.0  0.42823  0.82252  0.09711  1.0000
  H   H615      1.0  0.37259  0.77831  0.09746  1.0000
  H   H616      1.0  0.36134  0.78761  0.12980  1.0000
  C   C366      1.0  0.03053  0.54365  0.18806  1.0000
  H   H617      1.0  0.10222  0.52576  0.16898  1.0000
  H   H618      1.0  0.45372  0.99525  0.20858  1.0000
  H   H619      1.0  0.05437  0.53959  0.20990  1.0000
  C   C367      1.0  0.49514  0.85008  0.19200  1.0000
  H   H620      1.0  0.47531  0.81100  0.10654  1.0000
  H   H621      1.0  0.44464  0.99274  0.18554  1.0000
  H   H622      1.0  0.36746  0.97203  0.19821  1.0000
  H   H623      1.0  0.23149  0.62901  0.10090  1.0000
  H   H624      1.0  0.17807  0.66995  0.05489  1.0000
  H   H625      1.0  0.47440  0.86740  0.17129  1.0000
  C   C368      1.0  0.49351  0.96477  0.20470  1.0000
  H   H626      1.0  0.46046  0.74298  0.08904  1.0000
  Fe  Fe60      1.0  0.25113  0.55796  0.03473  1.0000
  H   H627      1.0  0.00058  0.51199  0.18341  1.0000
  C   C369      1.0  0.49863  0.72118  0.03457  1.0000
  H   H628      1.0  0.44081  0.94970  0.19366  1.0000
  C   C370      1.0  0.19522  0.52853  0.14618  1.0000
  C   C371      1.0  0.33515  0.58204  0.04092  1.0000
  C   C372      1.0  0.46718  0.73958  0.07484  1.0000
  H   H629      1.0  0.25860  0.64135  0.09356  1.0000
  H   H630      1.0  0.30980  0.63476  0.04866  1.0000
  H   H631      1.0  0.46891  0.92119  0.18419  1.0000
  S   S119      1.0  0.36219  0.69789  0.03885  1.0000
  H   H632      1.0  0.02825  0.53870  0.12980  1.0000
  H   H633      1.0  0.48117  0.81687  0.05622  1.0000
  N   N28       1.0  0.17414  0.51661  0.15334  1.0000
  H   H634      1.0  0.44704  0.76724  0.06167  1.0000
  C   C373      1.0  0.49566  0.73652  0.01921  1.0000
  H   H635      1.0  0.34730  0.56857  0.04709  1.0000
  C   C374      1.0  0.17875  0.52887  0.18640  1.0000
  Fe  Fe61      1.0  0.38246  0.73044  0.03081  1.0000
  N   N29       1.0  0.35252  0.87644  0.12333  1.0000
  C   C375      1.0  0.37837  0.87639  0.12306  1.0000
  C   C376      1.0  0.34672  0.85462  0.11515  1.0000
  C   C377      1.0  0.34345  0.87666  0.14324  1.0000
  C   C378      1.0  0.34388  0.89771  0.11241  1.0000
  C   C379      1.0  0.38816  0.89649  0.13214  1.0000
  C   C380      1.0  0.35594  0.85127  0.09513  1.0000
  C   C381      1.0  0.31983  0.86691  0.14816  1.0000
  C   C382      1.0  0.31798  0.90045  0.10932  1.0000
  H   H636      1.0  0.38554  0.86032  0.13016  1.0000
  H   H637      1.0  0.38620  0.87674  0.10875  1.0000
  H   H638      1.0  0.32799  0.85280  0.11545  1.0000
  H   H639      1.0  0.35318  0.83946  0.12373  1.0000
  H   H640      1.0  0.35538  0.86621  0.15229  1.0000
  H   H641      1.0  0.34260  0.89438  0.14815  1.0000
  H   H642      1.0  0.34750  0.91336  0.11938  1.0000
  H   H643      1.0  0.35353  0.89981  0.09880  1.0000
  H   H644      1.0  0.40714  0.89348  0.13208  1.0000
  H   H645      1.0  0.38472  0.91320  0.12439  1.0000
  H   H646      1.0  0.38193  0.89775  0.14673  1.0000
  H   H647      1.0  0.37489  0.84815  0.09403  1.0000
  H   H648      1.0  0.34900  0.83557  0.09038  1.0000
  H   H649      1.0  0.35047  0.86584  0.08556  1.0000
  H   H650      1.0  0.31448  0.87045  0.16266  1.0000
  H   H651      1.0  0.32094  0.84791  0.14749  1.0000
  H   H652      1.0  0.30623  0.87467  0.13945  1.0000
  H   H653      1.0  0.30832  0.90850  0.12112  1.0000
  H   H654      1.0  0.31042  0.88427  0.10668  1.0000
  H   H655      1.0  0.31526  0.91169  0.09665  1.0000
  H   H656      1.0  0.42394  0.84940  0.24779  1.0000
  C   C383      1.0  0.47335  0.80104  0.05290  1.0000
  H   H657      1.0  0.14680  0.52237  0.17456  1.0000
  H   H658      1.0  0.22192  0.66209  0.11165  1.0000
  H   H659      1.0  0.48176  0.98332  0.17320  1.0000
  S   S120      1.0  0.27386  0.52627  0.04322  1.0000
  N   N30       1.0  0.47978  0.78080  0.06593  1.0000
  H   H660      1.0  0.19109  0.54729  0.14352  1.0000
  C   C384      1.0  0.33250  0.66259  0.04390  1.0000
  H   H661      1.0  0.48440  0.71154  0.04022  1.0000
  H   H662      1.0  0.45632  0.72664  0.06990  1.0000
  H   H663      1.0  0.49299  0.93676  0.15613  1.0000
  C   C385      1.0  0.16368  0.52885  0.16972  1.0000
  S   S121      1.0  0.21315  0.55913  0.03221  1.0000
  S   S122      1.0  0.42067  0.78195  0.02278  1.0000
  H   H664      1.0  0.30137  0.60005  0.01857  1.0000
  C   C386      1.0  0.05361  0.53433  0.19559  1.0000
  C   C387      1.0  0.15073  0.54119  0.12924  1.0000
  H   H665      1.0  0.16545  0.54763  0.12056  1.0000
  C   C388      1.0  0.46550  0.76140  0.06170  1.0000
  H   H666      1.0  0.15565  0.59921  0.25149  1.0000
  C   C389      1.0  0.48130  0.92839  0.19297  1.0000
  H   H667      1.0  0.18784  0.54503  0.18593  1.0000
  H   H668      1.0  0.01694  0.53990  0.19904  1.0000
  C   C390      1.0  0.38771  0.99102  0.17750  1.0000
  H   H669      1.0  0.42594  0.98612  0.20507  1.0000
  C   C391      1.0  0.49038  0.86687  0.17795  1.0000
  H   H670      1.0  0.41412  0.91916  0.24893  1.0000
  H   H671      1.0  0.01347  0.56825  0.15658  1.0000
  C   C392      1.0  0.47357  0.78642  0.08565  1.0000
  H   H672      1.0  0.29985  0.59559  0.04883  1.0000
  C   C393      1.0  0.01464  0.51201  0.17241  1.0000
  H   H673      1.0  0.48436  0.89671  0.21019  1.0000
  H   H674      1.0  0.20817  0.52748  0.15682  1.0000
  H   H675      1.0  0.30531  0.56519  0.05479  1.0000
  N   N31       1.0  0.22388  0.66558  0.07188  1.0000
  C   C394      1.0  0.21581  0.67233  0.05284  1.0000
  C   C395      1.0  0.24155  0.68201  0.07580  1.0000
  C   C396      1.0  0.20341  0.66754  0.08564  1.0000
  C   C397      1.0  0.23401  0.64114  0.07172  1.0000
  C   C398      1.0  0.00063  0.61810  0.19769  1.0000
  C   C399      1.0  0.26313  0.68221  0.06245  1.0000
  C   C400      1.0  0.20794  0.67307  0.10550  1.0000
  C   C401      1.0  0.24472  0.63111  0.08948  1.0000
  H   H676      1.0  0.21266  0.69135  0.05088  1.0000
  H   H677      1.0  0.22925  0.66744  0.04199  1.0000
  H   H678      1.0  0.24796  0.67846  0.08977  1.0000
  H   H679      1.0  0.23361  0.69992  0.07569  1.0000
  H   H680      1.0  0.19091  0.68172  0.08110  1.0000
  H   H681      1.0  0.19382  0.65159  0.08647  1.0000
  H   H682      1.0  0.22081  0.62928  0.06886  1.0000
  H   H683      1.0  0.24743  0.63935  0.06028  1.0000
  H   H684      1.0  0.31691  0.58617  0.06760  1.0000
  H   H685      1.0  0.48988  0.96019  0.21960  1.0000
  C   C402      1.0  0.47968  0.91523  0.21200  1.0000
  H   H686      1.0  0.27463  0.69507  0.06663  1.0000
  H   H687      1.0  0.27316  0.66541  0.06299  1.0000
  H   H688      1.0  0.25905  0.68730  0.04804  1.0000
  H   H689      1.0  0.19211  0.67055  0.11449  1.0000
  H   H690      1.0  0.21184  0.69135  0.10604  1.0000
  C   C403      1.0  0.19362  0.66183  0.04783  1.0000
  H   H691      1.0  0.22206  0.53001  0.12421  1.0000
  H   H692      1.0  0.45449  0.80542  0.05426  1.0000
  H   H693      1.0  0.34263  0.59878  0.04250  1.0000
  C   C404      1.0  0.40463  0.98935  0.16315  1.0000
  C   C405      1.0  0.41403  0.85140  0.26071  1.0000
  C   C406      1.0  0.01056  0.61355  0.16009  1.0000
  C   C407      1.0  0.30374  0.67876  0.01625  1.0000
  C   C408      1.0  0.45312  0.95931  0.20075  1.0000
  H   H694      1.0  0.46987  0.75571  0.04766  1.0000
  C   C409      1.0  0.20759  0.51913  0.12863  1.0000
  H   H695      1.0  0.05988  0.52546  0.16144  1.0000
  C   C410      1.0  0.04122  0.52749  0.13714  1.0000
  Fe  Fe62      1.0  0.43195  0.74493  0.02012  1.0000
  C   C411      1.0  0.00603  0.55205  0.16218  1.0000
  H   H696      1.0  0.00576  0.50795  0.16003  1.0000
  H   H697      1.0  0.05761  0.52815  0.12859  1.0000
  H   H698      1.0  0.49878  0.79485  0.02961  1.0000
  H   H699      1.0  0.32526  0.54344  0.03075  1.0000
  H   H700      1.0  0.37574  0.59927  0.02570  1.0000
  H   H701      1.0  0.16764  0.52771  0.19934  1.0000
  H   H702      1.0  0.49844  0.92329  0.18672  1.0000
  C   C412      1.0  0.15656  0.51742  0.13897  1.0000
  C   C413      1.0  0.12105  0.60421  0.26305  1.0000
  C   C414      1.0  0.10203  0.50773  0.17282  1.0000
  C   C415      1.0  0.48000  0.79802  0.03231  1.0000
  H   H703      1.0  0.14005  0.51127  0.14516  1.0000
  H   H704      1.0  0.19627  0.51981  0.11696  1.0000
  C   C416      1.0  0.49764  0.95388  0.15993  1.0000
  C   C417      1.0  0.31962  0.55682  0.02004  1.0000
  H   H705      1.0  0.49192  0.92104  0.22145  1.0000
  H   H706      1.0  0.46794  0.82416  0.08487  1.0000
  H   H707      1.0  0.47473  0.81410  0.02425  1.0000
  H   H708      1.0  0.49059  0.98379  0.20378  1.0000
  H   H709      1.0  0.37816  0.99930  0.23884  1.0000
  H   H710      1.0  0.19162  0.51418  0.18747  1.0000
  H   H711      1.0  0.30100  0.56062  0.02339  1.0000
  C   C418      1.0  0.39055  0.85784  0.26064  1.0000
  H   H712      1.0  0.49732  0.81386  0.08864  1.0000
  H   H713      1.0  0.16191  0.50543  0.12799  1.0000
  S   S123      1.0  0.27429  0.64320  0.02120  1.0000
  N   N32       1.0  0.33255  0.57822  0.02085  1.0000
  H   H714      1.0  0.03644  0.50939  0.13799  1.0000
  H   H715      1.0  0.36583  0.55970  0.01887  1.0000
  Fe  Fe63      1.0  0.38771  0.85405  0.38182  1.0000
  S   S124      1.0  0.39810  0.88833  0.38894  1.0000
  S   S125      1.0  0.36926  0.83223  0.40451  1.0000
  Fe  Fe64      1.0  0.41247  0.85786  0.34306  1.0000
  S   S126      1.0  0.42516  0.89199  0.34827  1.0000
  S   S127      1.0  0.42667  0.84561  0.31525  1.0000
  Fe  Fe65      1.0  0.43266  0.87721  0.37637  1.0000
  S   S128      1.0  0.46330  0.88815  0.38994  1.0000
  Fe  Fe66      1.0  0.38972  0.89994  0.36023  1.0000
  S   S129      1.0  0.37489  0.93516  0.35214  1.0000
  S   S130      1.0  0.42322  0.84200  0.37061  1.0000
  S   S131      1.0  0.37605  0.86665  0.35357  1.0000
  Fe  Fe67      1.0  0.08946  0.60512  0.36745  1.0000
  S   S132      1.0  0.12391  0.62013  0.36376  1.0000
  S   S133      1.0  0.05570  0.62536  0.36484  1.0000
  Fe  Fe68      1.0  0.10934  0.55633  0.37437  1.0000
  S   S134      1.0  0.14547  0.56728  0.37152  1.0000
  S   S135      1.0  0.09630  0.52062  0.37823  1.0000
  Fe  Fe69      1.0  0.13223  0.59697  0.38884  1.0000
  S   S136      1.0  0.15227  0.60700  0.41293  1.0000
  Fe  Fe70      1.0  0.13367  0.58944  0.34693  1.0000
  S   S137      1.0  0.15331  0.58883  0.31893  1.0000
  S   S138      1.0  0.09692  0.58397  0.39339  1.0000
  S   S139      1.0  0.09863  0.57656  0.34880  1.0000
  H   H716      1.0  0.35514  0.93221  0.28346  1.0000
  S   S140      1.0  0.32905  0.87376  0.47990  1.0000
  H   H717      1.0  0.49000  0.83604  0.34699  1.0000
  C   C419      1.0  0.03240  0.60935  0.31225  1.0000
  S   S141      1.0  0.11972  0.67351  0.47780  1.0000
  C   C420      1.0  0.02535  0.51063  0.40333  1.0000
  H   H718      1.0  0.47502  0.87794  0.30469  1.0000
  C   C421      1.0  0.42275  0.88634  0.43330  1.0000
  H   H719      1.0  0.04578  0.50867  0.37801  1.0000
  H   H720      1.0  0.39106  0.83490  0.46884  1.0000
  C   C422      1.0  0.14014  0.59295  0.29756  1.0000
  C   C423      1.0  0.11642  0.59743  0.29659  1.0000
  C   C424      1.0  0.15406  0.59284  0.28112  1.0000
  H   H721      1.0  0.10544  0.59731  0.30910  1.0000
  H   H722      1.0  0.17241  0.58929  0.28169  1.0000
  C   C425      1.0  0.12849  0.65355  0.46071  1.0000
  C   C426      1.0  0.14870  0.63929  0.46145  1.0000
  C   C427      1.0  0.15562  0.62508  0.44681  1.0000
  C   C428      1.0  0.14229  0.62459  0.43139  1.0000
  C   C429      1.0  0.12194  0.63865  0.43080  1.0000
  C   C430      1.0  0.11525  0.65315  0.44525  1.0000
  H   H723      1.0  0.15913  0.63936  0.47317  1.0000
  H   H724      1.0  0.17139  0.61432  0.44745  1.0000
  H   H725      1.0  0.11152  0.63860  0.41906  1.0000
  H   H726      1.0  0.09967  0.66417  0.44443  1.0000
  H   H727      1.0  0.34001  0.90534  0.30878  1.0000
  H   H728      1.0  0.21662  0.68080  0.46968  1.0000
  C   C431      1.0  0.03984  0.58255  0.37153  1.0000
  C   C432      1.0  0.03422  0.60623  0.37068  1.0000
  C   C433      1.0  0.36734  0.92143  0.29207  1.0000
  H   H729      1.0  0.37654  0.95314  0.31502  1.0000
  H   H730      1.0  0.05741  0.57601  0.36958  1.0000
  C   C434      1.0  0.40526  0.96991  0.30312  1.0000
  C   C435      1.0  0.41222  0.85017  0.29445  1.0000
  C   C436      1.0  0.38870  0.85648  0.29440  1.0000
  H   H731      1.0  0.46820  0.87165  0.42984  1.0000
  H   H732      1.0  0.12809  0.52751  0.33604  1.0000
  C   C437      1.0  0.02265  0.56706  0.37470  1.0000
  C   C438      1.0  0.42474  0.84744  0.27752  1.0000
  H   H733      1.0  0.37876  0.85831  0.30731  1.0000
  H   H734      1.0  0.40268  0.85929  0.42625  1.0000
  H   H735      1.0  0.15688  0.71974  0.30597  1.0000
  H   H736      1.0  0.44284  0.84222  0.27735  1.0000
  C   C439      1.0  0.35685  0.84387  0.42513  1.0000
  C   C440      1.0  0.35524  0.86754  0.42733  1.0000
  C   C441      1.0  0.34639  0.87622  0.44410  1.0000
  C   C442      1.0  0.33879  0.86144  0.45890  1.0000
  C   C443      1.0  0.34008  0.83774  0.45669  1.0000
  C   C444      1.0  0.34908  0.82903  0.43987  1.0000
  H   H737      1.0  0.36071  0.87925  0.41610  1.0000
  H   H738      1.0  0.34537  0.89457  0.44563  1.0000
  H   H739      1.0  0.33431  0.82617  0.46795  1.0000
  H   H740      1.0  0.35013  0.81069  0.43831  1.0000
  C   C445      1.0  0.01497  0.59404  0.32294  1.0000
  C   C446      1.0  0.42117  0.86120  0.42808  1.0000
  C   C447      1.0  0.39876  0.93675  0.27273  1.0000
  C   C448      1.0  0.39126  0.97787  0.35127  1.0000
  C   C449      1.0  0.39358  0.95511  0.35839  1.0000
  C   C450      1.0  0.41081  0.94846  0.37050  1.0000
  C   C451      1.0  0.42483  0.96478  0.37629  1.0000
  H   H741      1.0  0.02645  0.62778  0.31161  1.0000
  H   H742      1.0  0.41307  0.93088  0.37582  1.0000
  C   C452      1.0  0.40595  0.91713  0.30389  1.0000
  C   C453      1.0  0.16030  0.52646  0.30703  1.0000
  C   C454      1.0  0.43204  0.91961  0.29999  1.0000
  H   H743      1.0  0.44123  0.80167  0.41833  1.0000
  H   H744      1.0  0.36573  0.90546  0.32055  1.0000
  H   H745      1.0  0.14622  0.51405  0.37176  1.0000
  H   H746      1.0  0.44060  0.91708  0.31321  1.0000
  Fe  Fe71      1.0  0.12739  0.68094  0.50737  1.0000
  H   H747      1.0  0.34724  0.93151  0.31743  1.0000
  N   N33       1.0  0.12669  0.67035  0.30247  1.0000
  N   N34       1.0  0.13807  0.51456  0.30932  1.0000
  H   H748      1.0  0.39100  0.98764  0.43053  1.0000
  H   H749      1.0  0.08153  0.66890  0.32169  1.0000
  H   H750      1.0  0.01039  0.52160  0.39867  1.0000
  H   H751      1.0  0.47327  0.84941  0.32963  1.0000
  H   H752      1.0  0.36995  0.90475  0.28553  1.0000
  H   H753      1.0  0.41237  0.90071  0.26948  1.0000
  H   H754      1.0  0.09587  0.69262  0.29842  1.0000
  H   H755      1.0  0.34686  0.99631  0.39666  1.0000
  H   H756      1.0  0.14961  0.68231  0.32150  1.0000
  H   H757      1.0  0.42115  0.82319  0.40814  1.0000
  H   H758      1.0  0.42726  0.89712  0.42064  1.0000
  H   H759      1.0  0.47414  0.84025  0.38216  1.0000
  H   H760      1.0  0.09523  0.50803  0.33651  1.0000
  H   H761      1.0  0.10417  0.65320  0.27182  1.0000
  H   H762      1.0  0.47691  0.88109  0.34344  1.0000
  S   S142      1.0  0.12280  0.71852  0.51359  1.0000
  H   H763      1.0  0.39807  0.85845  0.48129  1.0000
  H   H764      1.0  0.02051  0.68466  0.50335  1.0000
  H   H765      1.0  0.41675  0.96151  0.31347  1.0000
  C   C455      1.0  0.38467  0.95546  0.30091  1.0000
  H   H766      1.0  0.11228  0.63813  0.31195  1.0000
  N   N35       1.0  0.38984  0.93262  0.29248  1.0000
  H   H767      1.0  0.19961  0.66134  0.48331  1.0000
  H   H768      1.0  0.39969  0.82352  0.44008  1.0000
  H   H769      1.0  0.43753  0.95968  0.38619  1.0000
  C   C456      1.0  0.09672  0.66368  0.32968  1.0000
  C   C457      1.0  0.09686  0.52092  0.32469  1.0000
  H   H770      1.0  0.37821  0.98305  0.34169  1.0000
  C   C458      1.0  0.40588  0.99398  0.35650  1.0000
  C   C459      1.0  0.37532  0.96725  0.41189  1.0000
  C   C460      1.0  0.12317  0.53685  0.28013  1.0000
  H   H771      1.0  0.46861  0.81029  0.32761  1.0000
  C   C461      1.0  0.48997  0.84844  0.38333  1.0000
  H   H772      1.0  0.40569  0.89364  0.43848  1.0000
  H   H773      1.0  0.02719  0.54884  0.37480  1.0000
  H   H774      1.0  0.08515  0.65150  0.29243  1.0000
  C   C462      1.0  0.42370  0.81018  0.41965  1.0000
  H   H775      1.0  0.16459  0.69830  0.28997  1.0000
  H   H776      1.0  0.43577  0.88903  0.44310  1.0000
  H   H777      1.0  0.07978  0.67288  0.27437  1.0000
  C   C463      1.0  0.14424  0.65717  0.29047  1.0000
  H   H778      1.0  0.13680  0.64185  0.28553  1.0000
  C   C464      1.0  0.38547  0.98989  0.41614  1.0000
  H   H779      1.0  0.39033  0.86360  0.45801  1.0000
  H   H780      1.0  0.42984  0.85956  0.41413  1.0000
  H   H781      1.0  0.11032  0.54760  0.28817  1.0000
  H   H782      1.0  0.41146  0.79675  0.41820  1.0000
  N   N36       1.0  0.17836  0.71659  0.46790  1.0000
  C   C465      1.0  0.15469  0.72333  0.46130  1.0000
  C   C466      1.0  0.18041  0.72835  0.48551  1.0000
  C   C467      1.0  0.17968  0.69089  0.47201  1.0000
  C   C468      1.0  0.19607  0.72344  0.45293  1.0000
  C   C469      1.0  0.14867  0.71292  0.44338  1.0000
  C   C470      1.0  0.17671  0.75481  0.48413  1.0000
  C   C471      1.0  0.20188  0.67992  0.47997  1.0000
  C   C472      1.0  0.22041  0.72715  0.45894  1.0000
  H   H783      1.0  0.14118  0.71878  0.47218  1.0000
  H   H784      1.0  0.15224  0.74224  0.45850  1.0000
  H   H785      1.0  0.19724  0.72426  0.49147  1.0000
  H   H786      1.0  0.16789  0.72182  0.49638  1.0000
  H   H787      1.0  0.16527  0.68600  0.48189  1.0000
  H   H788      1.0  0.17766  0.68166  0.45940  1.0000
  H   H789      1.0  0.19787  0.71055  0.44221  1.0000
  H   H790      1.0  0.19012  0.74001  0.44574  1.0000
  H   H791      1.0  0.16094  0.71711  0.43163  1.0000
  H   H792      1.0  0.14731  0.69409  0.44510  1.0000
  H   H793      1.0  0.13144  0.72024  0.43961  1.0000
  H   H794      1.0  0.41498  0.97402  0.28993  1.0000
  H   H795      1.0  0.48946  0.85079  0.43752  1.0000
  C   C473      1.0  0.48935  0.87161  0.38725  1.0000
  C   C474      1.0  0.16650  0.64817  0.29960  1.0000
  H   H796      1.0  0.01771  0.66947  0.44957  1.0000
  H   H797      1.0  0.39878  0.98663  0.30858  1.0000
  H   H798      1.0  0.23323  0.72181  0.44785  1.0000
  H   H799      1.0  0.22546  0.71737  0.47167  1.0000
  H   H800      1.0  0.22254  0.74573  0.46021  1.0000
  C   C475      1.0  0.12936  0.51348  0.29035  1.0000
  H   H801      1.0  0.13854  0.54656  0.27622  1.0000
  H   H802      1.0  0.13818  0.71602  0.28814  1.0000
  H   H803      1.0  0.49674  0.96521  0.35349  1.0000
  H   H804      1.0  0.15735  0.54460  0.30169  1.0000
  C   C476      1.0  0.49248  0.88897  0.33721  1.0000
  H   H805      1.0  0.17865  0.51014  0.33080  1.0000
  C   C477      1.0  0.10790  0.68064  0.29064  1.0000
  H   H806      1.0  0.32797  0.99416  0.42296  1.0000
  C   C478      1.0  0.47126  0.85713  0.44014  1.0000
  H   H807      1.0  0.18588  0.76276  0.47184  1.0000
  H   H808      1.0  0.14921  0.66758  0.27769  1.0000
  H   H809      1.0  0.08523  0.53620  0.32780  1.0000
  H   H810      1.0  0.37198  0.96635  0.29286  1.0000
  H   H811      1.0  0.11516  0.69134  0.27879  1.0000
  H   H812      1.0  0.43970  0.90559  0.29148  1.0000
  H   H813      1.0  0.37374  0.96623  0.39686  1.0000
  C   C479      1.0  0.12173  0.52825  0.32193  1.0000
  H   H814      1.0  0.03785  0.52231  0.40784  1.0000
  H   H815      1.0  0.03661  0.60371  0.29812  1.0000
  H   H816      1.0  0.17692  0.66224  0.30306  1.0000
  H   H817      1.0  0.20572  0.68719  0.49302  1.0000
  C   C480      1.0  0.35466  0.91583  0.31090  1.0000
  H   H818      1.0  0.40324  0.89880  0.30194  1.0000
  H   H819      1.0  0.40186  0.91943  0.31881  1.0000
  H   H820      1.0  0.18959  0.53626  0.32098  1.0000
  H   H821      1.0  0.08883  0.60811  0.27894  1.0000
  H   H822      1.0  0.18327  0.76180  0.49646  1.0000
  H   H823      1.0  0.49671  0.90167  0.34700  1.0000
  N   N37       1.0  0.43030  0.84232  0.44133  1.0000
  C   C481      1.0  0.41870  0.82056  0.43853  1.0000
  C   C482      1.0  0.42539  0.84750  0.46128  1.0000
  C   C483      1.0  0.45578  0.83744  0.43758  1.0000
  C   C484      1.0  0.10700  0.60341  0.27946  1.0000
  C   C485      1.0  0.39973  0.85129  0.46747  1.0000
  H   H824      1.0  0.04864  0.60780  0.31953  1.0000
  H   H825      1.0  0.42332  0.80680  0.44923  1.0000
  H   H826      1.0  0.43383  0.86281  0.46492  1.0000
  H   H827      1.0  0.43280  0.83324  0.47044  1.0000
  H   H828      1.0  0.46205  0.82225  0.44637  1.0000
  H   H829      1.0  0.45973  0.83298  0.42304  1.0000
  H   H830      1.0  0.35970  0.86478  0.27767  1.0000
  C   C486      1.0  0.17354  0.52745  0.32464  1.0000
  C   C487      1.0  0.11737  0.65408  0.31760  1.0000
  H   H831      1.0  0.17233  0.51810  0.29660  1.0000
  C   C488      1.0  0.33578  0.99993  0.43512  1.0000
  H   H832      1.0  0.12393  0.69989  0.31917  1.0000
  H   H833      1.0  0.10122  0.67811  0.33762  1.0000
  H   H834      1.0  0.13088  0.64814  0.32721  1.0000
  H   H835      1.0  0.12119  0.54697  0.31777  1.0000
  C   C489      1.0  0.13727  0.68945  0.31123  1.0000
  H   H836      1.0  0.09130  0.64991  0.33994  1.0000
  H   H837      1.0  0.00694  0.63271  0.37348  1.0000
  C   C490      1.0  0.14985  0.70665  0.29787  1.0000
  H   H838      1.0  0.40165  0.99061  0.40722  1.0000
  C   C491      1.0  0.09362  0.66329  0.28203  1.0000
  C   C492      1.0  0.01133  0.61440  0.37381  1.0000
  H   H839      1.0  0.47443  0.84969  0.29647  1.0000
  C   C493      1.0  0.37792  0.86011  0.27758  1.0000
  H   H840      1.0  0.09022  0.51427  0.31238  1.0000
  H   H841      1.0  0.48469  0.98235  0.38457  1.0000
  H   H842      1.0  0.46971  0.86312  0.45430  1.0000
  H   H843      1.0  0.16375  0.53777  0.33511  1.0000
  C   C494      1.0  0.42204  0.98768  0.36957  1.0000
  H   H844      1.0  0.17725  0.63763  0.28976  1.0000
  C   C495      1.0  0.48484  0.86482  0.29664  1.0000
  H   H845      1.0  0.48900  0.89891  0.32414  1.0000
  C   C496      1.0  0.48651  0.81515  0.32426  1.0000
  H   H846      1.0  0.15815  0.76030  0.48417  1.0000
  H   H847      1.0  0.38730  0.95255  0.41617  1.0000
  H   H848      1.0  0.00406  0.57215  0.29501  1.0000
  H   H849      1.0  0.01819  0.68931  0.46717  1.0000
  H   H850      1.0  0.01208  0.66028  0.47343  1.0000
  H   H851      1.0  0.35856  0.96460  0.41931  1.0000
  H   H852      1.0  0.11387  0.50356  0.29057  1.0000
  H   H853      1.0  0.49806  0.80163  0.33091  1.0000
  C   C497      1.0  0.48947  0.83881  0.33178  1.0000
  C   C498      1.0  0.00923  0.67450  0.46292  1.0000
  H   H854      1.0  0.48973  0.81520  0.30911  1.0000
  H   H855      1.0  0.34193  0.98472  0.44384  1.0000
  H   H856      1.0  0.41484  0.94577  0.27160  1.0000
  H   H857      1.0  0.48673  0.87198  0.28217  1.0000
  H   H858      1.0  0.49169  0.94569  0.37297  1.0000
  Fe  Fe72      1.0  0.31097  0.86323  0.50772  1.0000
  H   H859      1.0  0.38640  0.94855  0.26505  1.0000
  H   H860      1.0  0.16309  0.63682  0.31208  1.0000
  H   H861      1.0  0.02269  0.57610  0.32272  1.0000
  H   H862      1.0  0.01431  0.59801  0.33767  1.0000
  H   H863      1.0  0.43689  0.93644  0.29378  1.0000
  H   H864      1.0  0.11544  0.53378  0.26703  1.0000
  H   H865      1.0  0.14235  0.50391  0.28136  1.0000
  H   H866      1.0  0.01565  0.51152  0.35919  1.0000
  H   H867      1.0  0.00099  0.60108  0.28683  1.0000
  C   C499      1.0  0.14457  0.59830  0.26395  1.0000
  Fe  Fe73      1.0  0.38991  0.86034  0.66732  1.0000
  S   S143      1.0  0.42407  0.86918  0.65388  1.0000
  S   S144      1.0  0.35814  0.85347  0.65192  1.0000
  Fe  Fe74      1.0  0.40292  0.87476  0.70581  1.0000
  S   S145      1.0  0.43743  0.88545  0.69471  1.0000
  S   S146      1.0  0.38980  0.88373  0.73483  1.0000
  Fe  Fe75      1.0  0.41966  0.90060  0.67005  1.0000
  S   S147      1.0  0.42635  0.93478  0.65566  1.0000
  Fe  Fe76      1.0  0.43919  0.85303  0.67963  1.0000
  S   S148      1.0  0.47348  0.83264  0.67911  1.0000
  S   S149      1.0  0.38480  0.89309  0.68217  1.0000
  S   S150      1.0  0.40536  0.84100  0.69216  1.0000
  Fe  Fe77      1.0  0.31786  0.84831  0.54865  1.0000
  S   S151      1.0  0.28214  0.86117  0.55747  1.0000
  S   S152      1.0  0.34479  0.83272  0.56816  1.0000
  H   H868      1.0  0.37604  0.93158  0.59066  1.0000
  Fe  Fe78      1.0  0.28865  0.89245  0.53846  1.0000
  S   S153      1.0  0.28487  0.92833  0.54983  1.0000
  Fe  Fe79      1.0  0.27102  0.84405  0.53266  1.0000
  H   H869      1.0  0.24095  0.55001  0.70304  1.0000
  C   C500      1.0  0.16647  0.59520  0.76228  1.0000
  H   H870      1.0  0.04869  0.67145  0.65559  1.0000
  Fe  Fe80      1.0  0.13421  0.66653  0.54851  1.0000
  S   S154      1.0  0.12945  0.70283  0.55696  1.0000
  S   S155      1.0  0.14351  0.63585  0.56839  1.0000
  H   H871      1.0  0.24278  0.51015  0.70673  1.0000
  H   H872      1.0  0.00560  0.64156  0.60923  1.0000
  H   H873      1.0  0.23135  0.78330  0.60646  1.0000
  H   H874      1.0  0.04337  0.53545  0.66083  1.0000
  H   H875      1.0  0.01821  0.60112  0.69967  1.0000
  C   C501      1.0  0.38900  0.99123  0.68831  1.0000
  Fe  Fe81      1.0  0.13087  0.59556  0.67674  1.0000
  S   S156      1.0  0.11836  0.56014  0.67509  1.0000
  S   S157      1.0  0.12475  0.62631  0.65599  1.0000
  Fe  Fe82      1.0  0.14891  0.58363  0.71582  1.0000
  S   S158      1.0  0.13842  0.54748  0.71671  1.0000
  S   S159      1.0  0.17002  0.59632  0.73782  1.0000
  Fe  Fe83      1.0  0.15163  0.54736  0.68722  1.0000
  S   S160      1.0  0.17701  0.51957  0.67701  1.0000
  Fe  Fe84      1.0  0.10621  0.56324  0.70481  1.0000
  S   S161      1.0  0.07306  0.55332  0.71926  1.0000
  S   S162      1.0  0.16509  0.58257  0.68694  1.0000
  S   S163      1.0  0.11570  0.59970  0.70576  1.0000
  H   H876      1.0  0.45210  0.98072  0.66896  1.0000
  C   C502      1.0  0.06742  0.63976  0.66634  1.0000
  H   H877      1.0  0.17009  0.77705  0.53641  1.0000
  H   H878      1.0  0.02446  0.66094  0.55179  1.0000
  H   H879      1.0  0.07351  0.57279  0.65584  1.0000
  C   C503      1.0  0.05157  0.54823  0.70477  1.0000
  C   C504      1.0  0.05690  0.54166  0.68679  1.0000
  H   H880      1.0  0.31868  0.85706  0.63019  1.0000
  S   S164      1.0  0.06489  0.72172  0.54721  1.0000
  H   H881      1.0  0.07459  0.53816  0.68204  1.0000
  C   C505      1.0  0.45642  0.99022  0.69614  1.0000
  C   C506      1.0  0.13744  0.63333  0.59268  1.0000
  C   C507      1.0  0.14457  0.61288  0.60260  1.0000
  C   C508      1.0  0.14069  0.61031  0.62192  1.0000
  C   C509      1.0  0.12973  0.62830  0.63160  1.0000
  C   C510      1.0  0.12265  0.64878  0.62168  1.0000
  C   C511      1.0  0.12641  0.65130  0.60235  1.0000
  H   H882      1.0  0.15313  0.59886  0.59528  1.0000
  H   H883      1.0  0.14626  0.59445  0.62932  1.0000
  H   H884      1.0  0.11420  0.66283  0.62901  1.0000
  H   H885      1.0  0.12082  0.66714  0.59494  1.0000
  C   C512      1.0  0.22421  0.79728  0.53438  1.0000
  C   C513      1.0  0.25875  0.96147  0.53032  1.0000
  H   H886      1.0  0.46394  0.97373  0.70221  1.0000
  C   C514      1.0  0.05864  0.59986  0.67287  1.0000
  H   H887      1.0  0.35212  0.90609  0.65546  1.0000
  C   C515      1.0  0.46222  0.99328  0.67521  1.0000
  C   C516      1.0  0.40110  0.87241  0.75587  1.0000
  C   C517      1.0  0.38532  0.96096  0.61679  1.0000
  C   C518      1.0  0.20126  0.75542  0.53372  1.0000
  H   H888      1.0  0.40685  0.89167  0.60513  1.0000
  H   H889      1.0  0.48184  0.95371  0.67120  1.0000
  H   H890      1.0  0.35885  0.90399  0.57491  1.0000
  H   H891      1.0  0.32199  0.90613  0.65357  1.0000
  H   H892      1.0  0.28714  0.98430  0.61909  1.0000
  S   S165      1.0  0.15858  0.67522  0.52411  1.0000
  C   C519      1.0  0.35635  0.90218  0.59017  1.0000
  H   H893      1.0  0.40993  0.98359  0.75183  1.0000
  C   C520      1.0  0.28050  0.95469  0.53651  1.0000
  H   H894      1.0  0.24562  0.94921  0.53116  1.0000
  C   C521      1.0  0.33745  0.91541  0.64883  1.0000
  C   C522      1.0  0.49809  0.82178  0.72948  1.0000
  H   H895      1.0  0.04337  0.66798  0.56835  1.0000
  C   C523      1.0  0.41140  0.95616  0.66815  1.0000
  C   C524      1.0  0.40348  0.95147  0.68643  1.0000
  C   C525      1.0  0.39215  0.96900  0.69650  1.0000
  H   H896      1.0  0.05565  0.59334  0.64347  1.0000
  C   C526      1.0  0.40776  0.97822  0.65986  1.0000
  H   H897      1.0  0.40640  0.93446  0.69297  1.0000
  H   H898      1.0  0.38627  0.96539  0.71070  1.0000
  C   C527      1.0  0.04015  0.70056  0.52250  1.0000
  H   H899      1.0  0.25538  0.77571  0.53153  1.0000
  H   H900      1.0  0.24277  0.53579  0.73921  1.0000
  H   H901      1.0  0.47537  0.88085  0.66794  1.0000
  H   H902      1.0  0.08231  0.63619  0.67517  1.0000
  C   C528      1.0  0.35516  0.84849  0.62833  1.0000
  C   C529      1.0  0.37380  0.84138  0.61659  1.0000
  C   C530      1.0  0.37039  0.83690  0.59817  1.0000
  C   C531      1.0  0.34851  0.84028  0.59103  1.0000
  C   C532      1.0  0.32998  0.84801  0.60264  1.0000
  C   C533      1.0  0.33324  0.85164  0.62123  1.0000
  H   H903      1.0  0.39074  0.83870  0.62184  1.0000
  H   H904      1.0  0.38481  0.83070  0.58940  1.0000
  H   H905      1.0  0.31304  0.85059  0.59741  1.0000
  H   H906      1.0  0.19022  0.55661  0.71704  1.0000
  C   C534      1.0  0.03925  0.54005  0.67486  1.0000
  N   N38       1.0  0.27371  0.79177  0.58640  1.0000
  C   C535      1.0  0.25463  0.77746  0.58169  1.0000
  C   C536      1.0  0.28683  0.79886  0.56866  1.0000
  C   C537      1.0  0.26441  0.81307  0.59573  1.0000
  C   C538      1.0  0.28899  0.77776  0.59939  1.0000
  C   C539      1.0  0.23859  0.76913  0.59802  1.0000
  C   C540      1.0  0.30266  0.77979  0.55985  1.0000
  C   C541      1.0  0.24454  0.82707  0.58641  1.0000
  C   C542      1.0  0.30996  0.78974  0.60515  1.0000
  H   H907      1.0  0.24374  0.78693  0.57131  1.0000
  H   H908      1.0  0.26166  0.76176  0.57492  1.0000
  H   H909      1.0  0.29763  0.81341  0.57044  1.0000
  H   H910      1.0  0.27486  0.80567  0.55803  1.0000
  H   H911      1.0  0.25840  0.80888  0.61028  1.0000
  H   H912      1.0  0.27830  0.82503  0.59669  1.0000
  H   H913      1.0  0.27920  0.77310  0.61253  1.0000
  H   H914      1.0  0.29488  0.76078  0.59403  1.0000
  H   H915      1.0  0.49944  0.88296  0.74132  1.0000
  H   H916      1.0  0.24741  0.75562  0.60693  1.0000
  C   C543      1.0  0.47468  0.98290  0.63658  1.0000
  C   C544      1.0  0.49560  0.96541  0.67341  1.0000
  H   H917      1.0  0.05423  0.63714  0.69944  1.0000
  H   H918      1.0  0.24855  0.83079  0.57157  1.0000
  H   H919      1.0  0.24135  0.84385  0.59280  1.0000
  H   H920      1.0  0.22830  0.81822  0.58817  1.0000
  H   H921      1.0  0.30535  0.80018  0.61723  1.0000
  H   H922      1.0  0.31762  0.80101  0.59400  1.0000
  H   H923      1.0  0.32391  0.77661  0.60866  1.0000
  C   C545      1.0  0.20003  0.79717  0.53584  1.0000
  H   H924      1.0  0.23123  0.98821  0.58688  1.0000
  C   C546      1.0  0.38234  0.90785  0.62529  1.0000
  C   C547      1.0  0.02717  0.65959  0.56674  1.0000
  H   H925      1.0  0.23554  0.73936  0.53109  1.0000
  C   C548      1.0  0.40499  0.90739  0.61306  1.0000
  S   S166      1.0  0.30694  0.82970  0.52458  1.0000
  H   H926      1.0  0.43748  0.99001  0.69859  1.0000
  H   H927      1.0  0.38659  0.91142  0.63948  1.0000
  H   H928      1.0  0.37709  0.88985  0.62642  1.0000
  C   C549      1.0  0.39654  0.99569  0.66993  1.0000
  H   H929      1.0  0.36829  0.88787  0.59506  1.0000
  C   C550      1.0  0.48295  0.85902  0.75976  1.0000
  H   H930      1.0  0.40182  0.95281  0.62142  1.0000
  H   H931      1.0  0.41970  0.90600  0.62209  1.0000
  H   H932      1.0  0.40746  0.92265  0.60361  1.0000
  H   H933      1.0  0.38112  0.95581  0.75757  1.0000
  C   C551      1.0  0.26957  0.00117  0.52436  1.0000
  C   C552      1.0  0.48904  0.99667  0.64852  1.0000
  N   N39       1.0  0.20191  0.67342  0.58390  1.0000
  C   C553      1.0  0.20191  0.64846  0.57946  1.0000
  C   C554      1.0  0.20449  0.67351  0.60437  1.0000
  C   C555      1.0  0.22242  0.68339  0.57350  1.0000
  C   C556      1.0  0.17987  0.68578  0.57791  1.0000
  C   C557      1.0  0.20250  0.64358  0.55887  1.0000
  C   C558      1.0  0.18460  0.66368  0.61675  1.0000
  C   C559      1.0  0.22656  0.70865  0.57636  1.0000
  C   C560      1.0  0.17263  0.70915  0.58625  1.0000
  H   H934      1.0  0.21677  0.63818  0.58536  1.0000
  H   H935      1.0  0.18637  0.64053  0.58589  1.0000
  H   H936      1.0  0.20660  0.69087  0.60892  1.0000
  H   H937      1.0  0.22060  0.66350  0.60818  1.0000
  H   H938      1.0  0.23842  0.67284  0.57682  1.0000
  H   H939      1.0  0.22096  0.68291  0.55837  1.0000
  H   H940      1.0  0.18054  0.68884  0.56265  1.0000
  H   H941      1.0  0.16525  0.67468  0.58115  1.0000
  H   H942      1.0  0.19888  0.62532  0.55767  1.0000
  H   H943      1.0  0.18915  0.65413  0.55150  1.0000
  H   H944      1.0  0.21966  0.64597  0.55190  1.0000
  H   H945      1.0  0.18401  0.64483  0.61592  1.0000
  H   H946      1.0  0.18720  0.66659  0.63136  1.0000
  H   H947      1.0  0.16769  0.67220  0.61352  1.0000
  H   H948      1.0  0.22870  0.71195  0.59091  1.0000
  H   H949      1.0  0.21293  0.72055  0.57048  1.0000
  H   H950      1.0  0.24277  0.71305  0.56856  1.0000
  H   H951      1.0  0.16945  0.72248  0.57493  1.0000
  H   H952      1.0  0.18509  0.71593  0.59486  1.0000
  H   H953      1.0  0.15608  0.70797  0.59454  1.0000
  H   H954      1.0  0.48021  0.98613  0.62183  1.0000
  C   C561      1.0  0.41838  0.85461  0.75647  1.0000
  C   C562      1.0  0.29708  0.97113  0.53583  1.0000
  C   C563      1.0  0.03948  0.71517  0.53703  1.0000
  H   H955      1.0  0.35251  0.98552  0.75986  1.0000
  H   H956      1.0  0.02125  0.64621  0.66067  1.0000
  H   H957      1.0  0.25430  0.97650  0.60087  1.0000
  S   S167      1.0  0.10358  0.66899  0.53108  1.0000
  C   C564      1.0  0.18865  0.77654  0.53543  1.0000
  H   H958      1.0  0.33470  0.93301  0.65376  1.0000
  S   S168      1.0  0.27446  0.87691  0.51438  1.0000
  C   C565      1.0  0.34046  0.91556  0.62765  1.0000
  C   C566      1.0  0.20832  0.55105  0.71987  1.0000
  H   H959      1.0  0.45619  0.98860  0.63805  1.0000
  H   H960      1.0  0.23318  0.50890  0.74833  1.0000
  H   H961      1.0  0.05420  0.67146  0.67984  1.0000
  H   H962      1.0  0.07682  0.67511  0.66251  1.0000
  H   H963      1.0  0.24831  0.96334  0.58046  1.0000
  H   H964      1.0  0.02642  0.64463  0.69170  1.0000
  H   H965      1.0  0.47216  0.85385  0.74894  1.0000
  H   H966      1.0  0.01574  0.59402  0.66072  1.0000
  H   H967      1.0  0.33838  0.89749  0.59326  1.0000
  C   C567      1.0  0.04014  0.63043  0.69210  1.0000
  H   H968      1.0  0.33846  0.89757  0.62426  1.0000
  H   H969      1.0  0.22385  0.76129  0.59252  1.0000
  C   C568      1.0  0.19779  0.51099  0.72112  1.0000
  H   H970      1.0  0.42526  0.84740  0.74382  1.0000
  H   H971      1.0  0.28153  0.98324  0.57189  1.0000
  S   S169      1.0  0.23750  0.82416  0.53512  1.0000
  C   C569      1.0  0.03121  0.61098  0.70545  1.0000
  H   H972      1.0  0.01269  0.67325  0.59201  1.0000
  H   H973      1.0  0.03650  0.62775  0.64516  1.0000
  C   C570      1.0  0.24897  0.98020  0.58664  1.0000
  H   H974      1.0  0.31744  0.77447  0.56833  1.0000
  H   H975      1.0  0.05647  0.69308  0.51717  1.0000
  H   H976      1.0  0.08424  0.59989  0.64912  1.0000
  N   N40       1.0  0.36273  0.92402  0.61895  1.0000
  C   C571      1.0  0.22546  0.75545  0.53250  1.0000
  H   H977      1.0  0.04575  0.58764  0.67803  1.0000
  H   H978      1.0  0.34640  0.93775  0.59436  1.0000
  C   C572      1.0  0.06844  0.59143  0.65412  1.0000
  C   C573      1.0  0.36067  0.92512  0.59835  1.0000
  Fe  Fe85      1.0  0.10016  0.70595  0.53789  1.0000
  H   H979      1.0  0.38385  0.97852  0.62196  1.0000
  C   C574      1.0  0.01809  0.72482  0.54369  1.0000
  Fe  Fe86      1.0  0.15277  0.71215  0.53201  1.0000
  C   C575      1.0  0.22223  0.55188  0.70122  1.0000
  N   N41       1.0  0.20921  0.52845  0.73119  1.0000
  H   H980      1.0  0.21715  0.53925  0.69181  1.0000
  C   C576      1.0  0.25336  0.98450  0.52426  1.0000
  H   H981      1.0  0.32542  0.92587  0.62205  1.0000
  H   H982      1.0  0.02995  0.64138  0.57179  1.0000
  H   H983      1.0  0.18994  0.81329  0.53714  1.0000
  N   N42       1.0  0.04848  0.62432  0.67278  1.0000
  C   C577      1.0  0.36486  0.94786  0.62522  1.0000
  H   H984      1.0  0.34897  0.95892  0.62250  1.0000
  C   C578      1.0  0.29176  0.99419  0.52958  1.0000
  H   H985      1.0  0.17997  0.51740  0.71814  1.0000
  S   S170      1.0  0.32499  0.88020  0.53112  1.0000
  H   H986      1.0  0.38562  0.96322  0.60158  1.0000
  C   C579      1.0  0.36153  0.99958  0.75222  1.0000
  H   H987      1.0  0.31009  0.78656  0.54637  1.0000
  C   C580      1.0  0.49246  0.87404  0.67094  1.0000
  C   C581      1.0  0.00977  0.61225  0.66233  1.0000
  H   H988      1.0  0.36666  0.94735  0.64037  1.0000
  H   H989      1.0  0.07267  0.59727  0.68261  1.0000
  H   H990      1.0  0.31384  0.96620  0.54083  1.0000
  H   H991      1.0  0.25861  0.99774  0.56087  1.0000
  C   C582      1.0  0.02866  0.55217  0.71105  1.0000
  H   H992      1.0  0.21877  0.56910  0.69416  1.0000
  H   H993      1.0  0.07404  0.63646  0.65204  1.0000
  H   H994      1.0  0.47674  0.96411  0.63989  1.0000
  C   C583      1.0  0.23683  0.77612  0.53274  1.0000
  C   C584      1.0  0.01111  0.55094  0.69908  1.0000
  H   H995      1.0  0.41373  0.98185  0.64570  1.0000
  H   H996      1.0  0.31454  0.99711  0.56635  1.0000
  H   H997      1.0  0.02452  0.55720  0.72497  1.0000
  H   H998      1.0  0.01741  0.73630  0.55481  1.0000
  N   N43       1.0  0.48731  0.99009  0.66890  1.0000
  C   C585      1.0  0.06102  0.66587  0.66620  1.0000
  H   H999      1.0  0.04565  0.59896  0.70988  1.0000
  C   C586      1.0  0.23347  0.52075  0.73571  1.0000
  H   H1000     1.0  0.29332  0.76462  0.55714  1.0000
  H   H1001     1.0  0.49056  0.81917  0.74366  1.0000
  C   C587      1.0  0.02947  0.62855  0.65967  1.0000
  H   H1002     1.0  0.00718  0.69042  0.57171  1.0000
  H   H1003     1.0  0.19223  0.51586  0.75697  1.0000
  H   H1004     1.0  0.26620  0.51397  0.72029  1.0000
  H   H1005     1.0  0.20628  0.50834  0.70738  1.0000
  C   C588      1.0  0.49647  0.85070  0.67600  1.0000
  C   C589      1.0  0.26597  0.99465  0.57458  1.0000
  H   H1006     1.0  0.21456  0.56502  0.72747  1.0000
  H   H1007     1.0  0.17740  0.53993  0.74592  1.0000
  S   S171      1.0  0.18794  0.72854  0.53303  1.0000
  C   C590      1.0  0.19492  0.53232  0.74890  1.0000
  H   H1008     1.0  0.36761  0.99237  0.73883  1.0000
  C   C591      1.0  0.01639  0.54514  0.68094  1.0000
  H   H1009     1.0  0.48342  0.82397  0.72038  1.0000
  H   H1010     1.0  0.30046  0.98319  0.59644  1.0000
  H   H1011     1.0  0.02313  0.61847  0.71810  1.0000
  C   C592      1.0  0.29485  0.99489  0.60739  1.0000
  C   C593      1.0  0.00748  0.67241  0.57769  1.0000
  H   H1012     1.0  0.23616  0.98964  0.52027  1.0000
  C   C594      1.0  0.24857  0.50786  0.72090  1.0000
  H   H1013     1.0  0.20809  0.56505  0.75660  1.0000
  H   H1014     1.0  0.49901  0.96271  0.68828  1.0000
  C   C595      1.0  0.01970  0.69586  0.51465  1.0000
  C   C596      1.0  0.20495  0.54759  0.76256  1.0000
  Fe  Fe87      1.0  0.41572  0.85546  0.83954  1.0000
  S   S172      1.0  0.42166  0.89114  0.84713  1.0000
  S   S173      1.0  0.42798  0.84293  0.81135  1.0000
  Fe  Fe88      1.0  0.39635  0.84145  0.87909  1.0000
  S   S174      1.0  0.39994  0.87639  0.88903  1.0000
  S   S175      1.0  0.38613  0.81104  0.89835  1.0000
  Fe  Fe89      1.0  0.38698  0.88988  0.86183  1.0000
  S   S176      1.0  0.36307  0.92141  0.85807  1.0000
  Fe  Fe90      1.0  0.43409  0.87445  0.87347  1.0000
  S   S177      1.0  0.46257  0.88724  0.88835  1.0000
  S   S178      1.0  0.37992  0.85498  0.85285  1.0000
  S   S179      1.0  0.43149  0.83863  0.86494  1.0000
  S   S180      1.0  0.40190  0.73851  0.00341  1.0000
  H   H1015     1.0  0.46371  0.78064  0.90584  1.0000
  S   S181      1.0  0.20599  0.57068  0.98008  1.0000
  H   H1016     1.0  0.02015  0.51058  0.87917  1.0000
  S   S182      1.0  0.38096  0.80508  0.98642  1.0000
  Fe  Fe91      1.0  0.13197  0.59315  0.89016  1.0000
  S   S183      1.0  0.09619  0.58109  0.89151  1.0000
  S   S184      1.0  0.14627  0.61147  0.91336  1.0000
  Fe  Fe92      1.0  0.13883  0.58579  0.84830  1.0000
  S   S185      1.0  0.10370  0.57324  0.84643  1.0000
  S   S186      1.0  0.16690  0.59123  0.82573  1.0000
  Fe  Fe93      1.0  0.09141  0.60149  0.86478  1.0000
  S   S187      1.0  0.06193  0.62758  0.85959  1.0000
  Fe  Fe94      1.0  0.11112  0.55374  0.87320  1.0000
  S   S188      1.0  0.09886  0.51840  0.87875  1.0000
  S   S189      1.0  0.12597  0.61586  0.86461  1.0000
  S   S190      1.0  0.14740  0.56388  0.87394  1.0000
  H   H1017     1.0  0.48382  0.92070  0.86319  1.0000
  C   C597      1.0  0.39221  0.88144  0.77249  1.0000
  H   H1018     1.0  0.43774  0.77748  0.95955  1.0000
  H   H1019     1.0  0.03013  0.63929  0.91207  1.0000
  C   C598      1.0  0.01830  0.64191  0.86984  1.0000
  C   C599      1.0  0.03326  0.62270  0.86660  1.0000
  C   C600      1.0  0.02484  0.60069  0.86835  1.0000
  H   H1020     1.0  0.02466  0.65894  0.86843  1.0000
  H   H1021     1.0  0.03638  0.58582  0.86581  1.0000
  C   C601      1.0  0.14745  0.58420  0.79221  1.0000
  C   C602      1.0  0.16513  0.59298  0.80139  1.0000
  C   C603      1.0  0.18316  0.60287  0.79089  1.0000
  H   H1022     1.0  0.13348  0.57637  0.80016  1.0000
  H   H1023     1.0  0.19690  0.60965  0.79771  1.0000
  C   C604      1.0  0.18866  0.58247  0.96208  1.0000
  C   C605      1.0  0.18103  0.60572  0.96047  1.0000
  C   C606      1.0  0.16783  0.61420  0.94562  1.0000
  C   C607      1.0  0.16195  0.59957  0.93227  1.0000
  C   C608      1.0  0.16941  0.57631  0.93394  1.0000
  C   C609      1.0  0.18276  0.56788  0.94870  1.0000
  H   H1024     1.0  0.18547  0.61716  0.97059  1.0000
  H   H1025     1.0  0.16226  0.63225  0.94444  1.0000
  H   H1026     1.0  0.16514  0.56485  0.92378  1.0000
  H   H1027     1.0  0.18858  0.54989  0.94979  1.0000
  H   H1028     1.0  0.42457  0.95522  0.84743  1.0000
  H   H1029     1.0  0.02617  0.59835  0.91484  1.0000
  H   H1030     1.0  0.13481  0.57809  0.76560  1.0000
  C   C610      1.0  0.37416  0.94555  0.86669  1.0000
  C   C611      1.0  0.37100  0.96727  0.85749  1.0000
  H   H1031     1.0  0.43278  0.78459  0.90922  1.0000
  C   C612      1.0  0.38580  0.94328  0.88295  1.0000
  H   H1032     1.0  0.36196  0.96911  0.84493  1.0000
  H   H1033     1.0  0.38820  0.92665  0.89019  1.0000
  H   H1034     1.0  0.30181  0.59312  0.98766  1.0000
  H   H1035     1.0  0.47594  0.85136  0.86351  1.0000
  H   H1036     1.0  0.38799  0.59131  0.00387  1.0000
  C   C613      1.0  0.38591  0.80966  0.92281  1.0000
  C   C614      1.0  0.38642  0.78808  0.93259  1.0000
  C   C615      1.0  0.38562  0.78630  0.95203  1.0000
  C   C616      1.0  0.38368  0.80615  0.96193  1.0000
  C   C617      1.0  0.38318  0.82775  0.95212  1.0000
  C   C618      1.0  0.38465  0.82951  0.93268  1.0000
  H   H1037     1.0  0.38734  0.77261  0.92510  1.0000
  H   H1038     1.0  0.38588  0.76958  0.95937  1.0000
  H   H1039     1.0  0.38170  0.84321  0.95964  1.0000
  H   H1040     1.0  0.38449  0.84619  0.92537  1.0000
  C   C619      1.0  0.41742  0.85475  0.79018  1.0000
  C   C620      1.0  0.40035  0.87274  0.78955  1.0000
  C   C621      1.0  0.46558  0.96575  0.90463  1.0000
  C   C622      1.0  0.04268  0.68070  0.92164  1.0000
  H   H1041     1.0  0.41071  0.98882  0.77556  1.0000
  H   H1042     1.0  0.44680  0.96501  0.90385  1.0000
  H   H1043     1.0  0.39324  0.87977  0.80221  1.0000
  H   H1044     1.0  0.42901  0.81250  0.94220  1.0000
  Fe  Fe95      1.0  0.21979  0.58226  0.00661  1.0000
  N   N44       1.0  0.32347  0.87572  0.89624  1.0000
  C   C623      1.0  0.31873  0.88030  0.87613  1.0000
  C   C624      1.0  0.33778  0.85324  0.89788  1.0000
  C   C625      1.0  0.33729  0.89492  0.90150  1.0000
  C   C626      1.0  0.30090  0.87524  0.90749  1.0000
  C   C627      1.0  0.30496  0.90310  0.87099  1.0000
  C   C628      1.0  0.32682  0.83221  0.89117  1.0000
  C   C629      1.0  0.34500  0.89368  0.92135  1.0000
  C   C630      1.0  0.30103  0.86179  0.92652  1.0000
  H   H1045     1.0  0.33510  0.88004  0.86738  1.0000
  H   H1046     1.0  0.30878  0.86656  0.87124  1.0000
  H   H1047     1.0  0.34257  0.84857  0.91214  1.0000
  H   H1048     1.0  0.35456  0.85470  0.88995  1.0000
  H   H1049     1.0  0.35300  0.89616  0.89215  1.0000
  H   H1050     1.0  0.32755  0.91186  0.89975  1.0000
  H   H1051     1.0  0.29371  0.89308  0.90972  1.0000
  H   H1052     1.0  0.28805  0.86725  0.89968  1.0000
  H   H1053     1.0  0.31507  0.91827  0.87208  1.0000
  H   H1054     1.0  0.30088  0.90324  0.85629  1.0000
  H   H1055     1.0  0.28844  0.90511  0.87922  1.0000
  H   H1056     1.0  0.30848  0.83147  0.89576  1.0000
  H   H1057     1.0  0.32880  0.83193  0.87592  1.0000
  H   H1058     1.0  0.33596  0.81620  0.89674  1.0000
  H   H1059     1.0  0.35629  0.90796  0.92267  1.0000
  H   H1060     1.0  0.35527  0.87761  0.92500  1.0000
  H   H1061     1.0  0.33017  0.89636  0.93141  1.0000
  H   H1062     1.0  0.28845  0.87060  0.93622  1.0000
  H   H1063     1.0  0.31759  0.86033  0.93312  1.0000
  H   H1064     1.0  0.29485  0.84435  0.92563  1.0000
  N   N45       1.0  0.06437  0.64061  0.92193  1.0000
  C   C631      1.0  0.04198  0.62921  0.92139  1.0000
  C   C632      1.0  0.05908  0.66272  0.93142  1.0000
  C   C633      1.0  0.08061  0.62458  0.93287  1.0000
  C   C634      1.0  0.07384  0.64468  0.90236  1.0000
  C   C635      1.0  0.04373  0.60453  0.91479  1.0000
  C   C636      1.0  0.48929  0.87409  0.88169  1.0000
  C   C637      1.0  0.10018  0.63536  0.94185  1.0000
  C   C638      1.0  0.09539  0.65850  0.89914  1.0000
  H   H1065     1.0  0.35613  0.57013  0.99741  1.0000
  H   H1066     1.0  0.45779  0.82773  0.89845  1.0000
  H   H1067     1.0  0.07479  0.67160  0.93343  1.0000
  N   N46       1.0  0.47526  0.95583  0.87064  1.0000
  H   H1068     1.0  0.07105  0.61532  0.94448  1.0000
  H   H1069     1.0  0.08884  0.61094  0.92416  1.0000
  H   H1070     1.0  0.07868  0.62806  0.89617  1.0000
  H   H1071     1.0  0.06052  0.65270  0.89327  1.0000
  H   H1072     1.0  0.48592  0.84472  0.77025  1.0000
  H   H1073     1.0  0.37879  0.89514  0.77218  1.0000
  H   H1074     1.0  0.02510  0.67477  0.92139  1.0000
  H   H1075     1.0  0.05148  0.65900  0.94564  1.0000
  H   H1076     1.0  0.37676  0.96201  0.78161  1.0000
  H   H1077     1.0  0.00489  0.57246  0.82789  1.0000
  H   H1078     1.0  0.11201  0.62133  0.94755  1.0000
  H   H1079     1.0  0.09351  0.64555  0.95361  1.0000
  H   H1080     1.0  0.11065  0.64604  0.93199  1.0000
  H   H1081     1.0  0.11124  0.64700  0.90023  1.0000
  H   H1082     1.0  0.09586  0.67273  0.90833  1.0000
  H   H1083     1.0  0.09558  0.66688  0.88500  1.0000
  H   H1084     1.0  0.48794  0.94163  0.84480  1.0000
  H   H1085     1.0  0.44838  0.77212  0.93671  1.0000
  H   H1086     1.0  0.04930  0.68567  0.90744  1.0000
  C   C639      1.0  0.13926  0.50216  0.86112  1.0000
  C   C640      1.0  0.04160  0.53249  0.86171  1.0000
  H   H1087     1.0  0.49843  0.98330  0.87016  1.0000
  H   H1088     1.0  0.31588  0.61955  0.98686  1.0000
  C   C641      1.0  0.44761  0.80857  0.94394  1.0000
  H   H1089     1.0  0.45118  0.99711  0.87864  1.0000
  C   C642      1.0  0.45045  0.95224  0.86773  1.0000
  H   H1090     1.0  0.40224  0.96094  0.90304  1.0000
  H   H1091     1.0  0.05105  0.60390  0.90045  1.0000
  H   H1092     1.0  0.05656  0.53195  0.85158  1.0000
  H   H1093     1.0  0.33898  0.53591  0.99946  1.0000
  C   C643      1.0  0.14822  0.58514  0.77263  1.0000
  C   C644      1.0  0.39372  0.96272  0.89024  1.0000
  C   C645      1.0  0.37971  0.98663  0.86443  1.0000
  H   H1094     1.0  0.03281  0.62844  0.93529  1.0000
  C   C646      1.0  0.44855  0.79242  0.90319  1.0000
  C   C647      1.0  0.45083  0.78243  0.94852  1.0000
  H   H1095     1.0  0.45125  0.81662  0.95682  1.0000
  H   H1096     1.0  0.14468  0.51947  0.86057  1.0000
  H   H1097     1.0  0.00445  0.63921  0.81256  1.0000
  H   H1098     1.0  0.44773  0.79368  0.88796  1.0000
  C   C648      1.0  0.39087  0.98439  0.88094  1.0000
  H   H1099     1.0  0.45026  0.93943  0.83998  1.0000
  H   H1100     1.0  0.49515  0.81362  0.89720  1.0000
  H   H1101     1.0  0.43947  0.83176  0.77392  1.0000
  C   C649      1.0  0.44033  0.85818  0.93334  1.0000
  C   C650      1.0  0.45005  0.81672  0.90993  1.0000
  H   H1102     1.0  0.05371  0.59223  0.92392  1.0000
  H   H1103     1.0  0.04112  0.69656  0.92938  1.0000
  C   C651      1.0  0.48222  0.97954  0.86404  1.0000
  H   H1104     1.0  0.49788  0.95304  0.89328  1.0000
  H   H1105     1.0  0.31738  0.55613  0.98977  1.0000
  C   C652      1.0  0.47964  0.95083  0.89073  1.0000
  H   H1106     1.0  0.02656  0.54199  0.85560  1.0000
  C   C653      1.0  0.48579  0.80762  0.92697  1.0000
  C   C654      1.0  0.44361  0.95460  0.84758  1.0000
  H   H1107     1.0  0.33259  0.59382  0.98360  1.0000
  H   H1108     1.0  0.44592  0.93485  0.87347  1.0000
  N   N47       1.0  0.46166  0.81862  0.92760  1.0000
  H   H1109     1.0  0.40352  0.94940  0.77288  1.0000
  C   C655      1.0  0.03584  0.50830  0.86974  1.0000
  H   H1110     1.0  0.34775  0.99177  0.78850  1.0000
  C   C656      1.0  0.31740  0.60103  0.99154  1.0000
  H   H1111     1.0  0.44937  0.97057  0.84022  1.0000
  H   H1112     1.0  0.48606  0.78870  0.92635  1.0000
  H   H1113     1.0  0.47253  0.87274  0.76697  1.0000
  H   H1114     1.0  0.29272  0.68523  0.00545  1.0000
  H   H1115     1.0  0.43199  0.82397  0.91120  1.0000
  H   H1116     1.0  0.43006  0.85192  0.94574  1.0000
  H   H1117     1.0  0.19231  0.54984  0.77447  1.0000
  H   H1118     1.0  0.04635  0.54265  0.87311  1.0000
  H   H1119     1.0  0.44402  0.87620  0.93543  1.0000
  H   H1120     1.0  0.42992  0.85891  0.92111  1.0000
  C   C657      1.0  0.42641  0.84579  0.77355  1.0000
  H   H1121     1.0  0.47054  0.98378  0.90326  1.0000
  N   N48       1.0  0.21030  0.61527  0.87326  1.0000
  C   C658      1.0  0.19665  0.59418  0.87476  1.0000
  C   C659      1.0  0.19371  0.63625  0.87351  1.0000
  C   C660      1.0  0.22546  0.61551  0.88923  1.0000
  C   C661      1.0  0.22514  0.61511  0.85558  1.0000
  C   C662      1.0  0.21069  0.57084  0.87657  1.0000
  C   C663      1.0  0.18024  0.64174  0.85602  1.0000
  C   C664      1.0  0.21336  0.61222  0.90857  1.0000
  C   C665      1.0  0.23947  0.63625  0.85125  1.0000
  H   H1122     1.0  0.18365  0.59480  0.88659  1.0000
  H   H1123     1.0  0.18655  0.59346  0.86242  1.0000
  H   H1124     1.0  0.20259  0.65191  0.87600  1.0000
  H   H1125     1.0  0.18058  0.63448  0.88519  1.0000
  H   H1126     1.0  0.24001  0.60225  0.88814  1.0000
  H   H1127     1.0  0.23363  0.63218  0.88907  1.0000
  H   H1128     1.0  0.23770  0.59993  0.85572  1.0000
  H   H1129     1.0  0.21455  0.61328  0.84362  1.0000
  H   H1130     1.0  0.22151  0.56930  0.88857  1.0000
  H   H1131     1.0  0.19861  0.55691  0.87869  1.0000
  H   H1132     1.0  0.22133  0.56732  0.86381  1.0000
  H   H1133     1.0  0.19129  0.64813  0.84414  1.0000
  H   H1134     1.0  0.17165  0.62678  0.85193  1.0000
  H   H1135     1.0  0.16663  0.65553  0.85875  1.0000
  H   H1136     1.0  0.22593  0.61378  0.91916  1.0000
  H   H1137     1.0  0.20673  0.59492  0.91108  1.0000
  H   H1138     1.0  0.19923  0.62552  0.91099  1.0000
  H   H1139     1.0  0.22870  0.65257  0.85024  1.0000
  H   H1140     1.0  0.24907  0.63447  0.83771  1.0000
  H   H1141     1.0  0.25233  0.63754  0.86162  1.0000
  S   S191      1.0  0.46921  0.74032  0.00820  1.0000
  S   S192      1.0  0.25824  0.57963  0.00859  1.0000
  H   H1142     1.0  0.47242  0.85252  0.91821  1.0000
  H   H1143     1.0  0.36336  0.61109  0.00463  1.0000
  C   C666      1.0  0.46334  0.84387  0.93031  1.0000
  H   H1144     1.0  0.47370  0.84620  0.94230  1.0000
  H   H1145     1.0  0.46783  0.77759  0.95413  1.0000
  H   H1146     1.0  0.43852  0.96424  0.87531  1.0000
  H   H1147     1.0  0.00437  0.58684  0.80559  1.0000
  H   H1148     1.0  0.01924  0.51613  0.83572  1.0000
  Fe  Fe96      1.0  0.38996  0.77544  0.00755  1.0000
  H   H1149     1.0  0.32629  0.70691  0.01174  1.0000
  C   C667      1.0  0.00224  0.58960  0.82052  1.0000
  C   C668      1.0  0.49100  0.85653  0.86945  1.0000
  H   H1150     1.0  0.46958  0.95909  0.91877  1.0000
  H   H1151     1.0  0.22095  0.53952  0.76820  1.0000
  H   H1152     1.0  0.01601  0.60012  0.82451  1.0000
  C   C669      1.0  0.32166  0.54460  0.00183  1.0000
  C   C670      1.0  0.18369  0.60420  0.77162  1.0000
  H   H1153     1.0  0.30928  0.53088  0.00284  1.0000
  C   C671      1.0  0.48977  0.93828  0.85985  1.0000
  H   H1154     1.0  0.47660  0.93254  0.89491  1.0000
  H   H1155     1.0  0.37192  0.98992  0.80304  1.0000
  H   H1156     1.0  0.49406  0.81025  0.93998  1.0000
  H   H1157     1.0  0.48620  0.98030  0.84886  1.0000
  C   C672      1.0  0.46455  0.00001  0.86754  1.0000
  C   C673      1.0  0.38916  0.96215  0.76953  1.0000
  H   H1158     1.0  0.05006  0.50245  0.87872  1.0000
  C   C674      1.0  0.37144  0.59545  0.01167  1.0000
  C   C675      1.0  0.31932  0.59906  0.01260  1.0000
  C   C676      1.0  0.35639  0.57472  0.01190  1.0000
  C   C677      1.0  0.00128  0.59812  0.87293  1.0000
  C   C678      1.0  0.39885  0.98589  0.76470  1.0000
  H   H1159     1.0  0.19783  0.61199  0.76385  1.0000
  Fe  Fe97      1.0  0.61589  0.11663  0.17372  1.0000
  S   S193      1.0  0.58640  0.09429  0.17254  1.0000
  S   S194      1.0  0.62153  0.14867  0.15438  1.0000
  Fe  Fe98      1.0  0.63040  0.09211  0.21031  1.0000
  S   S195      1.0  0.60267  0.06733  0.21150  1.0000
  S   S196      1.0  0.65514  0.09139  0.23319  1.0000
  Fe  Fe99      1.0  0.61107  0.06487  0.18123  1.0000
  S   S197      1.0  0.60662  0.03272  0.16662  1.0000
  Fe  Fe100     1.0  0.58019  0.09813  0.20284  1.0000
  S   S198      1.0  0.54480  0.10323  0.21633  1.0000
  S   S199      1.0  0.64134  0.08683  0.18043  1.0000
  S   S200      1.0  0.60718  0.12329  0.20367  1.0000
  Fe  Fe101     1.0  0.89846  0.36344  0.15892  1.0000
  S   S201      1.0  0.90951  0.39814  0.14911  1.0000
  S   S202      1.0  0.88527  0.34133  0.13748  1.0000
  Fe  Fe102     1.0  0.91580  0.36815  0.19799  1.0000
  S   S203      1.0  0.92826  0.40305  0.19010  1.0000
  S   S204      1.0  0.92665  0.35332  0.22614  1.0000
  Fe  Fe103     1.0  0.89506  0.40934  0.17631  1.0000
  S   S205      1.0  0.87515  0.44344  0.17620  1.0000
  Fe  Fe104     1.0  0.94167  0.38827  0.16358  1.0000
  S   S206      1.0  0.97473  0.39827  0.14856  1.0000
  S   S207      1.0  0.88123  0.37529  0.18573  1.0000
  S   S208      1.0  0.93183  0.35271  0.17210  1.0000
  C   C679      1.0  0.61676  0.03426  0.25843  1.0000
  C   C680      1.0  0.79919  0.37099  0.10776  1.0000
  C   C681      1.0  0.80301  0.30595  0.07612  1.0000
  H   H1160     1.0  0.96165  0.40346  0.10590  1.0000
  C   C682      1.0  0.95060  0.32632  0.12966  1.0000
  H   H1161     1.0  0.73836  0.28160  0.04945  1.0000
  Fe  Fe105     1.0  0.64448  0.18412  0.04342  1.0000
  S   S209      1.0  0.64789  0.15705  0.06764  1.0000
  S   S210      1.0  0.63641  0.22262  0.04169  1.0000
  Fe  Fe106     1.0  0.82555  0.37094  0.03677  1.0000
  S   S211      1.0  0.78740  0.37899  0.03619  1.0000
  S   S212      1.0  0.84225  0.38130  0.06243  1.0000
  C   C683      1.0  0.77215  0.32943  0.10642  1.0000
  C   C684      1.0  0.54828  0.21613  0.02003  1.0000
  H   H1162     1.0  0.88439  0.49892  0.25162  1.0000
  H   H1163     1.0  0.68118  0.13976  0.14220  1.0000
  S   S213      1.0  0.82424  0.33829  0.02209  1.0000
  H   H1164     1.0  0.82149  0.47700  0.11144  1.0000
  C   C685      1.0  0.52637  0.22772  0.02043  1.0000
  H   H1165     1.0  0.50967  0.16740  0.05506  1.0000
  C   C686      1.0  0.91485  0.46497  0.21994  1.0000
  C   C687      1.0  0.92138  0.36014  0.07738  1.0000
  H   H1166     1.0  0.53378  0.02956  0.19079  1.0000
  H   H1167     1.0  0.59794  0.12184  0.08203  1.0000
  H   H1168     1.0  0.91167  0.37522  0.08323  1.0000
  C   C688      1.0  0.55336  0.05163  0.15006  1.0000
  C   C689      1.0  0.68146  0.12437  0.15193  1.0000
  H   H1169     1.0  0.95119  0.31910  0.10077  1.0000
  H   H1170     1.0  0.54330  0.09557  0.12990  1.0000
  C   C690      1.0  0.63745  0.00345  0.18559  1.0000
  C   C691      1.0  0.66628  0.13782  0.19207  1.0000
  H   H1171     1.0  0.96100  0.33854  0.13586  1.0000
  H   H1172     1.0  0.59800  0.16189  0.08044  1.0000
  H   H1173     1.0  0.93312  0.41174  0.11382  1.0000
  C   C692      1.0  0.58672  0.20800  0.07374  1.0000
  H   H1174     1.0  0.55626  0.05614  0.16423  1.0000
  C   C693      1.0  0.79884  0.45438  0.03058  1.0000
  C   C694      1.0  0.80261  0.47316  0.04096  1.0000
  C   C695      1.0  0.64337  0.09696  0.25561  1.0000
  H   H1175     1.0  0.55285  0.20738  0.06525  1.0000
  H   H1176     1.0  0.80576  0.43730  0.03474  1.0000
  H   H1177     1.0  0.54014  0.14543  0.06941  1.0000
  H   H1178     1.0  0.99069  0.32169  0.10646  1.0000
  H   H1179     1.0  0.51149  0.12091  0.17472  1.0000
  Fe  Fe107     1.0  0.66126  0.22348  0.01643  1.0000
  C   C696      1.0  0.89382  0.46506  0.16947  1.0000
  C   C697      1.0  0.88536  0.48804  0.16836  1.0000
  N   N49       1.0  0.68767  0.14529  0.18142  1.0000
  C   C698      1.0  0.93271  0.47723  0.16452  1.0000
  C   C699      1.0  0.91742  0.45968  0.16660  1.0000
  C   C700      1.0  0.85613  0.49985  0.22487  1.0000
  H   H1180     1.0  0.75054  0.33511  0.13135  1.0000
  H   H1181     1.0  0.92404  0.44203  0.16650  1.0000
  C   C701      1.0  0.87384  0.35262  0.11643  1.0000
  C   C702      1.0  0.86884  0.33747  0.10316  1.0000
  C   C703      1.0  0.85970  0.34583  0.08634  1.0000
  C   C704      1.0  0.85513  0.36948  0.08271  1.0000
  C   C705      1.0  0.86039  0.38458  0.09589  1.0000
  C   C706      1.0  0.86966  0.37625  0.11262  1.0000
  H   H1182     1.0  0.87211  0.31915  0.10592  1.0000
  H   H1183     1.0  0.85610  0.33400  0.07624  1.0000
  H   H1184     1.0  0.85694  0.40291  0.09327  1.0000
  H   H1185     1.0  0.87325  0.38815  0.12267  1.0000
  C   C707      1.0  0.62901  0.15062  0.13028  1.0000
  C   C708      1.0  0.63378  0.13113  0.12018  1.0000
  C   C709      1.0  0.63987  0.13352  0.10113  1.0000
  C   C710      1.0  0.64098  0.15537  0.09185  1.0000
  C   C711      1.0  0.63622  0.17488  0.10197  1.0000
  C   C712      1.0  0.63042  0.17248  0.12108  1.0000
  H   H1186     1.0  0.63290  0.11419  0.12703  1.0000
  H   H1187     1.0  0.64361  0.11830  0.09347  1.0000
  H   H1188     1.0  0.63720  0.19179  0.09510  1.0000
  H   H1189     1.0  0.62688  0.18769  0.12877  1.0000
  C   C713      1.0  0.87022  0.43951  0.22842  1.0000
  C   C714      1.0  0.52853  0.08061  0.21131  1.0000
  C   C715      1.0  0.53905  0.06101  0.20343  1.0000
  C   C716      1.0  0.00005  0.35814  0.15845  1.0000
  H   H1190     1.0  0.55747  0.05920  0.20109  1.0000
  C   C717      1.0  0.75006  0.33965  0.11633  1.0000
  H   H1191     1.0  0.90985  0.45607  0.20788  1.0000
  C   C718      1.0  0.73218  0.28330  0.03573  1.0000
  H   H1192     1.0  0.74820  0.35863  0.11515  1.0000
  H   H1193     1.0  0.79278  0.37500  0.07879  1.0000
  C   C719      1.0  0.50878  0.11443  0.16106  1.0000
  H   H1194     1.0  0.54201  0.16000  0.09828  1.0000
  C   C720      1.0  0.91558  0.36193  0.24814  1.0000
  H   H1195     1.0  0.96018  0.30923  0.13034  1.0000
  C   C721      1.0  0.58382  0.15585  0.07317  1.0000
  C   C722      1.0  0.55297  0.17451  0.09403  1.0000
  N   N50       1.0  0.89380  0.47500  0.23042  1.0000
  H   H1196     1.0  0.57264  0.15744  0.11654  1.0000
  H   H1197     1.0  0.56335  0.18638  0.11984  1.0000
  H   H1198     1.0  0.84299  0.48598  0.12579  1.0000
  C   C723      1.0  0.79399  0.49553  0.03567  1.0000
  H   H1199     1.0  0.57397  0.19311  0.05063  1.0000
  H   H1200     1.0  0.76825  0.37743  0.09392  1.0000
  C   C724      1.0  0.50466  0.08274  0.21424  1.0000
  C   C725      1.0  0.58071  0.13084  0.08056  1.0000
  H   H1201     1.0  0.67588  0.18130  0.18069  1.0000
  H   H1202     1.0  0.70860  0.16574  0.14814  1.0000
  C   C726      1.0  0.89496  0.37538  0.25048  1.0000
  H   H1203     1.0  0.87444  0.47710  0.20571  1.0000
  H   H1204     1.0  0.81170  0.34101  0.07098  1.0000
  H   H1205     1.0  0.88254  0.43197  0.21791  1.0000
  N   N51       1.0  0.78053  0.34205  0.08886  1.0000
  H   H1206     1.0  0.71387  0.12956  0.16279  1.0000
  H   H1207     1.0  0.51191  0.08012  0.17310  1.0000
  C   C727      1.0  0.70648  0.14838  0.19413  1.0000
  H   H1208     1.0  0.97973  0.43914  0.20730  1.0000
  H   H1209     1.0  0.94168  0.48898  0.22355  1.0000
  H   H1210     1.0  0.98350  0.37323  0.09479  1.0000
  H   H1211     1.0  0.52617  0.04286  0.13427  1.0000
  C   C728      1.0  0.70161  0.17769  0.15863  1.0000
  H   H1212     1.0  0.66365  0.12047  0.15625  1.0000
  C   C729      1.0  0.78125  0.49891  0.01999  1.0000
  C   C730      1.0  0.92432  0.50018  0.16502  1.0000
  H   H1213     1.0  0.56046  0.03358  0.14901  1.0000
  C   C731      1.0  0.50668  0.21611  0.01735  1.0000
  H   H1214     1.0  0.53139  0.07594  0.11612  1.0000
  H   H1215     1.0  0.89393  0.44427  0.24878  1.0000
  C   C732      1.0  0.71545  0.26855  0.03102  1.0000
  H   H1216     1.0  0.92477  0.49682  0.20402  1.0000
  H   H1217     1.0  0.86347  0.42496  0.23724  1.0000
  H   H1218     1.0  0.51887  0.04305  0.15824  1.0000
  H   H1219     1.0  0.96985  0.37916  0.22271  1.0000
  H   H1220     1.0  0.52357  0.12200  0.11159  1.0000
  H   H1221     1.0  0.84872  0.49049  0.23725  1.0000
  H   H1222     1.0  0.70356  0.16477  0.20115  1.0000
  H   H1223     1.0  0.69498  0.19365  0.15105  1.0000
  C   C733      1.0  0.97750  0.35797  0.10321  1.0000
  H   H1224     1.0  0.71567  0.18244  0.16687  1.0000
  C   C734      1.0  0.90004  0.49143  0.24412  1.0000
  H   H1225     1.0  0.93807  0.40338  0.09081  1.0000
  C   C735      1.0  0.94347  0.39957  0.10503  1.0000
  H   H1226     1.0  0.91996  0.36221  0.06222  1.0000
  H   H1227     1.0  0.60944  0.10741  0.24709  1.0000
  H   H1228     1.0  0.53773  0.09069  0.16286  1.0000
  C   C736      1.0  0.93924  0.37470  0.11229  1.0000
  C   C737      1.0  0.94702  0.35862  0.08159  1.0000
  H   H1229     1.0  0.54146  0.19047  0.09489  1.0000
  C   C738      1.0  0.74344  0.35806  0.07281  1.0000
  H   H1230     1.0  0.50734  0.09205  0.25355  1.0000
  H   H1231     1.0  0.92541  0.33278  0.10950  1.0000
  H   H1232     1.0  0.57191  0.12130  0.07069  1.0000
  H   H1233     1.0  0.66694  0.16652  0.16238  1.0000
  H   H1234     1.0  0.60356  0.19810  0.07392  1.0000
  H   H1235     1.0  0.83849  0.49562  0.08376  1.0000
  H   H1236     1.0  0.57136  0.12975  0.09424  1.0000
  H   H1237     1.0  0.68895  0.10973  0.14405  1.0000
  H   H1238     1.0  0.81237  0.47033  0.05311  1.0000
  H   H1239     1.0  0.70902  0.25578  0.04110  1.0000
  H   H1240     1.0  0.56344  0.06243  0.13993  1.0000
  H   H1241     1.0  0.59078  0.15522  0.05861  1.0000
  C   C739      1.0  0.57040  0.17463  0.10917  1.0000
  C   C740      1.0  0.94441  0.33319  0.10961  1.0000
  H   H1242     1.0  0.66800  0.16515  0.21203  1.0000
  C   C741      1.0  0.80343  0.33059  0.08262  1.0000
  H   H1243     1.0  0.97164  0.43591  0.18427  1.0000
  N   N52       1.0  0.56267  0.17211  0.07449  1.0000
  C   C742      1.0  0.62029  0.10452  0.25861  1.0000
  H   H1244     1.0  0.94575  0.47326  0.20328  1.0000
  H   H1245     1.0  0.66892  0.12023  0.19876  1.0000
  C   C743      1.0  0.74089  0.30019  0.02293  1.0000
  C   C744      1.0  0.54482  0.16262  0.06348  1.0000
  C   C745      1.0  0.93256  0.48220  0.21239  1.0000
  C   C746      1.0  0.97262  0.39541  0.22894  1.0000
  H   H1246     1.0  0.74890  0.37544  0.06818  1.0000
  C   C747      1.0  0.78450  0.36686  0.09156  1.0000
  H   H1247     1.0  0.81558  0.32936  0.09382  1.0000
  H   H1248     1.0  0.92041  0.37269  0.11305  1.0000
  C   C748      1.0  0.76419  0.34034  0.07381  1.0000
  H   H1249     1.0  0.69723  0.10970  0.17609  1.0000
  C   C749      1.0  0.51924  0.08955  0.16067  1.0000
  C   C750      1.0  0.88170  0.45553  0.24057  1.0000
  H   H1250     1.0  0.58955  0.22398  0.06498  1.0000
  H   H1251     1.0  0.94390  0.37321  0.12688  1.0000
  C   C751      1.0  0.83963  0.48136  0.11175  1.0000
  Fe  Fe108     1.0  0.78619  0.34730  0.01992  1.0000
  H   H1252     1.0  0.78576  0.32703  0.11654  1.0000
  N   N53       1.0  0.95207  0.35608  0.10170  1.0000
  H   H1253     1.0  0.69579  0.12830  0.21961  1.0000
  C   C752      1.0  0.00022  0.38094  0.15130  1.0000
  H   H1254     1.0  0.95476  0.37402  0.07464  1.0000
  H   H1255     1.0  0.58098  0.21363  0.08761  1.0000
  C   C753      1.0  0.69609  0.12688  0.16851  1.0000
  H   H1256     1.0  0.86708  0.49231  0.17004  1.0000
  H   H1257     1.0  0.95102  0.47297  0.16335  1.0000
  S   S214      1.0  0.76210  0.31835  0.02987  1.0000
  H   H1258     1.0  0.58736  0.18058  0.10444  1.0000
  H   H1259     1.0  0.86847  0.46197  0.25097  1.0000
  H   H1260     1.0  0.85040  0.46541  0.10890  1.0000
  H   H1261     1.0  0.88552  0.38122  0.23859  1.0000
  H   H1262     1.0  0.52461  0.24582  0.02300  1.0000
  H   H1263     1.0  0.80208  0.38961  0.10759  1.0000
  H   H1264     1.0  0.93188  0.47238  0.25322  1.0000
  H   H1265     1.0  0.81637  0.36185  0.10679  1.0000
  H   H1266     1.0  0.76853  0.31154  0.10378  1.0000
  H   H1267     1.0  0.79644  0.29374  0.08714  1.0000
  H   H1268     1.0  0.82088  0.29962  0.07215  1.0000
  S   S215      1.0  0.61612  0.17731  0.02556  1.0000
  H   H1269     1.0  0.73462  0.33262  0.11123  1.0000
  H   H1270     1.0  0.73218  0.35308  0.06219  1.0000
  H   H1271     1.0  0.98160  0.36124  0.11749  1.0000
  H   H1272     1.0  0.77349  0.34218  0.06009  1.0000
  C   C754      1.0  0.52561  0.04412  0.19768  1.0000
  H   H1273     1.0  0.51766  0.12594  0.15066  1.0000
  H   H1274     1.0  0.72585  0.13187  0.21649  1.0000
  H   H1275     1.0  0.79037  0.36620  0.12124  1.0000
  C   C755      1.0  0.56825  0.19512  0.06532  1.0000
  H   H1276     1.0  0.73285  0.35887  0.08586  1.0000
  H   H1277     1.0  0.75731  0.32296  0.07444  1.0000
  H   H1278     1.0  0.79308  0.30539  0.06369  1.0000
  C   C756      1.0  0.68181  0.16783  0.17101  1.0000
  H   H1279     1.0  0.93465  0.32470  0.13865  1.0000
  H   H1280     1.0  0.55176  0.15992  0.04911  1.0000
  H   H1281     1.0  0.92421  0.45138  0.22851  1.0000
  C   C757      1.0  0.65565  0.15415  0.20668  1.0000
  C   C758      1.0  0.52178  0.17712  0.06222  1.0000
  H   H1282     1.0  0.65253  0.13601  0.18257  1.0000
  H   H1283     1.0  0.98392  0.35050  0.16200  1.0000
  H   H1284     1.0  0.62182  0.01636  0.25491  1.0000
  H   H1285     1.0  0.64866  0.14383  0.21885  1.0000
  H   H1286     1.0  0.96154  0.40930  0.22234  1.0000
  C   C759      1.0  0.99316  0.33717  0.09710  1.0000
  H   H1287     1.0  0.72323  0.15005  0.18616  1.0000
  H   H1288     1.0  0.62214  0.04562  0.24633  1.0000
  H   H1289     1.0  0.95517  0.34384  0.07416  1.0000
  C   C760      1.0  0.71039  0.12882  0.20911  1.0000
  H   H1290     1.0  0.99065  0.33320  0.08273  1.0000
  H   H1291     1.0  0.91291  0.34426  0.08214  1.0000
  C   C761      1.0  0.87864  0.48802  0.21680  1.0000
  C   C762      1.0  0.78605  0.45772  0.01494  1.0000
  S   S216      1.0  0.67082  0.18505  0.01921  1.0000
  C   C763      1.0  0.52755  0.05294  0.14654  1.0000
  Fe  Fe109     1.0  0.60950  0.21528  0.02223  1.0000
  H   H1292     1.0  0.64143  0.16547  0.20093  1.0000
  H   H1293     1.0  0.52362  0.19346  0.05382  1.0000
  H   H1294     1.0  0.71338  0.11177  0.20321  1.0000
  C   C764      1.0  0.52679  0.08864  0.12674  1.0000
  H   H1295     1.0  0.85540  0.44845  0.22158  1.0000
  C   C765      1.0  0.98617  0.43381  0.19351  1.0000
  S   S217      1.0  0.57273  0.23140  0.02351  1.0000
  H   H1296     1.0  0.51357  0.18066  0.07595  1.0000
  H   H1297     1.0  0.64480  0.01869  0.18968  1.0000
  N   N54       1.0  0.51596  0.07676  0.14381  1.0000
  H   H1298     1.0  0.98160  0.39756  0.19329  1.0000
  C   C766      1.0  0.51214  0.10842  0.11703  1.0000
  H   H1299     1.0  0.59782  0.03674  0.26031  1.0000
  H   H1300     1.0  0.50448  0.10234  0.10481  1.0000
  H   H1301     1.0  0.96612  0.39342  0.24359  1.0000
  H   H1302     1.0  0.51482  0.13190  0.25264  1.0000
  C   C767      1.0  0.50167  0.04714  0.19946  1.0000
  C   C768      1.0  0.84547  0.50038  0.09682  1.0000
  C   C769      1.0  0.61845  0.00561  0.17471  1.0000
  H   H1303     1.0  0.86431  0.49888  0.09407  1.0000
  H   H1304     1.0  0.56694  0.18356  0.01659  1.0000
  C   C770      1.0  0.91588  0.48104  0.25906  1.0000
  C   C771      1.0  0.55028  0.19276  0.01673  1.0000
  H   H1305     1.0  0.94340  0.34382  0.26218  1.0000
  H   H1306     1.0  0.99185  0.36108  0.19731  1.0000
  C   C772      1.0  0.99618  0.40863  0.19381  1.0000
  C   C773      1.0  0.99809  0.40128  0.22810  1.0000
  H   H1307     1.0  0.99805  0.41846  0.23392  1.0000
  H   H1308     1.0  0.99918  0.44568  0.18770  1.0000
  H   H1309     1.0  0.84288  0.50058  0.21453  1.0000
  H   H1310     1.0  0.53767  0.11509  0.26264  1.0000
  H   H1311     1.0  0.99942  0.35311  0.22082  1.0000
  Fe  Fe110     1.0  0.59487  0.07522  0.37645  1.0000
  S   S218      1.0  0.61015  0.10878  0.36816  1.0000
  S   S219      1.0  0.56035  0.07078  0.39142  1.0000
  Fe  Fe111     1.0  0.63700  0.04793  0.36181  1.0000
  S   S220      1.0  0.65584  0.07911  0.35222  1.0000
  H   H1312     1.0  0.59393  0.06508  0.30788  1.0000
  Fe  Fe112     1.0  0.64257  0.09209  0.37981  1.0000
  S   S221      1.0  0.66394  0.11076  0.39864  1.0000
  Fe  Fe113     1.0  0.62189  0.09261  0.34156  1.0000
  S   S222      1.0  0.61243  0.11021  0.31401  1.0000
  S   S223      1.0  0.62629  0.05969  0.38989  1.0000
  S   S224      1.0  0.60408  0.06025  0.34936  1.0000
  Fe  Fe114     1.0  0.94613  0.35505  0.35255  1.0000
  S   S225      1.0  0.91236  0.34020  0.34905  1.0000
  S   S226      1.0  0.98047  0.33557  0.35217  1.0000
  Fe  Fe115     1.0  0.92492  0.40209  0.36081  1.0000
  S   S227      1.0  0.88926  0.39143  0.35801  1.0000
  S   S228      1.0  0.93762  0.43482  0.37023  1.0000
  Fe  Fe116     1.0  0.90027  0.35885  0.37444  1.0000
  S   S229      1.0  0.87623  0.34651  0.39852  1.0000
  Fe  Fe117     1.0  0.90433  0.37371  0.33283  1.0000
  S   S230      1.0  0.88519  0.37798  0.30634  1.0000
  S   S231      1.0  0.93474  0.37098  0.37892  1.0000
  S   S232      1.0  0.93909  0.38704  0.33451  1.0000
  H   H1313     1.0  0.55605  0.09572  0.35581  1.0000
  S   S233      1.0  0.90700  0.28090  0.46781  1.0000
  C   C774      1.0  0.51432  0.07941  0.38767  1.0000
  S   S234      1.0  0.68708  0.07662  0.48104  1.0000
  H   H1314     1.0  0.91316  0.17819  0.49328  1.0000
  H   H1315     1.0  0.58686  0.06307  0.28425  1.0000
  N   N55       1.0  0.59293  0.12935  0.42263  1.0000
  C   C775      1.0  0.66231  0.03586  0.30558  1.0000
  C   C776      1.0  0.89785  0.37252  0.28404  1.0000
  H   H1316     1.0  0.72790  0.05448  0.45986  1.0000
  H   H1317     1.0  0.98524  0.44013  0.39817  1.0000
  H   H1318     1.0  0.66953  0.02030  0.29889  1.0000
  H   H1319     1.0  0.58299  0.08087  0.42719  1.0000
  C   C777      1.0  0.91883  0.35972  0.28163  1.0000
  H   H1320     1.0  0.89013  0.14093  0.50176  1.0000
  C   C778      1.0  0.87690  0.14982  0.51072  1.0000
  H   H1321     1.0  0.93956  0.36412  0.43143  1.0000
  H   H1322     1.0  0.92805  0.35341  0.29354  1.0000
  H   H1323     1.0  0.63716  0.16706  0.41357  1.0000
  H   H1324     1.0  0.97785  0.38475  0.35410  1.0000
  H   H1325     1.0  0.92517  0.46741  0.43381  1.0000
  C   C779      1.0  0.91905  0.45954  0.37304  1.0000
  C   C780      1.0  0.89572  0.45995  0.36973  1.0000
  C   C781      1.0  0.92795  0.47905  0.37936  1.0000
  H   H1326     1.0  0.88871  0.44493  0.36490  1.0000
  H   H1327     1.0  0.94579  0.47864  0.38249  1.0000
  C   C782      1.0  0.88513  0.32872  0.41793  1.0000
  C   C783      1.0  0.86978  0.32569  0.43346  1.0000
  C   C784      1.0  0.87618  0.31148  0.44901  1.0000
  C   C785      1.0  0.89796  0.29991  0.44910  1.0000
  C   C786      1.0  0.91328  0.30307  0.43358  1.0000
  C   C787      1.0  0.90699  0.31743  0.41815  1.0000
  H   H1328     1.0  0.85280  0.33428  0.43348  1.0000
  H   H1329     1.0  0.86417  0.30918  0.46079  1.0000
  H   H1330     1.0  0.93014  0.29419  0.43345  1.0000
  H   H1331     1.0  0.91901  0.31948  0.40634  1.0000
  C   C788      1.0  0.62487  0.10466  0.29177  1.0000
  C   C789      1.0  0.61121  0.10861  0.27655  1.0000
  C   C790      1.0  0.64795  0.09702  0.28881  1.0000
  H   H1332     1.0  0.59341  0.11475  0.27867  1.0000
  H   H1333     1.0  0.65876  0.09438  0.30037  1.0000
  H   H1334     1.0  0.87440  0.43906  0.45877  1.0000
  H   H1335     1.0  0.68677  0.02941  0.47328  1.0000
  C   C791      1.0  0.91391  0.49921  0.38167  1.0000
  C   C792      1.0  0.67110  0.10059  0.42127  1.0000
  C   C793      1.0  0.66147  0.08130  0.43021  1.0000
  C   C794      1.0  0.66625  0.07469  0.44858  1.0000
  C   C795      1.0  0.68139  0.08664  0.45809  1.0000
  C   C796      1.0  0.69133  0.10573  0.44912  1.0000
  C   C797      1.0  0.68602  0.11277  0.43086  1.0000
  H   H1336     1.0  0.65003  0.07169  0.42309  1.0000
  H   H1337     1.0  0.65811  0.06019  0.45550  1.0000
  H   H1338     1.0  0.70297  0.11516  0.45625  1.0000
  H   H1339     1.0  0.69358  0.12774  0.42412  1.0000
  C   C798      1.0  0.50500  0.09964  0.26719  1.0000
  C   C799      1.0  0.53641  0.08210  0.37956  1.0000
  C   C800      1.0  0.53904  0.09344  0.36213  1.0000
  C   C801      1.0  0.51927  0.12091  0.26506  1.0000
  N   N56       1.0  0.83711  0.33103  0.35191  1.0000
  C   C802      1.0  0.82798  0.34387  0.36849  1.0000
  C   C803      1.0  0.84637  0.34862  0.33778  1.0000
  C   C804      1.0  0.85647  0.31443  0.35801  1.0000
  C   C805      1.0  0.81790  0.31840  0.34513  1.0000
  H   H1340     1.0  0.80794  0.31629  0.38259  1.0000
  C   C806      1.0  0.82898  0.36832  0.33172  1.0000
  C   C807      1.0  0.86959  0.30037  0.34308  1.0000
  C   C808      1.0  0.82014  0.31220  0.32471  1.0000
  H   H1341     1.0  0.84106  0.35515  0.37279  1.0000
  H   H1342     1.0  0.81286  0.35565  0.36512  1.0000
  H   H1343     1.0  0.85369  0.34089  0.32506  1.0000
  H   H1344     1.0  0.86113  0.35668  0.34311  1.0000
  H   H1345     1.0  0.86930  0.32369  0.36482  1.0000
  H   H1346     1.0  0.85017  0.30140  0.36859  1.0000
  H   H1347     1.0  0.81546  0.30222  0.35377  1.0000
  H   H1348     1.0  0.80135  0.32894  0.34674  1.0000
  H   H1349     1.0  0.82767  0.19886  0.50107  1.0000
  H   H1350     1.0  0.63079  0.05600  0.30906  1.0000
  C   C809      1.0  0.99477  0.37807  0.35743  1.0000
  H   H1351     1.0  0.82606  0.38112  0.34239  1.0000
  H   H1352     1.0  0.83616  0.37765  0.31911  1.0000
  H   H1353     1.0  0.81239  0.36204  0.32841  1.0000
  H   H1354     1.0  0.85873  0.28757  0.33802  1.0000
  H   H1355     1.0  0.88430  0.29038  0.34936  1.0000
  C   C810      1.0  0.50131  0.01115  0.35763  1.0000
  H   H1356     1.0  0.81274  0.29535  0.32362  1.0000
  H   H1357     1.0  0.83781  0.31053  0.31844  1.0000
  H   H1358     1.0  0.80962  0.32474  0.31612  1.0000
  N   N57       1.0  0.90413  0.41487  0.42431  1.0000
  C   C811      1.0  0.92578  0.39928  0.42577  1.0000
  C   C812      1.0  0.91161  0.43910  0.42095  1.0000
  C   C813      1.0  0.89236  0.40848  0.40772  1.0000
  C   C814      1.0  0.88908  0.41134  0.44172  1.0000
  C   C815      1.0  0.92257  0.37327  0.42922  1.0000
  H   H1359     1.0  0.51807  0.13099  0.27748  1.0000
  C   C816      1.0  0.86923  0.42153  0.40379  1.0000
  C   C817      1.0  0.87043  0.43067  0.44620  1.0000
  H   H1360     1.0  0.93734  0.40148  0.41307  1.0000
  S   S235      1.0  0.90084  0.23089  0.50536  1.0000
  H   H1361     1.0  0.89728  0.45166  0.41746  1.0000
  H   H1362     1.0  0.92370  0.44022  0.40856  1.0000
  H   H1363     1.0  0.90391  0.41062  0.39506  1.0000
  H   H1364     1.0  0.88847  0.39013  0.40898  1.0000
  H   H1365     1.0  0.88022  0.39506  0.44147  1.0000
  H   H1366     1.0  0.57164  0.00435  0.35558  1.0000
  H   H1367     1.0  0.61770  0.10172  0.41512  1.0000
  H   H1368     1.0  0.83499  0.32012  0.39263  1.0000
  H   H1369     1.0  0.91419  0.44629  0.45027  1.0000
  H   H1370     1.0  0.69946  0.00511  0.43725  1.0000
  C   C818      1.0  0.69538  0.02039  0.44543  1.0000
  H   H1371     1.0  0.81127  0.34034  0.39597  1.0000
  H   H1372     1.0  0.85571  0.41715  0.41455  1.0000
  H   H1373     1.0  0.86341  0.41591  0.39068  1.0000
  H   H1374     1.0  0.87035  0.44037  0.40188  1.0000
  H   H1375     1.0  0.85368  0.42299  0.44950  1.0000
  H   H1376     1.0  0.86762  0.44413  0.43510  1.0000
  C   C819      1.0  0.92373  0.44864  0.43675  1.0000
  H   H1377     1.0  0.61982  0.16497  0.43462  1.0000
  C   C820      1.0  0.60777  0.10791  0.42760  1.0000
  H   H1378     1.0  0.52485  0.00570  0.40053  1.0000
  H   H1379     1.0  0.80045  0.17053  0.49319  1.0000
  C   C821      1.0  0.60832  0.14589  0.41199  1.0000
  H   H1380     1.0  0.91607  0.36577  0.41718  1.0000
  H   H1381     1.0  0.98931  0.49924  0.34091  1.0000
  C   C822      1.0  0.65720  0.09337  0.27078  1.0000
  N   N58       1.0  0.71648  0.00505  0.47472  1.0000
  H   H1382     1.0  0.57544  0.14675  0.38625  1.0000
  H   H1383     1.0  0.64769  0.03942  0.27146  1.0000
  C   C823      1.0  0.99173  0.48690  0.35299  1.0000
  H   H1384     1.0  0.55612  0.15660  0.40499  1.0000
  H   H1385     1.0  0.59857  0.16124  0.40608  1.0000
  H   H1386     1.0  0.61702  0.13769  0.39979  1.0000
  H   H1387     1.0  0.59556  0.13966  0.45057  1.0000
  C   C824      1.0  0.88607  0.38044  0.26835  1.0000
  H   H1388     1.0  0.70754  0.03373  0.44133  1.0000
  C   C825      1.0  0.89063  0.49980  0.37822  1.0000
  C   C826      1.0  0.92933  0.17490  0.50046  1.0000
  H   H1389     1.0  0.55029  0.15981  0.43654  1.0000
  H   H1390     1.0  0.86346  0.48041  0.36983  1.0000
  C   C827      1.0  0.57455  0.12256  0.41072  1.0000
  H   H1391     1.0  0.52166  0.11091  0.33945  1.0000
  C   C828      1.0  0.62715  0.15512  0.42289  1.0000
  C   C829      1.0  0.56327  0.14141  0.39780  1.0000
  H   H1392     1.0  0.75577  0.04754  0.46859  1.0000
  H   H1393     1.0  0.58615  0.09104  0.44989  1.0000
  C   C830      1.0  0.00032  0.35437  0.35843  1.0000
  H   H1394     1.0  0.67855  0.01104  0.50173  1.0000
  H   H1395     1.0  0.71893  0.03653  0.48836  1.0000
  C   C831      1.0  0.56861  0.16213  0.43869  1.0000
  C   C832      1.0  0.51496  0.01486  0.38937  1.0000
  H   H1396     1.0  0.89985  0.40885  0.45388  1.0000
  H   H1397     1.0  0.90684  0.46885  0.26883  1.0000
  H   H1398     1.0  0.63966  0.14134  0.42779  1.0000
  C   C833      1.0  0.50399  0.03713  0.35289  1.0000
  C   C834      1.0  0.82045  0.18731  0.51176  1.0000
  H   H1399     1.0  0.98792  0.44926  0.37445  1.0000
  H   H1400     1.0  0.94152  0.44091  0.43764  1.0000
  H   H1401     1.0  0.99382  0.47900  0.39914  1.0000
  H   H1402     1.0  0.91133  0.36920  0.44166  1.0000
  C   C835      1.0  0.58243  0.13870  0.44026  1.0000
  Fe  Fe118     1.0  0.89608  0.26902  0.49758  1.0000
  N   N59       1.0  0.62333  0.02768  0.29311  1.0000
  H   H1403     1.0  0.74661  0.03092  0.45159  1.0000
  H   H1404     1.0  0.93577  0.40382  0.43733  1.0000
  H   H1405     1.0  0.58825  0.01983  0.28913  1.0000
  C   C836      1.0  0.82015  0.32898  0.38573  1.0000
  H   H1406     1.0  0.57550  0.17420  0.42776  1.0000
  C   C837      1.0  0.74034  0.04007  0.46388  1.0000
  C   C838      1.0  0.59791  0.02967  0.29831  1.0000
  C   C839      1.0  0.63581  0.03741  0.30801  1.0000
  H   H1407     1.0  0.63062  0.02977  0.32190  1.0000
  C   C840      1.0  0.88146  0.48000  0.37254  1.0000
  H   H1408     1.0  0.57032  0.12658  0.44720  1.0000
  C   C841      1.0  0.69433  0.01399  0.46635  1.0000
  H   H1409     1.0  0.56043  0.11453  0.41928  1.0000
  H   H1410     1.0  0.58171  0.10911  0.40148  1.0000
  H   H1411     1.0  0.93424  0.19090  0.50613  1.0000
  H   H1412     1.0  0.67818  0.02752  0.44147  1.0000
  H   H1413     1.0  0.70412  0.01701  0.51299  1.0000
  H   H1414     1.0  0.60804  0.07274  0.43930  1.0000
  H   H1415     1.0  0.61273  0.01506  0.38357  1.0000
  H   H1416     1.0  0.62073  0.11144  0.43740  1.0000
  C   C842      1.0  0.59514  0.08721  0.43649  1.0000
  H   H1417     1.0  0.92591  0.13902  0.50862  1.0000
  H   H1418     1.0  0.54803  0.02121  0.34686  1.0000
  H   H1419     1.0  0.52427  0.03053  0.38580  1.0000
  S   S236      1.0  0.74690  0.07615  0.50636  1.0000
  H   H1420     1.0  0.56952  0.17094  0.45166  1.0000
  H   H1421     1.0  0.62492  0.05967  0.27668  1.0000
  H   H1422     1.0  0.54880  0.13414  0.39142  1.0000
  S   S237      1.0  0.65070  0.01226  0.35617  1.0000
  H   H1423     1.0  0.87706  0.31121  0.33150  1.0000
  H   H1424     1.0  0.97449  0.48324  0.35925  1.0000
  H   H1425     1.0  0.59435  0.02177  0.31243  1.0000
  H   H1426     1.0  0.92086  0.49516  0.26722  1.0000
  C   C843      1.0  0.80493  0.17114  0.50732  1.0000
  H   H1427     1.0  0.94302  0.17015  0.48985  1.0000
  H   H1428     1.0  0.55685  0.02447  0.37009  1.0000
  H   H1429     1.0  0.66855  0.05117  0.29747  1.0000
  H   H1430     1.0  0.74383  0.01855  0.48905  1.0000
  C   C844      1.0  0.62892  0.04106  0.27524  1.0000
  H   H1431     1.0  0.51225  0.07105  0.40128  1.0000
  C   C845      1.0  0.55432  0.01215  0.35956  1.0000
  H   H1432     1.0  0.66957  0.03485  0.31936  1.0000
  C   C846      1.0  0.72996  0.02460  0.47977  1.0000
  H   H1433     1.0  0.51886  0.04437  0.35844  1.0000
  H   H1434     1.0  0.86980  0.39028  0.27004  1.0000
  C   C847      1.0  0.51956  0.10199  0.35286  1.0000
  Fe  Fe119     1.0  0.70938  0.08688  0.50361  1.0000
  C   C848      1.0  0.58638  0.05428  0.29820  1.0000
  H   H1435     1.0  0.50573  0.04036  0.33770  1.0000
  H   H1436     1.0  0.56799  0.05335  0.30282  1.0000
  H   H1437     1.0  0.86550  0.16011  0.50121  1.0000
  H   H1438     1.0  0.51359  0.08699  0.27708  1.0000
  H   H1439     1.0  0.50569  0.00203  0.34480  1.0000
  C   C849      1.0  0.99756  0.44629  0.38702  1.0000
  H   H1440     1.0  0.99981  0.47108  0.34725  1.0000
  H   H1441     1.0  0.99105  0.37647  0.30827  1.0000
  H   H1442     1.0  0.67509  0.08764  0.26859  1.0000
  C   C850      1.0  0.69497  0.00352  0.50697  1.0000
  C   C851      1.0  0.63054  0.00265  0.29093  1.0000
  C   C852      1.0  0.92751  0.35431  0.26381  1.0000
  Fe  Fe120     1.0  0.59570  0.05074  0.67434  1.0000
  S   S238      1.0  0.62929  0.05486  0.68640  1.0000
  S   S239      1.0  0.58410  0.01875  0.66340  1.0000
  Fe  Fe121     1.0  0.57849  0.09926  0.68068  1.0000
  S   S240      1.0  0.61119  0.10803  0.69285  1.0000
  S   S241      1.0  0.54525  0.12094  0.67907  1.0000
  Fe  Fe122     1.0  0.62885  0.08843  0.66933  1.0000
  S   S242      1.0  0.66245  0.09448  0.65240  1.0000
  Fe  Fe123     1.0  0.60897  0.07368  0.70873  1.0000
  S   S243      1.0  0.61358  0.06091  0.73876  1.0000
  S   S244      1.0  0.59621  0.08294  0.65613  1.0000
  S   S245      1.0  0.57536  0.06640  0.69785  1.0000
  H   H1443     1.0  0.97060  0.26490  0.51599  1.0000
  Fe  Fe124     1.0  0.89063  0.28080  0.53853  1.0000
  S   S246      1.0  0.89499  0.24376  0.54849  1.0000
  S   S247      1.0  0.89141  0.31198  0.55601  1.0000
  H   H1444     1.0  0.63872  0.00210  0.70554  1.0000
  H   H1445     1.0  0.81353  0.33267  0.66914  1.0000
  C   C853      1.0  0.98568  0.25611  0.52164  1.0000
  H   H1446     1.0  0.93663  0.29226  0.59541  1.0000
  H   H1447     1.0  0.52626  0.07616  0.71721  1.0000
  H   H1448     1.0  0.93995  0.31747  0.56253  1.0000
  H   H1449     1.0  0.52702  0.12151  0.73655  1.0000
  H   H1450     1.0  0.87354  0.16745  0.53541  1.0000
  H   H1451     1.0  0.70548  0.05061  0.59809  1.0000
  Fe  Fe125     1.0  0.73574  0.05888  0.53375  1.0000
  S   S248      1.0  0.69850  0.06801  0.53023  1.0000
  H   H1452     1.0  0.96815  0.36941  0.72204  1.0000
  Fe  Fe126     1.0  0.70330  0.09980  0.54458  1.0000
  S   S249      1.0  0.67452  0.11238  0.56495  1.0000
  S   S250      1.0  0.74023  0.09003  0.54980  1.0000
  Fe  Fe127     1.0  0.90879  0.34717  0.65917  1.0000
  S   S251      1.0  0.94273  0.36192  0.65113  1.0000
  S   S252      1.0  0.89365  0.32002  0.64305  1.0000
  Fe  Fe128     1.0  0.90438  0.37017  0.69653  1.0000
  S   S253      1.0  0.93769  0.38647  0.69085  1.0000
  S   S254      1.0  0.88543  0.37948  0.72343  1.0000
  Fe  Fe129     1.0  0.92639  0.39461  0.66239  1.0000
  S   S255      1.0  0.93414  0.42968  0.64972  1.0000
  Fe  Fe130     1.0  0.95059  0.35263  0.68048  1.0000
  S   S256      1.0  0.98401  0.33845  0.69088  1.0000
  S   S257      1.0  0.89159  0.38077  0.66841  1.0000
  S   S258      1.0  0.91812  0.33539  0.68815  1.0000
  C   C854      1.0  0.89816  0.46787  0.68777  1.0000
  C   C855      1.0  0.90735  0.44914  0.67788  1.0000
  C   C856      1.0  0.92267  0.45273  0.66258  1.0000
  C   C857      1.0  0.92901  0.47505  0.65743  1.0000
  H   H1453     1.0  0.66372  0.05859  0.60027  1.0000
  H   H1454     1.0  0.90227  0.43198  0.68190  1.0000
  H   H1455     1.0  0.94067  0.47794  0.64551  1.0000
  C   C858      1.0  0.66988  0.04089  0.59681  1.0000
  C   C859      1.0  0.98415  0.23442  0.53074  1.0000
  C   C860      1.0  0.90475  0.47697  0.76126  1.0000
  H   H1456     1.0  0.99183  0.27369  0.55734  1.0000
  H   H1457     1.0  0.95035  0.33034  0.59581  1.0000
  H   H1458     1.0  0.80702  0.35221  0.68681  1.0000
  H   H1459     1.0  0.71202  0.04127  0.63508  1.0000
  C   C861      1.0  0.89290  0.31334  0.58024  1.0000
  C   C862      1.0  0.88803  0.29479  0.59267  1.0000
  C   C863      1.0  0.88860  0.29707  0.61181  1.0000
  C   C864      1.0  0.89443  0.31771  0.61876  1.0000
  C   C865      1.0  0.89991  0.33603  0.60631  1.0000
  C   C866      1.0  0.89894  0.33390  0.58720  1.0000
  H   H1460     1.0  0.88327  0.27891  0.58756  1.0000
  H   H1461     1.0  0.88426  0.28280  0.62130  1.0000
  H   H1462     1.0  0.90429  0.35206  0.61141  1.0000
  H   H1463     1.0  0.90266  0.34838  0.57772  1.0000
  H   H1464     1.0  0.71480  0.18360  0.60441  1.0000
  S   S259      1.0  0.95752  0.22131  0.53406  1.0000
  H   H1465     1.0  0.51471  0.05363  0.65475  1.0000
  H   H1466     1.0  0.86954  0.32960  0.67827  1.0000
  S   S260      1.0  0.77478  0.13633  0.51450  1.0000
  C   C867      1.0  0.80125  0.15706  0.53910  1.0000
  S   S261      1.0  0.86505  0.27428  0.51758  1.0000
  H   H1467     1.0  0.98555  0.30775  0.53933  1.0000
  H   H1468     1.0  0.53278  0.02128  0.68139  1.0000
  C   C868      1.0  0.89110  0.38063  0.76056  1.0000
  H   H1469     1.0  0.93495  0.13923  0.56159  1.0000
  H   H1470     1.0  0.63599  0.05502  0.63377  1.0000
  H   H1471     1.0  0.88392  0.29060  0.67992  1.0000
  C   C869      1.0  0.79499  0.15595  0.52093  1.0000
  H   H1472     1.0  0.65131  0.01884  0.74291  1.0000
  C   C870      1.0  0.90259  0.18122  0.56048  1.0000
  C   C871      1.0  0.52613  0.00721  0.67408  1.0000
  H   H1473     1.0  0.60732  0.11033  0.74428  1.0000
  C   C872      1.0  0.66543  0.09907  0.62802  1.0000
  C   C873      1.0  0.64651  0.10480  0.61743  1.0000
  C   C874      1.0  0.64963  0.10871  0.59816  1.0000
  C   C875      1.0  0.67159  0.10639  0.58917  1.0000
  C   C876      1.0  0.69052  0.10038  0.59970  1.0000
  C   C877      1.0  0.68744  0.09694  0.61903  1.0000
  H   H1474     1.0  0.62949  0.10665  0.62412  1.0000
  H   H1475     1.0  0.63489  0.11354  0.59017  1.0000
  H   H1476     1.0  0.70753  0.09865  0.59301  1.0000
  H   H1477     1.0  0.70221  0.09254  0.62709  1.0000
  C   C878      1.0  0.52328  0.10501  0.67190  1.0000
  C   C879      1.0  0.52834  0.08330  0.66505  1.0000
  C   C880      1.0  0.61249  0.07720  0.75861  1.0000
  H   H1478     1.0  0.54597  0.07658  0.66326  1.0000
  H   H1479     1.0  0.92996  0.27941  0.56603  1.0000
  C   C881      1.0  0.81655  0.17337  0.54357  1.0000
  H   H1480     1.0  0.93527  0.17447  0.54570  1.0000
  H   H1481     1.0  0.51057  0.05536  0.74331  1.0000
  H   H1482     1.0  0.96384  0.47230  0.68296  1.0000
  C   C882      1.0  0.65448  0.01575  0.72809  1.0000
  H   H1483     1.0  0.70696  0.01235  0.64216  1.0000
  H   H1484     1.0  0.90672  0.33466  0.73519  1.0000
  H   H1485     1.0  0.63734  0.01181  0.63002  1.0000
  C   C883      1.0  0.53391  0.10423  0.73265  1.0000
  C   C884      1.0  0.96115  0.31546  0.60145  1.0000
  N   N60       1.0  0.96302  0.28991  0.57316  1.0000
  H   H1486     1.0  0.97272  0.43944  0.70160  1.0000
  H   H1487     1.0  0.94422  0.48680  0.74102  1.0000
  H   H1488     1.0  0.95483  0.32395  0.73350  1.0000
  C   C885      1.0  0.85571  0.32919  0.72278  1.0000
  H   H1489     1.0  0.90323  0.12264  0.53341  1.0000
  H   H1490     1.0  0.97645  0.49771  0.67539  1.0000
  C   C886      1.0  0.96664  0.31976  0.74476  1.0000
  H   H1491     1.0  0.88379  0.39813  0.75913  1.0000
  C   C887      1.0  0.98768  0.28054  0.57115  1.0000
  H   H1492     1.0  0.99367  0.33687  0.72925  1.0000
  C   C888      1.0  0.95561  0.29296  0.59318  1.0000
  S   S262      1.0  0.84544  0.20909  0.53679  1.0000
  H   H1493     1.0  0.98045  0.49584  0.64555  1.0000
  N   N61       1.0  0.66656  0.02418  0.61330  1.0000
  C   C889      1.0  0.51689  0.09222  0.72177  1.0000
  H   H1494     1.0  0.00006  0.32755  0.75172  1.0000
  C   C890      1.0  0.86787  0.29440  0.68851  1.0000
  H   H1495     1.0  0.89262  0.45177  0.74406  1.0000
  H   H1496     1.0  0.70272  0.02670  0.58358  1.0000
  C   C891      1.0  0.98624  0.33625  0.74369  1.0000
  H   H1497     1.0  0.93828  0.40025  0.73077  1.0000
  H   H1498     1.0  0.69501  0.20169  0.55176  1.0000
  H   H1499     1.0  0.96314  0.32926  0.53457  1.0000
  H   H1500     1.0  0.84869  0.31263  0.72753  1.0000
  H   H1501     1.0  0.80431  0.32659  0.72385  1.0000
  H   H1502     1.0  0.89584  0.47906  0.73208  1.0000
  C   C892      1.0  0.64100  0.02375  0.61788  1.0000
  H   H1503     1.0  0.93638  0.23803  0.57094  1.0000
  H   H1504     1.0  0.89315  0.13774  0.55280  1.0000
  H   H1505     1.0  0.96538  0.23954  0.57626  1.0000
  C   C893      1.0  0.94825  0.24894  0.57716  1.0000
  H   H1506     1.0  0.78671  0.32746  0.70411  1.0000
  H   H1507     1.0  0.85606  0.35418  0.70027  1.0000
  H   H1508     1.0  0.79084  0.30168  0.71823  1.0000
  C   C894      1.0  0.90770  0.13638  0.54222  1.0000
  C   C895      1.0  0.96680  0.31187  0.54126  1.0000
  H   H1509     1.0  0.61030  0.04369  0.62746  1.0000
  H   H1510     1.0  0.69402  0.05528  0.57616  1.0000
  H   H1511     1.0  0.71319  0.02056  0.61823  1.0000
  H   H1512     1.0  0.95684  0.31959  0.75826  1.0000
  C   C896      1.0  0.60924  0.10118  0.75753  1.0000
  H   H1513     1.0  0.84851  0.35454  0.65848  1.0000
  H   H1514     1.0  0.66803  0.16981  0.55621  1.0000
  S   S263      1.0  0.92079  0.27819  0.51794  1.0000
  H   H1515     1.0  0.79431  0.14537  0.54975  1.0000
  H   H1516     1.0  0.88594  0.46504  0.69934  1.0000
  H   H1517     1.0  0.84083  0.37436  0.67647  1.0000
  H   H1518     1.0  0.83034  0.29555  0.70857  1.0000
  C   C897      1.0  0.62825  0.04688  0.62254  1.0000
  C   C898      1.0  0.89454  0.36757  0.74497  1.0000
  H   H1519     1.0  0.82211  0.37162  0.65852  1.0000
  N   N62       1.0  0.90982  0.15872  0.53092  1.0000
  H   H1520     1.0  0.87283  0.29513  0.70280  1.0000
  H   H1521     1.0  0.85324  0.33983  0.73494  1.0000
  H   H1522     1.0  0.82939  0.35350  0.71227  1.0000
  S   S264      1.0  0.74045  0.02251  0.54695  1.0000
  C   C899      1.0  0.98536  0.43089  0.69185  1.0000
  H   H1523     1.0  0.90973  0.19532  0.56740  1.0000
  H   H1524     1.0  0.65554  0.03295  0.72072  1.0000
  C   C900      1.0  0.91696  0.17741  0.54230  1.0000
  C   C901      1.0  0.68128  0.17050  0.54464  1.0000
  H   H1525     1.0  0.96683  0.32664  0.56716  1.0000
  H   H1526     1.0  0.85089  0.31332  0.66685  1.0000
  H   H1527     1.0  0.98651  0.37530  0.66261  1.0000
  Fe  Fe131     1.0  0.87128  0.23634  0.52642  1.0000
  H   H1528     1.0  0.95745  0.29993  0.53380  1.0000
  C   C902      1.0  0.90382  0.34490  0.74705  1.0000
  H   H1529     1.0  0.53921  0.09366  0.74502  1.0000
  H   H1530     1.0  0.97660  0.42632  0.67966  1.0000
  C   C903      1.0  0.70382  0.02590  0.63102  1.0000
  H   H1531     1.0  0.62712  0.05909  0.61027  1.0000
  H   H1532     1.0  0.51400  0.10301  0.70898  1.0000
  C   C904      1.0  0.67772  0.03186  0.62979  1.0000
  H   H1533     1.0  0.87441  0.32654  0.71932  1.0000
  H   H1534     1.0  0.67141  0.00643  0.72551  1.0000
  H   H1535     1.0  0.66932  0.02436  0.64276  1.0000
  C   C905      1.0  0.69458  0.04305  0.58849  1.0000
  C   C906      1.0  0.82626  0.18874  0.53000  1.0000
  H   H1536     1.0  0.94531  0.15277  0.52098  1.0000
  H   H1537     1.0  0.67479  0.05078  0.63067  1.0000
  H   H1538     1.0  0.68656  0.15283  0.54081  1.0000
  H   H1539     1.0  0.81455  0.29923  0.68875  1.0000
  C   C907      1.0  0.98198  0.48810  0.70351  1.0000
  H   H1540     1.0  0.63337  0.01730  0.66540  1.0000
  H   H1541     1.0  0.82093  0.17406  0.55771  1.0000
  H   H1542     1.0  0.60298  0.01360  0.74828  1.0000
  Fe  Fe132     1.0  0.92384  0.24091  0.52672  1.0000
  C   C908      1.0  0.92038  0.49365  0.66766  1.0000
  C   C909      1.0  0.94819  0.27250  0.56623  1.0000
  H   H1543     1.0  0.99178  0.41448  0.69890  1.0000
  H   H1544     1.0  0.85699  0.27974  0.68750  1.0000
  N   N63       1.0  0.71605  0.17373  0.56455  1.0000
  C   C910      1.0  0.70196  0.18391  0.54896  1.0000
  C   C911      1.0  0.73234  0.19148  0.56856  1.0000
  C   C912      1.0  0.69979  0.16898  0.58112  1.0000
  C   C913      1.0  0.72843  0.15177  0.55839  1.0000
  C   C914      1.0  0.97994  0.48125  0.68358  1.0000
  C   C915      1.0  0.74989  0.19792  0.55267  1.0000
  C   C916      1.0  0.70993  0.16674  0.60024  1.0000
  C   C917      1.0  0.74652  0.13993  0.57098  1.0000
  H   H1545     1.0  0.92073  0.45978  0.73692  1.0000
  H   H1546     1.0  0.91610  0.19424  0.53425  1.0000
  H   H1547     1.0  0.74242  0.18613  0.58064  1.0000
  H   H1548     1.0  0.72250  0.20763  0.57250  1.0000
  H   H1549     1.0  0.68586  0.18296  0.58207  1.0000
  H   H1550     1.0  0.69097  0.15295  0.57972  1.0000
  H   H1551     1.0  0.71594  0.13863  0.55686  1.0000
  H   H1552     1.0  0.73668  0.15405  0.54423  1.0000
  C   C918      1.0  0.95863  0.31213  0.56179  1.0000
  H   H1553     1.0  0.96306  0.27856  0.60215  1.0000
  H   H1554     1.0  0.97947  0.31898  0.59950  1.0000
  H   H1555     1.0  0.76028  0.18269  0.54780  1.0000
  H   H1556     1.0  0.74156  0.20731  0.54090  1.0000
  H   H1557     1.0  0.76208  0.20958  0.55764  1.0000
  H   H1558     1.0  0.69651  0.16080  0.61062  1.0000
  H   H1559     1.0  0.95341  0.26872  0.55177  1.0000
  H   H1560     1.0  0.72468  0.15398  0.60115  1.0000
  H   H1561     1.0  0.73860  0.12726  0.58103  1.0000
  H   H1562     1.0  0.75610  0.15179  0.57827  1.0000
  H   H1563     1.0  0.75990  0.13055  0.56235  1.0000
  N   N64       1.0  0.83573  0.32744  0.69203  1.0000
  C   C919      1.0  0.82149  0.34296  0.67912  1.0000
  C   C920      1.0  0.82072  0.30883  0.70002  1.0000
  C   C921      1.0  0.85600  0.31709  0.68079  1.0000
  C   C922      1.0  0.84362  0.34191  0.70653  1.0000
  C   C923      1.0  0.83430  0.36179  0.66764  1.0000
  C   C924      1.0  0.79953  0.31698  0.71218  1.0000
  H   H1564     1.0  0.88446  0.18678  0.55809  1.0000
  C   C925      1.0  0.63475  0.00358  0.72058  1.0000
  H   H1565     1.0  0.90336  0.16589  0.57024  1.0000
  H   H1566     1.0  0.54973  0.10685  0.72366  1.0000
  C   C926      1.0  0.90473  0.49015  0.68274  1.0000
  H   H1567     1.0  0.94197  0.25037  0.59174  1.0000
  C   C927      1.0  0.90367  0.46660  0.74239  1.0000
  Fe  Fe133     1.0  0.74844  0.10856  0.52210  1.0000
  C   C928      1.0  0.96173  0.37056  0.73672  1.0000
  H   H1568     1.0  0.95671  0.31412  0.61653  1.0000
  H   H1569     1.0  0.63224  0.01710  0.60635  1.0000
  H   H1570     1.0  0.53033  0.01122  0.65924  1.0000
  H   H1571     1.0  0.71275  0.18551  0.53584  1.0000
  H   H1572     1.0  0.61952  0.01592  0.72137  1.0000
  H   H1573     1.0  0.65938  0.03649  0.58544  1.0000
  H   H1574     1.0  0.99062  0.26512  0.58068  1.0000
  H   H1575     1.0  0.96647  0.40788  0.73464  1.0000
  H   H1576     1.0  0.67289  0.17932  0.53263  1.0000
  H   H1577     1.0  0.97826  0.45355  0.65667  1.0000
  H   H1578     1.0  0.96461  0.48925  0.71058  1.0000
  H   H1579     1.0  0.94695  0.39868  0.75378  1.0000
  H   H1580     1.0  0.97406  0.30199  0.74283  1.0000
  N   N65       1.0  0.91774  0.49843  0.76120  1.0000
  H   H1581     1.0  0.99227  0.47543  0.71199  1.0000
  N   N66       1.0  0.97960  0.36027  0.74950  1.0000
  C   C929      1.0  0.00011  0.37468  0.74652  1.0000
  C   C930      1.0  0.92938  0.12704  0.55198  1.0000
  H   H1582     1.0  0.94606  0.36077  0.73825  1.0000
  H   H1583     1.0  0.92548  0.11102  0.56031  1.0000
  H   H1584     1.0  0.94379  0.12247  0.54198  1.0000
  C   C931      1.0  0.88667  0.16606  0.52376  1.0000
  C   C932      1.0  0.95318  0.39582  0.73937  1.0000
  C   C933      1.0  0.51058  0.07022  0.66032  1.0000
  H   H1585     1.0  0.99564  0.39249  0.75070  1.0000
  C   C934      1.0  0.94250  0.49188  0.75550  1.0000
  S   S265      1.0  0.71122  0.11990  0.51766  1.0000
  H   H1586     1.0  0.77257  0.00896  0.51662  1.0000
  C   C935      1.0  0.99324  0.48195  0.64145  1.0000
  H   H1587     1.0  0.50371  0.05664  0.70153  1.0000
  C   C936      1.0  0.99493  0.46176  0.65616  1.0000
  H   H1588     1.0  0.86668  0.13677  0.51867  1.0000
  H   H1589     1.0  0.98759  0.47547  0.62858  1.0000
  H   H1590     1.0  0.50806  0.07800  0.75840  1.0000
  H   H1591     1.0  0.88615  0.18378  0.51713  1.0000
  N   N67       1.0  0.00041  0.46778  0.67517  1.0000
  C   C937      1.0  0.92791  0.15515  0.51548  1.0000
  Fe  Fe134     1.0  0.61310  0.10479  0.84071  1.0000
  S   S266      1.0  0.59497  0.07399  0.85217  1.0000
  S   S267      1.0  0.61116  0.11824  0.81073  1.0000
  Fe  Fe135     1.0  0.62679  0.11682  0.87947  1.0000
  S   S268      1.0  0.60976  0.08672  0.89353  1.0000
  S   S269      1.0  0.64472  0.14261  0.89492  1.0000
  Fe  Fe136     1.0  0.62511  0.06691  0.86980  1.0000
  S   S270      1.0  0.64369  0.03196  0.87452  1.0000
  Fe  Fe137     1.0  0.58138  0.09653  0.87482  1.0000
  S   S271      1.0  0.54496  0.10079  0.88623  1.0000
  S   S272      1.0  0.64458  0.09633  0.85679  1.0000
  S   S273      1.0  0.59713  0.12805  0.86218  1.0000
  Fe  Fe138     1.0  0.64152  0.18072  0.00123  1.0000
  S   S274      1.0  0.63680  0.15200  0.98199  1.0000
  S   S275      1.0  0.63328  0.21880  0.99688  1.0000
  H   H1592     1.0  0.61685  0.06874  0.80534  1.0000
  S   S276      1.0  0.85413  0.34745  0.97243  1.0000
  Fe  Fe139     1.0  0.89769  0.37359  0.86541  1.0000
  S   S277      1.0  0.92999  0.39186  0.86735  1.0000
  S   S278      1.0  0.86763  0.38015  0.88681  1.0000
  Fe  Fe140     1.0  0.91467  0.35560  0.82721  1.0000
  S   S279      1.0  0.94810  0.37209  0.82717  1.0000
  S   S280      1.0  0.91156  0.33496  0.80210  1.0000
  Fe  Fe141     1.0  0.94830  0.35981  0.85689  1.0000
  S   S281      1.0  0.98064  0.34332  0.86868  1.0000
  Fe  Fe142     1.0  0.92673  0.40233  0.83733  1.0000
  S   S282      1.0  0.93139  0.43713  0.82307  1.0000
  S   S283      1.0  0.91631  0.34053  0.85657  1.0000
  S   S284      1.0  0.89303  0.38678  0.83581  1.0000
  H   H1593     1.0  0.53279  0.11025  0.84169  1.0000
  H   H1594     1.0  0.53254  0.16319  0.01072  1.0000
  H   H1595     1.0  0.97327  0.45184  0.87649  1.0000
  C   C938      1.0  0.93877  0.47859  0.83575  1.0000
  C   C939      1.0  0.94355  0.45481  0.83766  1.0000
  C   C940      1.0  0.95659  0.44526  0.85202  1.0000
  C   C941      1.0  0.96379  0.45938  0.86507  1.0000
  C   C942      1.0  0.87097  0.47542  0.89107  1.0000
  H   H1596     1.0  0.96079  0.42694  0.85326  1.0000
  H   H1597     1.0  0.56714  0.08191  0.81584  1.0000
  H   H1598     1.0  0.99789  0.33618  0.77976  1.0000
  C   C943      1.0  0.89681  0.37112  0.77809  1.0000
  C   C944      1.0  0.90524  0.34815  0.78026  1.0000
  H   H1599     1.0  0.86330  0.45826  0.85883  1.0000
  H   H1600     1.0  0.89254  0.49958  0.95694  1.0000
  Fe  Fe143     1.0  0.79549  0.39831  0.00923  1.0000
  C   C945      1.0  0.53148  0.09335  0.80948  1.0000
  H   H1601     1.0  0.89402  0.38131  0.79001  1.0000
  C   C946      1.0  0.60237  0.01146  0.87715  1.0000
  C   C947      1.0  0.85797  0.35763  0.94885  1.0000
  C   C948      1.0  0.87717  0.34898  0.93816  1.0000
  C   C949      1.0  0.88060  0.35590  0.91929  1.0000
  C   C950      1.0  0.86464  0.37133  0.91073  1.0000
  C   C951      1.0  0.84542  0.37999  0.92143  1.0000
  C   C952      1.0  0.84214  0.37332  0.94037  1.0000
  H   H1602     1.0  0.88952  0.33680  0.94450  1.0000
  H   H1603     1.0  0.89545  0.34902  0.91132  1.0000
  H   H1604     1.0  0.83291  0.39189  0.91498  1.0000
  H   H1605     1.0  0.82723  0.38007  0.94831  1.0000
  H   H1606     1.0  0.68273  0.10697  0.88263  1.0000
  H   H1607     1.0  0.85700  0.48828  0.00123  1.0000
  H   H1608     1.0  0.50329  0.05376  0.92387  1.0000
  C   C953      1.0  0.70713  0.27028  0.01333  1.0000
  C   C954      1.0  0.52708  0.08504  0.87431  1.0000
  C   C955      1.0  0.92972  0.44419  0.90339  1.0000
  S   S285      1.0  0.96358  0.50010  0.88154  1.0000
  C   C956      1.0  0.53581  0.06549  0.86543  1.0000
  C   C957      1.0  0.53071  0.18123  0.01348  1.0000
  H   H1609     1.0  0.55324  0.05882  0.86719  1.0000
  C   C958      1.0  0.64147  0.14578  0.91905  1.0000
  C   C959      1.0  0.62831  0.13122  0.93075  1.0000
  C   C960      1.0  0.62714  0.13345  0.94994  1.0000
  C   C961      1.0  0.63872  0.15049  0.95767  1.0000
  C   C962      1.0  0.65169  0.16523  0.94597  1.0000
  C   C963      1.0  0.65309  0.16282  0.92677  1.0000
  H   H1610     1.0  0.61926  0.11807  0.92505  1.0000
  H   H1611     1.0  0.61717  0.12188  0.95888  1.0000
  H   H1612     1.0  0.66088  0.17827  0.95173  1.0000
  H   H1613     1.0  0.66342  0.17408  0.91785  1.0000
  H   H1614     1.0  0.56235  0.08502  0.79149  1.0000
  H   H1615     1.0  0.53252  0.11343  0.77536  1.0000
  C   C964      1.0  0.61469  0.07783  0.79209  1.0000
  C   C965      1.0  0.61182  0.10186  0.79096  1.0000
  C   C966      1.0  0.60897  0.11340  0.77362  1.0000
  N   N68       1.0  0.53272  0.11862  0.81227  1.0000
  H   H1616     1.0  0.62468  0.04678  0.93538  1.0000
  H   H1617     1.0  0.92414  0.43113  0.91417  1.0000
  H   H1618     1.0  0.90639  0.47039  0.91364  1.0000
  H   H1619     1.0  0.85443  0.27824  0.95611  1.0000
  C   C967      1.0  0.95763  0.48295  0.86387  1.0000
  H   H1620     1.0  0.96907  0.32993  0.78796  1.0000
  C   C968      1.0  0.61506  0.06560  0.77598  1.0000
  H   H1621     1.0  0.52200  0.07708  0.91895  1.0000
  H   H1622     1.0  0.69355  0.07826  0.87796  1.0000
  H   H1623     1.0  0.94483  0.45196  0.90835  1.0000
  H   H1624     1.0  0.85677  0.43937  0.92433  1.0000
  H   H1625     1.0  0.50199  0.12773  0.79765  1.0000
  H   H1626     1.0  0.91062  0.43793  0.87043  1.0000
  C   C969      1.0  0.87514  0.43399  0.92135  1.0000
  C   C970      1.0  0.77715  0.48003  0.00979  1.0000
  C   C971      1.0  0.87790  0.44515  0.85943  1.0000
  H   H1627     1.0  0.99211  0.49382  0.82202  1.0000
  C   C972      1.0  0.51231  0.06724  0.93000  1.0000
  C   C973      1.0  0.54187  0.14530  0.83756  1.0000
  C   C974      1.0  0.54836  0.12995  0.79774  1.0000
  H   H1628     1.0  0.89063  0.48808  0.79668  1.0000
  C   C975      1.0  0.55467  0.07989  0.80533  1.0000
  C   C976      1.0  0.88005  0.49100  0.96678  1.0000
  H   H1629     1.0  0.56031  0.11372  0.83098  1.0000
  H   H1630     1.0  0.50173  0.12585  0.93043  1.0000
  C   C977      1.0  0.67059  0.08086  0.90289  1.0000
  C   C978      1.0  0.68926  0.04397  0.91524  1.0000
  H   H1631     1.0  0.63593  0.04958  0.91209  1.0000
  H   H1632     1.0  0.56649  0.12334  0.79889  1.0000
  S   S286      1.0  0.83354  0.39192  0.01036  1.0000
  H   H1633     1.0  0.65800  0.02623  0.81683  1.0000
  H   H1634     1.0  0.72620  0.04595  0.91895  1.0000
  H   H1635     1.0  0.87168  0.42806  0.86398  1.0000
  H   H1636     1.0  0.66202  0.05705  0.94665  1.0000
  C   C979      1.0  0.68523  0.10410  0.93590  1.0000
  H   H1637     1.0  0.55356  0.15619  0.82883  1.0000
  H   H1638     1.0  0.93000  0.49675  0.78883  1.0000
  H   H1639     1.0  0.80353  0.29188  0.01298  1.0000
  H   H1640     1.0  0.64655  0.07967  0.93438  1.0000
  H   H1641     1.0  0.85417  0.46866  0.88856  1.0000
  H   H1642     1.0  0.81473  0.46565  0.97763  1.0000
  H   H1643     1.0  0.58569  0.23851  0.98317  1.0000
  C   C980      1.0  0.89691  0.45189  0.87144  1.0000
  H   H1644     1.0  0.68866  0.03174  0.92763  1.0000
  H   H1645     1.0  0.89303  0.41921  0.89750  1.0000
  C   C981      1.0  0.94569  0.49264  0.84893  1.0000
  H   H1646     1.0  0.93576  0.43539  0.89084  1.0000
  H   H1647     1.0  0.83862  0.45037  0.00119  1.0000
  C   C982      1.0  0.88094  0.43435  0.90040  1.0000
  H   H1648     1.0  0.92871  0.48602  0.82464  1.0000
  H   H1649     1.0  0.71103  0.08209  0.92283  1.0000
  H   H1650     1.0  0.87838  0.41616  0.92736  1.0000
  N   N69       1.0  0.88971  0.45620  0.89127  1.0000
  H   H1651     1.0  0.61758  0.04707  0.77697  1.0000
  Fe  Fe144     1.0  0.82884  0.36024  0.99544  1.0000
  H   H1652     1.0  0.68155  0.11568  0.92363  1.0000
  C   C983      1.0  0.71464  0.04287  0.90798  1.0000
  H   H1653     1.0  0.65840  0.09560  0.90647  1.0000
  H   H1654     1.0  0.91838  0.47776  0.89152  1.0000
  H   H1655     1.0  0.90442  0.46739  0.86438  1.0000
  H   H1656     1.0  0.55183  0.06127  0.80542  1.0000
  N   N70       1.0  0.58065  0.20591  0.95527  1.0000
  C   C984      1.0  0.59189  0.19195  0.93999  1.0000
  C   C985      1.0  0.58592  0.19280  0.97319  1.0000
  C   C986      1.0  0.59181  0.22854  0.95424  1.0000
  C   C987      1.0  0.55526  0.20938  0.95247  1.0000
  C   C988      1.0  0.59083  0.20294  0.92020  1.0000
  C   C989      1.0  0.57644  0.16873  0.97611  1.0000
  C   C990      1.0  0.58360  0.24563  0.96889  1.0000
  C   C991      1.0  0.53924  0.21567  0.96940  1.0000
  H   H1657     1.0  0.61035  0.18781  0.94233  1.0000
  H   H1658     1.0  0.58413  0.17513  0.93972  1.0000
  H   H1659     1.0  0.57975  0.20234  0.98532  1.0000
  H   H1660     1.0  0.60483  0.19052  0.97441  1.0000
  H   H1661     1.0  0.61079  0.22547  0.95500  1.0000
  H   H1662     1.0  0.58900  0.23822  0.94086  1.0000
  H   H1663     1.0  0.55203  0.22295  0.94132  1.0000
  H   H1664     1.0  0.54889  0.19341  0.94757  1.0000
  H   H1665     1.0  0.60235  0.21728  0.91774  1.0000
  H   H1666     1.0  0.59722  0.18981  0.91037  1.0000
  H   H1667     1.0  0.57311  0.20875  0.91671  1.0000
  H   H1668     1.0  0.57986  0.16167  0.99026  1.0000
  H   H1669     1.0  0.55768  0.16920  0.97472  1.0000
  H   H1670     1.0  0.58539  0.15637  0.96675  1.0000
  H   H1671     1.0  0.52513  0.05826  0.93902  1.0000
  H   H1672     1.0  0.56565  0.25242  0.96714  1.0000
  H   H1673     1.0  0.59432  0.26070  0.96705  1.0000
  H   H1674     1.0  0.91228  0.46331  0.77093  1.0000
  H   H1675     1.0  0.54778  0.22169  0.98108  1.0000
  H   H1676     1.0  0.52003  0.09047  0.79836  1.0000
  N   N71       1.0  0.79738  0.29916  0.96522  1.0000
  C   C992      1.0  0.79908  0.30529  0.98487  1.0000
  C   C993      1.0  0.79782  0.32109  0.95305  1.0000
  C   C994      1.0  0.81719  0.28297  0.95916  1.0000
  C   C995      1.0  0.77544  0.28741  0.96395  1.0000
  H   H1677     1.0  0.76701  0.48270  0.99783  1.0000
  C   C996      1.0  0.77534  0.33656  0.95337  1.0000
  H   H1678     1.0  0.78638  0.27475  0.00089  1.0000
  C   C997      1.0  0.77044  0.28046  0.94456  1.0000
  H   H1679     1.0  0.81363  0.31633  0.98605  1.0000
  H   H1680     1.0  0.78354  0.31588  0.98959  1.0000
  H   H1681     1.0  0.80262  0.31760  0.93842  1.0000
  H   H1682     1.0  0.81155  0.33189  0.95690  1.0000
  H   H1683     1.0  0.81643  0.26590  0.96681  1.0000
  H   H1684     1.0  0.81615  0.27929  0.94444  1.0000
  H   H1685     1.0  0.77552  0.27121  0.97286  1.0000
  H   H1686     1.0  0.76026  0.29775  0.96967  1.0000
  C   C998      1.0  0.54198  0.12863  0.77759  1.0000
  H   H1687     1.0  0.96973  0.37842  0.77412  1.0000
  C   C999      1.0  0.64490  0.01331  0.81689  1.0000
  H   H1688     1.0  0.76842  0.33965  0.96755  1.0000
  H   H1689     1.0  0.77874  0.35355  0.94633  1.0000
  H   H1690     1.0  0.76202  0.32914  0.94581  1.0000
  H   H1691     1.0  0.70959  0.28889  0.98684  1.0000
  H   H1692     1.0  0.86481  0.45340  0.98711  1.0000
  C   C1000     1.0  0.84128  0.29159  0.96075  1.0000
  H   H1693     1.0  0.77701  0.26244  0.94250  1.0000
  H   H1694     1.0  0.77795  0.29166  0.93326  1.0000
  H   H1695     1.0  0.75160  0.28190  0.94302  1.0000
  H   H1696     1.0  0.66984  0.10365  0.94557  1.0000
  H   H1697     1.0  0.59423  0.02855  0.87516  1.0000
  H   H1698     1.0  0.80098  0.48670  0.95232  1.0000
  C   C1001     1.0  0.68931  0.09024  0.88910  1.0000
  C   C1002     1.0  0.69430  0.07989  0.93049  1.0000
  H   H1699     1.0  0.64125  0.01108  0.80241  1.0000
  H   H1700     1.0  0.52867  0.03949  0.84725  1.0000
  H   H1701     1.0  0.60680  0.13198  0.77259  1.0000
  S   S287      1.0  0.79092  0.36762  0.99260  1.0000
  H   H1702     1.0  0.53144  0.14429  0.77306  1.0000
  H   H1703     1.0  0.84454  0.43369  0.98164  1.0000
  H   H1704     1.0  0.54827  0.14415  0.85166  1.0000
  H   H1705     1.0  0.99964  0.46852  0.83558  1.0000
  H   H1706     1.0  0.71794  0.05472  0.89584  1.0000
  H   H1707     1.0  0.71950  0.02523  0.90359  1.0000
  H   H1708     1.0  0.91506  0.31733  0.76624  1.0000
  H   H1709     1.0  0.98577  0.38949  0.85288  1.0000
  H   H1710     1.0  0.86491  0.43014  0.89428  1.0000
  H   H1711     1.0  0.69860  0.11196  0.94315  1.0000
  H   H1712     1.0  0.87437  0.48835  0.87944  1.0000
  C   C1003     1.0  0.86704  0.48953  0.90829  1.0000
  C   C1004     1.0  0.52183  0.05439  0.85437  1.0000
  H   H1713     1.0  0.52903  0.20092  0.97442  1.0000
  H   H1714     1.0  0.88600  0.44457  0.92877  1.0000
  H   H1715     1.0  0.69874  0.06966  0.94337  1.0000
  N   N72       1.0  0.67828  0.06721  0.91995  1.0000
  C   C1005     1.0  0.65715  0.06329  0.93256  1.0000
  C   C1006     1.0  0.64078  0.04591  0.92644  1.0000
  C   C1007     1.0  0.54214  0.12078  0.83084  1.0000
  H   H1716     1.0  0.64830  0.02796  0.92793  1.0000
  C   C1008     1.0  0.80177  0.28494  0.99934  1.0000
  C   C1009     1.0  0.71593  0.28714  0.00051  1.0000
  H   H1717     1.0  0.70518  0.09417  0.89530  1.0000
  H   H1718     1.0  0.88525  0.44367  0.84508  1.0000
  C   C1010     1.0  0.91064  0.46336  0.90000  1.0000
  H   H1719     1.0  0.67943  0.03631  0.90479  1.0000
  H   H1720     1.0  0.66023  0.07035  0.89481  1.0000
  H   H1721     1.0  0.54892  0.14857  0.79992  1.0000
  H   H1722     1.0  0.83705  0.46510  0.95993  1.0000
  H   H1723     1.0  0.62925  0.02075  0.82435  1.0000
  H   H1724     1.0  0.95109  0.35714  0.76968  1.0000
  C   C1011     1.0  0.73251  0.30203  0.00527  1.0000
  H   H1725     1.0  0.81744  0.27367  0.99652  1.0000
  C   C1012     1.0  0.98069  0.34387  0.78372  1.0000
  H   H1726     1.0  0.52647  0.22971  0.96524  1.0000
  H   H1727     1.0  0.52438  0.15383  0.83871  1.0000
  N   N73       1.0  0.83677  0.49428  0.97707  1.0000
  H   H1728     1.0  0.73850  0.31517  0.99536  1.0000
  H   H1729     1.0  0.50652  0.09347  0.94932  1.0000
  H   H1730     1.0  0.84470  0.29484  0.97511  1.0000
  S   S288      1.0  0.68601  0.25199  0.00636  1.0000
  H   H1731     1.0  0.98245  0.35302  0.79641  1.0000
  C   C1013     1.0  0.62624  0.00841  0.87782  1.0000
  C   C1014     1.0  0.96956  0.36082  0.76911  1.0000
  H   H1732     1.0  0.50385  0.11047  0.91040  1.0000
  H   H1733     1.0  0.88596  0.49268  0.98075  1.0000
  S   S289      1.0  0.78140  0.43465  0.00124  1.0000
  H   H1734     1.0  0.84393  0.30732  0.95172  1.0000
  H   H1735     1.0  0.86443  0.47876  0.92115  1.0000
  H   H1736     1.0  0.50952  0.14930  0.81154  1.0000
  C   C1015     1.0  0.84629  0.45093  0.98683  1.0000
  C   C1016     1.0  0.50419  0.09300  0.87268  1.0000
  H   H1737     1.0  0.55794  0.12722  0.76848  1.0000
  H   H1738     1.0  0.60912  0.00361  0.77070  1.0000
  H   H1739     1.0  0.88078  0.47272  0.96346  1.0000
  H   H1740     1.0  0.88670  0.47979  0.76664  1.0000
  H   H1741     1.0  0.82708  0.48988  0.00606  1.0000
  C   C1017     1.0  0.83313  0.46927  0.97454  1.0000
  C   C1018     1.0  0.90869  0.33513  0.76466  1.0000
  C   C1019     1.0  0.50903  0.13033  0.81114  1.0000
  H   H1742     1.0  0.52334  0.08447  0.82192  1.0000
  C   C1020     1.0  0.84085  0.49759  0.99695  1.0000
  H   H1743     1.0  0.85134  0.50121  0.90684  1.0000
  H   H1744     1.0  0.88132  0.50085  0.90945  1.0000
  H   H1745     1.0  0.94902  0.47660  0.76409  1.0000
  H   H1746     1.0  0.85256  0.50088  0.94966  1.0000
  C   C1021     1.0  0.50880  0.19280  0.01374  1.0000
  Fe  Fe145     1.0  0.61099  0.86532  0.21205  1.0000
  S   S290      1.0  0.59841  0.90210  0.20657  1.0000
  S   S291      1.0  0.60925  0.84638  0.24052  1.0000
  Fe  Fe146     1.0  0.62394  0.85852  0.17029  1.0000
  S   S292      1.0  0.61312  0.89528  0.16213  1.0000
  S   S293      1.0  0.63669  0.83005  0.15105  1.0000
  Fe  Fe147     1.0  0.62987  0.90441  0.18743  1.0000
  S   S294      1.0  0.65165  0.93427  0.19065  1.0000
  Fe  Fe148     1.0  0.58278  0.88977  0.18199  1.0000
  S   S295      1.0  0.54768  0.90181  0.17302  1.0000
  S   S296      1.0  0.64365  0.86805  0.19414  1.0000
  S   S297      1.0  0.59253  0.85259  0.18890  1.0000
  Fe  Fe149     1.0  0.90188  0.56726  0.21761  1.0000
  S   S298      1.0  0.93846  0.56471  0.20637  1.0000
  S   S299      1.0  0.89351  0.55250  0.24675  1.0000
  Fe  Fe150     1.0  0.88444  0.58603  0.17970  1.0000
  S   S300      1.0  0.91999  0.58571  0.16617  1.0000
  S   S301      1.0  0.85244  0.59632  0.16390  1.0000
  Fe  Fe151     1.0  0.92496  0.55127  0.18130  1.0000
  S   S302      1.0  0.94335  0.52162  0.16702  1.0000
  Fe  Fe152     1.0  0.93008  0.59927  0.19244  1.0000
  S   S303      1.0  0.95429  0.62739  0.19379  1.0000
  S   S304      1.0  0.88887  0.55069  0.19364  1.0000
  S   S305      1.0  0.89393  0.60284  0.20508  1.0000
  Fe  Fe153     1.0  0.81922  0.59722  0.05615  1.0000
  S   S306      1.0  0.78402  0.58339  0.05967  1.0000
  S   S307      1.0  0.84556  0.60478  0.07662  1.0000
  Fe  Fe154     1.0  0.77566  0.60571  0.03391  1.0000
  C   C1022     1.0  0.62698  0.64859  0.07322  1.0000
  Fe  Fe155     1.0  0.79822  0.55665  0.04016  1.0000
  S   S308      1.0  0.79944  0.51850  0.04919  1.0000
  S   S309      1.0  0.81001  0.62132  0.03181  1.0000
  S   S310      1.0  0.83353  0.56954  0.03794  1.0000
  Fe  Fe156     1.0  0.62287  0.78573  0.04896  1.0000
  S   S311      1.0  0.62401  0.74808  0.05736  1.0000
  S   S312      1.0  0.61754  0.81682  0.06681  1.0000
  Fe  Fe157     1.0  0.64995  0.74316  0.03327  1.0000
  S   S313      1.0  0.68376  0.72167  0.03908  1.0000
  Fe  Fe158     1.0  0.59715  0.74545  0.03676  1.0000
  S   S314      1.0  0.56582  0.72513  0.04531  1.0000
  C   C1023     1.0  0.59814  0.69290  0.08278  1.0000
  S   S315      1.0  0.59438  0.78326  0.02999  1.0000
  C   C1024     1.0  0.66406  0.87135  0.23878  1.0000
  C   C1025     1.0  0.53906  0.72980  0.03491  1.0000
  C   C1026     1.0  0.58286  0.79636  0.17411  1.0000
  C   C1027     1.0  0.79804  0.54797  0.10749  1.0000
  C   C1028     1.0  0.72636  0.65274  0.02958  1.0000
  H   H1747     1.0  0.62620  0.64956  0.08847  1.0000
  C   C1029     1.0  0.56049  0.85071  0.12988  1.0000
  C   C1030     1.0  0.70031  0.69546  0.03430  1.0000
  H   H1748     1.0  0.80443  0.55581  0.11947  1.0000
  H   H1749     1.0  0.64435  0.68796  0.03806  1.0000
  H   H1750     1.0  0.54759  0.86574  0.20214  1.0000
  C   C1031     1.0  0.60949  0.88315  0.26288  1.0000
  H   H1751     1.0  0.65028  0.70166  0.06736  1.0000
  S   S316      1.0  0.74120  0.62516  0.02667  1.0000
  H   H1752     1.0  0.83442  0.53524  0.07227  1.0000
  H   H1753     1.0  0.59536  0.79908  0.13875  1.0000
  C   C1032     1.0  0.50677  0.88250  0.17198  1.0000
  C   C1033     1.0  0.85060  0.59589  0.13964  1.0000
  C   C1034     1.0  0.82900  0.59957  0.13207  1.0000
  C   C1035     1.0  0.82699  0.60121  0.11281  1.0000
  C   C1036     1.0  0.84667  0.59973  0.10089  1.0000
  C   C1037     1.0  0.86822  0.59560  0.10846  1.0000
  C   C1038     1.0  0.87018  0.59327  0.12769  1.0000
  H   H1754     1.0  0.81374  0.60165  0.14117  1.0000
  H   H1755     1.0  0.81031  0.60463  0.10722  1.0000
  H   H1756     1.0  0.88357  0.59452  0.09937  1.0000
  H   H1757     1.0  0.88691  0.59032  0.13325  1.0000
  H   H1758     1.0  0.67818  0.68388  0.01483  1.0000
  H   H1759     1.0  0.51495  0.95222  0.16533  1.0000
  C   C1039     1.0  0.50472  0.77261  0.06333  1.0000
  H   H1760     1.0  0.68313  0.68426  0.08193  1.0000
  H   H1761     1.0  0.52231  0.70576  0.05410  1.0000
  C   C1040     1.0  0.63834  0.96162  0.18494  1.0000
  C   C1041     1.0  0.64755  0.98149  0.19049  1.0000
  H   H1762     1.0  0.57313  0.86403  0.12708  1.0000
  H   H1763     1.0  0.67755  0.86792  0.22773  1.0000
  C   C1042     1.0  0.60892  0.68634  0.06380  1.0000
  C   C1043     1.0  0.61888  0.96382  0.17462  1.0000
  H   H1764     1.0  0.66264  0.97992  0.19842  1.0000
  H   H1765     1.0  0.56225  0.84922  0.15921  1.0000
  C   C1044     1.0  0.72063  0.68980  0.04352  1.0000
  H   H1766     1.0  0.61165  0.94864  0.17028  1.0000
  C   C1045     1.0  0.52751  0.88201  0.18057  1.0000
  H   H1767     1.0  0.68557  0.94615  0.21568  1.0000
  H   H1768     1.0  0.54338  0.86015  0.13091  1.0000
  H   H1769     1.0  0.87206  0.51024  0.13263  1.0000
  C   C1046     1.0  0.69965  0.93495  0.22158  1.0000
  H   H1770     1.0  0.84392  0.55150  0.11851  1.0000
  C   C1047     1.0  0.63180  0.82704  0.12743  1.0000
  C   C1048     1.0  0.63906  0.80627  0.11939  1.0000
  C   C1049     1.0  0.63479  0.80275  0.10094  1.0000
  C   C1050     1.0  0.62336  0.82010  0.09020  1.0000
  C   C1051     1.0  0.61629  0.84096  0.09818  1.0000
  C   C1052     1.0  0.62045  0.84442  0.11666  1.0000
  H   H1771     1.0  0.64794  0.79273  0.12755  1.0000
  H   H1772     1.0  0.64047  0.78666  0.09503  1.0000
  H   H1773     1.0  0.60754  0.85459  0.09003  1.0000
  H   H1774     1.0  0.61508  0.86060  0.12254  1.0000
  C   C1053     1.0  0.64856  0.94956  0.24052  1.0000
  H   H1775     1.0  0.88476  0.65709  0.20047  1.0000
  H   H1776     1.0  0.88253  0.52086  0.11004  1.0000
  H   H1777     1.0  0.52886  0.96200  0.21268  1.0000
  H   H1778     1.0  0.99828  0.54506  0.15031  1.0000
  H   H1779     1.0  0.97214  0.56866  0.16806  1.0000
  S   S317      1.0  0.65036  0.78162  0.02600  1.0000
  H   H1780     1.0  0.64135  0.68687  0.08840  1.0000
  H   H1781     1.0  0.59552  0.67749  0.05730  1.0000
  H   H1782     1.0  0.55347  0.81878  0.18187  1.0000
  C   C1054     1.0  0.52020  0.71782  0.04234  1.0000
  H   H1783     1.0  0.59453  0.98729  0.16088  1.0000
  H   H1784     1.0  0.97408  0.61943  0.15742  1.0000
  H   H1785     1.0  0.59738  0.67791  0.09287  1.0000
  C   C1055     1.0  0.53197  0.86569  0.19501  1.0000
  H   H1786     1.0  0.86936  0.55510  0.06679  1.0000
  H   H1787     1.0  0.58022  0.70004  0.08113  1.0000
  C   C1056     1.0  0.81088  0.52461  0.10356  1.0000
  C   C1057     1.0  0.61409  0.84689  0.02149  1.0000
  H   H1788     1.0  0.88790  0.50197  0.20916  1.0000
  H   H1789     1.0  0.64577  0.61613  0.08057  1.0000
  H   H1790     1.0  0.52209  0.83031  0.13927  1.0000
  H   H1791     1.0  0.52864  0.79059  0.07849  1.0000
  H   H1792     1.0  0.51954  0.83662  0.21152  1.0000
  H   H1793     1.0  0.51708  0.80805  0.05940  1.0000
  H   H1794     1.0  0.70684  0.90032  0.23234  1.0000
  H   H1795     1.0  0.68334  0.90440  0.21778  1.0000
  C   C1058     1.0  0.90063  0.50557  0.16587  1.0000
  C   C1059     1.0  0.84238  0.54059  0.08468  1.0000
  H   H1796     1.0  0.87883  0.53920  0.12864  1.0000
  C   C1060     1.0  0.65159  0.92296  0.24147  1.0000
  H   H1797     1.0  0.70866  0.94398  0.23159  1.0000
  H   H1798     1.0  0.60586  0.89408  0.25073  1.0000
  H   H1799     1.0  0.59568  0.80911  0.17011  1.0000
  H   H1800     1.0  0.63349  0.65703  0.01788  1.0000
  N   N74       1.0  0.55259  0.81579  0.15247  1.0000
  H   H1801     1.0  0.60982  0.64334  0.06988  1.0000
  H   H1802     1.0  0.53797  0.78567  0.05500  1.0000
  C   C1061     1.0  0.55703  0.79809  0.13823  1.0000
  C   C1062     1.0  0.56578  0.83699  0.14809  1.0000
  C   C1063     1.0  0.69123  0.91171  0.22945  1.0000
  C   C1064     1.0  0.58193  0.79455  0.12994  1.0000
  H   H1803     1.0  0.87233  0.67578  0.18280  1.0000
  S   S318      1.0  0.78744  0.57746  0.01464  1.0000
  C   C1065     1.0  0.73360  0.66870  0.04115  1.0000
  H   H1804     1.0  0.55161  0.78104  0.14400  1.0000
  H   H1805     1.0  0.54635  0.80282  0.12626  1.0000
  H   H1806     1.0  0.56176  0.83971  0.11799  1.0000
  H   H1807     1.0  0.71227  0.93170  0.20983  1.0000
  H   H1808     1.0  0.66175  0.63276  0.06380  1.0000
  H   H1809     1.0  0.85892  0.51767  0.22839  1.0000
  H   H1810     1.0  0.83500  0.55824  0.08690  1.0000
  H   H1811     1.0  0.52400  0.83813  0.16213  1.0000
  C   C1066     1.0  0.55797  0.80577  0.17144  1.0000
  H   H1812     1.0  0.58565  0.77613  0.12723  1.0000
  H   H1813     1.0  0.62504  0.89006  0.02003  1.0000
  H   H1814     1.0  0.58396  0.80401  0.11628  1.0000
  N   N75       1.0  0.90203  0.66110  0.15352  1.0000
  C   C1067     1.0  0.88371  0.64750  0.14643  1.0000
  C   C1068     1.0  0.90333  0.65433  0.17377  1.0000
  C   C1069     1.0  0.92451  0.65382  0.14357  1.0000
  C   C1070     1.0  0.89583  0.68643  0.14973  1.0000
  C   C1071     1.0  0.88050  0.65040  0.12551  1.0000
  C   C1072     1.0  0.88084  0.65852  0.18570  1.0000
  C   C1073     1.0  0.94588  0.66559  0.14850  1.0000
  C   C1074     1.0  0.90599  0.70329  0.16212  1.0000
  H   H1815     1.0  0.88712  0.62878  0.14999  1.0000
  H   H1816     1.0  0.86655  0.65215  0.15317  1.0000
  H   H1817     1.0  0.91680  0.66296  0.18017  1.0000
  H   H1818     1.0  0.90874  0.63574  0.17573  1.0000
  H   H1819     1.0  0.92828  0.63489  0.14589  1.0000
  H   H1820     1.0  0.92367  0.65720  0.12844  1.0000
  H   H1821     1.0  0.90079  0.69178  0.13515  1.0000
  H   H1822     1.0  0.87683  0.68982  0.15134  1.0000
  H   H1823     1.0  0.65668  0.66006  0.04263  1.0000
  H   H1824     1.0  0.86409  0.64317  0.12263  1.0000
  H   H1825     1.0  0.87937  0.66861  0.12022  1.0000
  H   H1826     1.0  0.63732  0.61811  0.05765  1.0000
  H   H1827     1.0  0.61090  0.70258  0.05517  1.0000
  C   C1075     1.0  0.51947  0.96020  0.20013  1.0000
  H   H1828     1.0  0.94491  0.68408  0.14391  1.0000
  H   H1829     1.0  0.96122  0.65763  0.14097  1.0000
  H   H1830     1.0  0.94917  0.66322  0.16332  1.0000
  H   H1831     1.0  0.90967  0.71933  0.15373  1.0000
  H   H1832     1.0  0.92220  0.69707  0.16830  1.0000
  H   H1833     1.0  0.89313  0.70868  0.17315  1.0000
  C   C1076     1.0  0.70625  0.65855  0.02012  1.0000
  C   C1077     1.0  0.61107  0.85928  0.26177  1.0000
  H   H1834     1.0  0.61565  0.82855  0.02677  1.0000
  H   H1835     1.0  0.97827  0.54395  0.18315  1.0000
  H   H1836     1.0  0.50334  0.89497  0.16070  1.0000
  C   C1078     1.0  0.65220  0.85127  0.03192  1.0000
  C   C1079     1.0  0.64522  0.86605  0.04848  1.0000
  C   C1080     1.0  0.51035  0.80530  0.15968  1.0000
  C   C1081     1.0  0.53610  0.74518  0.01958  1.0000
  H   H1837     1.0  0.84628  0.52238  0.01696  1.0000
  H   H1838     1.0  0.60593  0.85648  0.03311  1.0000
  H   H1839     1.0  0.68822  0.87904  0.25817  1.0000
  H   H1840     1.0  0.90812  0.50654  0.23699  1.0000
  H   H1841     1.0  0.52575  0.97276  0.18917  1.0000
  C   C1082     1.0  0.98585  0.55900  0.17579  1.0000
  H   H1842     1.0  0.80360  0.51831  0.09116  1.0000
  H   H1843     1.0  0.87750  0.52702  0.07603  1.0000
  H   H1844     1.0  0.66048  0.85442  0.24583  1.0000
  N   N76       1.0  0.63752  0.85504  0.01551  1.0000
  H   H1845     1.0  0.63820  0.91705  0.25179  1.0000
  H   H1846     1.0  0.62765  0.86348  0.05443  1.0000
  H   H1847     1.0  0.65686  0.86081  0.05971  1.0000
  H   H1848     1.0  0.77428  0.51598  0.01591  1.0000
  H   H1849     1.0  0.50923  0.75860  0.07379  1.0000
  H   H1850     1.0  0.64654  0.91706  0.22818  1.0000
  C   C1083     1.0  0.64025  0.67052  0.04401  1.0000
  C   C1084     1.0  0.68497  0.92333  0.26154  1.0000
  H   H1851     1.0  0.50816  0.76429  0.05008  1.0000
  C   C1085     1.0  0.60918  0.98574  0.16932  1.0000
  C   C1086     1.0  0.69346  0.67978  0.02230  1.0000
  H   H1852     1.0  0.87627  0.55188  0.09014  1.0000
  H   H1853     1.0  0.77959  0.54523  0.11078  1.0000
  H   H1854     1.0  0.66889  0.89091  0.01477  1.0000
  H   H1855     1.0  0.74896  0.66463  0.04856  1.0000
  H   H1856     1.0  0.72623  0.70172  0.05282  1.0000
  H   H1857     1.0  0.90876  0.59839  0.25077  1.0000
  H   H1858     1.0  0.68827  0.94148  0.25776  1.0000
  H   H1859     1.0  0.65263  0.83286  0.03710  1.0000
  N   N77       1.0  0.63135  0.67183  0.06383  1.0000
  C   C1087     1.0  0.67208  0.67221  0.07602  1.0000
  H   H1860     1.0  0.86864  0.64519  0.18388  1.0000
  C   C1088     1.0  0.98272  0.62020  0.18562  1.0000
  H   H1861     1.0  0.61652  0.64489  0.03695  1.0000
  C   C1089     1.0  0.64415  0.62821  0.06824  1.0000
  H   H1862     1.0  0.63753  0.95549  0.25248  1.0000
  H   H1863     1.0  0.63914  0.95550  0.22812  1.0000
  C   C1090     1.0  0.87119  0.52497  0.12222  1.0000
  C   C1091     1.0  0.67189  0.88719  0.25296  1.0000
  H   H1864     1.0  0.64714  0.88459  0.04498  1.0000
  H   H1865     1.0  0.80556  0.51269  0.11532  1.0000
  H   H1866     1.0  0.58473  0.79161  0.18898  1.0000
  N   N78       1.0  0.83675  0.52448  0.10111  1.0000
  H   H1867     1.0  0.58705  0.78044  0.16674  1.0000
  H   H1868     1.0  0.58459  0.83313  0.14775  1.0000
  C   C1092     1.0  0.62386  0.66094  0.03106  1.0000
  C   C1093     1.0  0.52739  0.82358  0.15309  1.0000
  C   C1094     1.0  0.52280  0.79044  0.06430  1.0000
  H   H1869     1.0  0.83547  0.52589  0.13074  1.0000
  C   C1095     1.0  0.98775  0.61776  0.16682  1.0000
  H   H1870     1.0  0.64794  0.87832  0.23274  1.0000
  H   H1871     1.0  0.66449  0.95870  0.23957  1.0000
  H   H1872     1.0  0.54747  0.79097  0.17564  1.0000
  H   H1873     1.0  0.89407  0.52327  0.16484  1.0000
  H   H1874     1.0  0.99112  0.57056  0.18602  1.0000
  H   H1875     1.0  0.67034  0.85481  0.02821  1.0000
  H   H1876     1.0  0.60973  0.67390  0.02760  1.0000
  H   H1877     1.0  0.79867  0.56030  0.09529  1.0000
  C   C1096     1.0  0.84591  0.53241  0.11841  1.0000
  H   H1878     1.0  0.52449  0.94252  0.19618  1.0000
  H   H1879     1.0  0.67150  0.65681  0.08573  1.0000
  N   N79       1.0  0.67474  0.91195  0.24625  1.0000
  C   C1097     1.0  0.51596  0.84945  0.20050  1.0000
  C   C1098     1.0  0.86797  0.54339  0.07939  1.0000
  H   H1880     1.0  0.89428  0.64055  0.11760  1.0000
  H   H1881     1.0  0.68077  0.66764  0.06272  1.0000
  H   H1882     1.0  0.60731  0.70671  0.08834  1.0000
  C   C1099     1.0  0.64800  0.68417  0.07403  1.0000
  H   H1883     1.0  0.99685  0.62025  0.21222  1.0000
  H   H1884     1.0  0.51055  0.80129  0.17477  1.0000
  H   H1885     1.0  0.51339  0.78933  0.15223  1.0000
  Fe  Fe159     1.0  0.82198  0.59218  0.01397  1.0000
  Fe  Fe160     1.0  0.58689  0.85584  0.37374  1.0000
  S   S319      1.0  0.62286  0.84653  0.36229  1.0000
  S   S320      1.0  0.55822  0.83177  0.37630  1.0000
  Fe  Fe161     1.0  0.59614  0.90518  0.37788  1.0000
  S   S321      1.0  0.63262  0.89967  0.36690  1.0000
  S   S322      1.0  0.58086  0.93973  0.38632  1.0000
  Fe  Fe162     1.0  0.61835  0.87997  0.34511  1.0000
  S   S323      1.0  0.62686  0.89177  0.31504  1.0000
  Fe  Fe163     1.0  0.63369  0.86726  0.38526  1.0000
  S   S324      1.0  0.66588  0.86059  0.40192  1.0000
  S   S325      1.0  0.58184  0.88769  0.35525  1.0000
  S   S326      1.0  0.59788  0.87408  0.39762  1.0000
  Fe  Fe164     1.0  0.94282  0.57019  0.37608  1.0000
  S   S327      1.0  0.93312  0.60648  0.36642  1.0000
  S   S328      1.0  0.97857  0.55517  0.38019  1.0000
  Fe  Fe165     1.0  0.89448  0.55601  0.37646  1.0000
  S   S329      1.0  0.88052  0.59144  0.36694  1.0000
  S   S330      1.0  0.87312  0.52524  0.38102  1.0000
  Fe  Fe166     1.0  0.91134  0.59093  0.34676  1.0000
  S   S331      1.0  0.91385  0.60585  0.31711  1.0000
  Fe  Fe167     1.0  0.90355  0.60387  0.38752  1.0000
  S   S332      1.0  0.89309  0.63485  0.40457  1.0000
  S   S333      1.0  0.92351  0.55479  0.35491  1.0000
  S   S334      1.0  0.91489  0.56837  0.39856  1.0000
  S   S335      1.0  0.76245  0.92727  0.50903  1.0000
  H   H1886     1.0  0.65245  0.92958  0.27843  1.0000
  S   S336      1.0  0.89154  0.64153  0.49161  1.0000
  C   C1100     1.0  0.50988  0.88201  0.38905  1.0000
  H   H1887     1.0  0.72687  0.76626  0.47741  1.0000
  S   S337      1.0  0.67581  0.86505  0.48874  1.0000
  H   H1888     1.0  0.70067  0.78749  0.49556  1.0000
  C   C1101     1.0  0.98060  0.61998  0.31571  1.0000
  H   H1889     1.0  0.62500  0.91097  0.44291  1.0000
  H   H1890     1.0  0.64317  0.96737  0.34518  1.0000
  H   H1891     1.0  0.65156  0.98871  0.40147  1.0000
  H   H1892     1.0  0.98841  0.63093  0.30424  1.0000
  C   C1102     1.0  0.90813  0.59057  0.29780  1.0000
  C   C1103     1.0  0.90134  0.56798  0.29967  1.0000
  C   C1104     1.0  0.89698  0.55650  0.28393  1.0000
  H   H1893     1.0  0.67079  0.90754  0.38920  1.0000
  C   C1105     1.0  0.91080  0.60138  0.28006  1.0000
  H   H1894     1.0  0.89920  0.55946  0.31323  1.0000
  H   H1895     1.0  0.91599  0.61885  0.27846  1.0000
  C   C1106     1.0  0.50324  0.95895  0.36698  1.0000
  H   H1896     1.0  0.65607  0.92974  0.44496  1.0000
  H   H1897     1.0  0.97659  0.60516  0.38021  1.0000
  C   C1107     1.0  0.89535  0.63704  0.42860  1.0000
  C   C1108     1.0  0.88828  0.65796  0.43644  1.0000
  C   C1109     1.0  0.88792  0.65996  0.45565  1.0000
  C   C1110     1.0  0.89444  0.64094  0.46725  1.0000
  C   C1111     1.0  0.90179  0.62011  0.45938  1.0000
  C   C1112     1.0  0.90249  0.61821  0.44016  1.0000
  H   H1898     1.0  0.88263  0.67261  0.42763  1.0000
  H   H1899     1.0  0.88190  0.67599  0.46152  1.0000
  H   H1900     1.0  0.90670  0.60525  0.46825  1.0000
  H   H1901     1.0  0.90802  0.60201  0.43436  1.0000
  H   H1902     1.0  0.60557  0.93342  0.43294  1.0000
  H   H1903     1.0  0.73063  0.81793  0.49400  1.0000
  H   H1904     1.0  0.50946  0.89988  0.39224  1.0000
  H   H1905     1.0  0.60534  0.90460  0.42666  1.0000
  H   H1906     1.0  0.75429  0.79106  0.43329  1.0000
  C   C1113     1.0  0.61807  0.87883  0.29547  1.0000
  C   C1114     1.0  0.61834  0.85495  0.29464  1.0000
  C   C1115     1.0  0.98189  0.63266  0.33351  1.0000
  H   H1907     1.0  0.64755  0.00053  0.28327  1.0000
  C   C1116     1.0  0.61316  0.89285  0.27960  1.0000
  H   H1908     1.0  0.62223  0.84392  0.30669  1.0000
  H   H1909     1.0  0.61258  0.91133  0.28019  1.0000
  C   C1117     1.0  0.53179  0.84657  0.38190  1.0000
  C   C1118     1.0  0.53105  0.86960  0.38622  1.0000
  H   H1910     1.0  0.98162  0.62518  0.48312  1.0000
  H   H1911     1.0  0.95496  0.67958  0.43283  1.0000
  H   H1912     1.0  0.61526  0.98857  0.31749  1.0000
  H   H1913     1.0  0.54680  0.87796  0.38721  1.0000
  C   C1119     1.0  0.97313  0.64051  0.48947  1.0000
  N   N80       1.0  0.51020  0.85091  0.32391  1.0000
  C   C1120     1.0  0.67346  0.86505  0.46442  1.0000
  C   C1121     1.0  0.65166  0.86364  0.45757  1.0000
  C   C1122     1.0  0.64896  0.86274  0.43851  1.0000
  C   C1123     1.0  0.66813  0.86289  0.42601  1.0000
  C   C1124     1.0  0.68991  0.86466  0.43282  1.0000
  C   C1125     1.0  0.69253  0.86610  0.45185  1.0000
  H   H1914     1.0  0.63674  0.86293  0.46710  1.0000
  H   H1915     1.0  0.63210  0.86132  0.43354  1.0000
  H   H1916     1.0  0.70485  0.86505  0.42328  1.0000
  H   H1917     1.0  0.70924  0.86802  0.45678  1.0000
  C   C1126     1.0  0.63032  0.97181  0.35590  1.0000
  C   C1127     1.0  0.61391  0.95626  0.36187  1.0000
  C   C1128     1.0  0.59826  0.96106  0.37659  1.0000
  C   C1129     1.0  0.59759  0.98247  0.38423  1.0000
  H   H1918     1.0  0.67303  0.91275  0.42998  1.0000
  H   H1919     1.0  0.61335  0.94055  0.35499  1.0000
  H   H1920     1.0  0.58533  0.98640  0.39552  1.0000
  N   N81       1.0  0.96743  0.66349  0.45828  1.0000
  C   C1130     1.0  0.94822  0.67413  0.44699  1.0000
  C   C1131     1.0  0.97963  0.64453  0.44753  1.0000
  H   H1921     1.0  0.98736  0.65186  0.43424  1.0000
  C   C1132     1.0  0.73011  0.98920  0.46192  1.0000
  C   C1133     1.0  0.93439  0.69508  0.45500  1.0000
  C   C1134     1.0  0.96487  0.62501  0.44285  1.0000
  C   C1135     1.0  0.72117  0.81498  0.48167  1.0000
  H   H1922     1.0  0.74531  0.84950  0.46093  1.0000
  H   H1923     1.0  0.61597  0.82675  0.27719  1.0000
  H   H1924     1.0  0.93538  0.66145  0.44515  1.0000
  S   S338      1.0  0.90565  0.70675  0.50509  1.0000
  H   H1925     1.0  0.64583  0.99185  0.31720  1.0000
  H   H1926     1.0  0.97262  0.57977  0.27384  1.0000
  H   H1927     1.0  0.94534  0.70906  0.45781  1.0000
  C   C1136     1.0  0.63001  0.99302  0.36373  1.0000
  H   H1928     1.0  0.63859  0.99881  0.42240  1.0000
  C   C1137     1.0  0.98363  0.68204  0.46084  1.0000
  H   H1929     1.0  0.68146  0.95853  0.44494  1.0000
  S   S339      1.0  0.97318  0.69901  0.51068  1.0000
  C   C1138     1.0  0.97639  0.58059  0.32851  1.0000
  H   H1930     1.0  0.87018  0.55325  0.42313  1.0000
  C   C1139     1.0  0.67054  0.92322  0.28006  1.0000
  H   H1931     1.0  0.99675  0.55099  0.34065  1.0000
  C   C1140     1.0  0.98406  0.55471  0.32996  1.0000
  H   H1932     1.0  0.51611  0.84382  0.29495  1.0000
  C   C1141     1.0  0.53891  0.99278  0.36682  1.0000
  N   N82       1.0  0.51457  0.99987  0.37329  1.0000
  H   H1933     1.0  0.86018  0.56597  0.40215  1.0000
  C   C1142     1.0  0.51321  0.87146  0.33487  1.0000
  C   C1143     1.0  0.53108  0.83450  0.32643  1.0000
  H   H1934     1.0  0.95803  0.58260  0.32517  1.0000
  H   H1935     1.0  0.99143  0.54814  0.31684  1.0000
  C   C1144     1.0  0.99412  0.59881  0.37740  1.0000
  H   H1936     1.0  0.78186  0.97117  0.50308  1.0000
  C   C1145     1.0  0.61323  0.99862  0.37757  1.0000
  H   H1937     1.0  0.51987  0.87250  0.29966  1.0000
  H   H1938     1.0  0.96091  0.56967  0.29584  1.0000
  H   H1939     1.0  0.53150  0.82747  0.34103  1.0000
  H   H1940     1.0  0.53053  0.81934  0.31801  1.0000
  H   H1941     1.0  0.98373  0.69493  0.44886  1.0000
  C   C1146     1.0  0.63162  0.98742  0.30896  1.0000
  H   H1942     1.0  0.97585  0.58615  0.34283  1.0000
  H   H1943     1.0  0.96287  0.63408  0.50184  1.0000
  C   C1147     1.0  0.68682  0.94504  0.43519  1.0000
  H   H1944     1.0  0.68974  0.81609  0.49928  1.0000
  H   H1945     1.0  0.54782  0.98274  0.37813  1.0000
  H   H1946     1.0  0.95786  0.59989  0.28853  1.0000
  H   H1947     1.0  0.76255  0.96922  0.45748  1.0000
  H   H1948     1.0  0.97360  0.62348  0.34560  1.0000
  H   H1949     1.0  0.55531  0.85323  0.30724  1.0000
  H   H1950     1.0  0.77276  0.84297  0.45012  1.0000
  C   C1148     1.0  0.95691  0.65456  0.47657  1.0000
  H   H1951     1.0  0.70048  0.93335  0.44135  1.0000
  H   H1952     1.0  0.77116  0.80260  0.45622  1.0000
  H   H1953     1.0  0.95593  0.61696  0.45524  1.0000
  H   H1954     1.0  0.51114  0.97063  0.39310  1.0000
  C   C1149     1.0  0.75545  0.83637  0.45308  1.0000
  H   H1955     1.0  0.69035  0.92708  0.37883  1.0000
  N   N83       1.0  0.83221  0.60271  0.42146  1.0000
  C   C1150     1.0  0.85314  0.58726  0.42607  1.0000
  C   C1151     1.0  0.83387  0.62494  0.43064  1.0000
  C   C1152     1.0  0.83343  0.60748  0.40083  1.0000
  C   C1153     1.0  0.81099  0.59045  0.42794  1.0000
  C   C1154     1.0  0.85569  0.56389  0.41713  1.0000
  C   C1155     1.0  0.83570  0.62271  0.45172  1.0000
  C   C1156     1.0  0.81438  0.62385  0.39275  1.0000
  C   C1157     1.0  0.78858  0.60558  0.43170  1.0000
  H   H1956     1.0  0.86912  0.59613  0.42212  1.0000
  H   H1957     1.0  0.85341  0.58301  0.44116  1.0000
  H   H1958     1.0  0.81921  0.63742  0.42793  1.0000
  H   H1959     1.0  0.84901  0.63394  0.42466  1.0000
  H   H1960     1.0  0.85011  0.61476  0.39617  1.0000
  H   H1961     1.0  0.83285  0.59136  0.39360  1.0000
  H   H1962     1.0  0.80738  0.57775  0.41789  1.0000
  H   H1963     1.0  0.81404  0.58027  0.44114  1.0000
  C   C1158     1.0  0.89959  0.56736  0.26619  1.0000
  H   H1964     1.0  0.84022  0.55394  0.41963  1.0000
  H   H1965     1.0  0.94912  0.66896  0.48464  1.0000
  H   H1966     1.0  0.83316  0.64006  0.45725  1.0000
  H   H1967     1.0  0.82267  0.61181  0.45877  1.0000
  H   H1968     1.0  0.85308  0.61589  0.45542  1.0000
  H   H1969     1.0  0.81327  0.64102  0.39850  1.0000
  H   H1970     1.0  0.79757  0.61605  0.39419  1.0000
  H   H1971     1.0  0.81848  0.62676  0.37771  1.0000
  H   H1972     1.0  0.77380  0.59616  0.42804  1.0000
  H   H1973     1.0  0.78738  0.62236  0.42383  1.0000
  H   H1974     1.0  0.78565  0.60818  0.44665  1.0000
  H   H1975     1.0  0.74322  0.77915  0.49316  1.0000
  H   H1976     1.0  0.71645  0.83231  0.47536  1.0000
  C   C1159     1.0  0.61491  0.84525  0.27785  1.0000
  C   C1160     1.0  0.76338  0.76350  0.47155  1.0000
  H   H1977     1.0  0.76460  0.76152  0.45655  1.0000
  H   H1978     1.0  0.70786  0.78838  0.45509  1.0000
  Fe  Fe168     1.0  0.89633  0.67009  0.51090  1.0000
  H   H1979     1.0  0.52763  0.88148  0.32876  1.0000
  H   H1980     1.0  0.63225  0.96119  0.43581  1.0000
  H   H1981     1.0  0.67092  0.90583  0.28722  1.0000
  N   N84       1.0  0.73619  0.80079  0.46847  1.0000
  H   H1982     1.0  0.97768  0.69208  0.47289  1.0000
  C   C1161     1.0  0.75800  0.81304  0.46418  1.0000
  C   C1162     1.0  0.74139  0.77747  0.47816  1.0000
  C   C1163     1.0  0.72303  0.79866  0.45159  1.0000
  H   H1983     1.0  0.71949  0.97500  0.45871  1.0000
  H   H1984     1.0  0.92201  0.70231  0.44486  1.0000
  C   C1164     1.0  0.73606  0.78714  0.43522  1.0000
  H   H1985     1.0  0.61856  0.99472  0.28228  1.0000
  H   H1986     1.0  0.69362  0.91658  0.40215  1.0000
  H   H1987     1.0  0.98597  0.65133  0.49445  1.0000
  H   H1988     1.0  0.52056  0.95006  0.36509  1.0000
  H   H1989     1.0  0.68116  0.00101  0.46861  1.0000
  C   C1165     1.0  0.99270  0.58807  0.29643  1.0000
  H   H1990     1.0  0.94249  0.64372  0.47450  1.0000
  H   H1991     1.0  0.70220  0.91490  0.26431  1.0000
  H   H1992     1.0  0.74799  0.83491  0.43963  1.0000
  H   H1993     1.0  0.74962  0.96441  0.47994  1.0000
  H   H1994     1.0  0.97245  0.64976  0.33189  1.0000
  H   H1995     1.0  0.56820  0.83030  0.32135  1.0000
  H   H1996     1.0  0.92405  0.69002  0.46771  1.0000
  H   H1997     1.0  0.76621  0.81593  0.47716  1.0000
  H   H1998     1.0  0.73479  0.76821  0.43653  1.0000
  H   H1999     1.0  0.66658  0.98456  0.42251  1.0000
  H   H2000     1.0  0.72834  0.79396  0.42225  1.0000
  N   N85       1.0  0.65155  0.93972  0.41622  1.0000
  C   C1166     1.0  0.63460  0.92189  0.41389  1.0000
  C   C1167     1.0  0.66511  0.94306  0.39803  1.0000
  C   C1168     1.0  0.63797  0.96177  0.42093  1.0000
  C   C1169     1.0  0.66643  0.93089  0.43164  1.0000
  C   C1170     1.0  0.61682  0.91780  0.43020  1.0000
  C   C1171     1.0  0.68074  0.92221  0.39199  1.0000
  C   C1172     1.0  0.64970  0.98453  0.41656  1.0000
  H   H2001     1.0  0.96886  0.54463  0.33373  1.0000
  H   H2002     1.0  0.62471  0.92651  0.40148  1.0000
  H   H2003     1.0  0.64351  0.90485  0.41149  1.0000
  H   H2004     1.0  0.67647  0.95748  0.39783  1.0000
  H   H2005     1.0  0.65328  0.94802  0.38682  1.0000
  H   H2006     1.0  0.62190  0.96383  0.41338  1.0000
  C   C1173     1.0  0.71030  0.99095  0.49222  1.0000
  H   H2007     1.0  0.68615  0.80497  0.47764  1.0000
  H   H2008     1.0  0.89142  0.53917  0.28552  1.0000
  H   H2009     1.0  0.51174  0.81801  0.37756  1.0000
  H   H2010     1.0  0.55896  0.85643  0.33150  1.0000
  S   S340      1.0  0.74335  0.86678  0.49745  1.0000
  H   H2011     1.0  0.53919  0.98112  0.35534  1.0000
  H   H2012     1.0  0.99344  0.50741  0.37595  1.0000
  C   C1174     1.0  0.69826  0.80493  0.48876  1.0000
  Fe  Fe169     1.0  0.70623  0.86595  0.50716  1.0000
  H   H2013     1.0  0.97627  0.61127  0.43653  1.0000
  C   C1175     1.0  0.51121  0.83585  0.38083  1.0000
  H   H2014     1.0  0.71513  0.81563  0.44649  1.0000
  H   H2015     1.0  0.51811  0.86568  0.34898  1.0000
  N   N86       1.0  0.99121  0.59566  0.31589  1.0000
  H   H2016     1.0  0.69517  0.95292  0.42254  1.0000
  H   H2017     1.0  0.77896  0.77128  0.47567  1.0000
  H   H2018     1.0  0.76397  0.99070  0.47363  1.0000
  C   C1176     1.0  0.50312  0.97833  0.38044  1.0000
  C   C1177     1.0  0.55454  0.84451  0.32121  1.0000
  C   C1178     1.0  0.75280  0.97798  0.46890  1.0000
  C   C1179     1.0  0.50890  0.85793  0.30364  1.0000
  H   H2019     1.0  0.95231  0.63090  0.43248  1.0000
  H   H2020     1.0  0.63511  0.96915  0.30567  1.0000
  H   H2021     1.0  0.96205  0.62035  0.31298  1.0000
  H   H2022     1.0  0.92107  0.51429  0.38629  1.0000
  H   H2023     1.0  0.70156  0.97539  0.48911  1.0000
  C   C1180     1.0  0.99974  0.57512  0.37747  1.0000
  H   H2024     1.0  0.76352  0.74597  0.47846  1.0000
  H   H2025     1.0  0.65900  0.88601  0.26481  1.0000
  H   H2026     1.0  0.67796  0.93463  0.28941  1.0000
  C   C1181     1.0  0.96958  0.58417  0.28844  1.0000
  H   H2027     1.0  0.72592  0.98436  0.49921  1.0000
  H   H2028     1.0  0.99430  0.63610  0.45489  1.0000
  H   H2029     1.0  0.78863  0.75997  0.50917  1.0000
  H   H2030     1.0  0.73465  0.99799  0.44840  1.0000
  C   C1182     1.0  0.90672  0.58980  0.26432  1.0000
  C   C1183     1.0  0.76818  0.97288  0.51371  1.0000
  H   H2031     1.0  0.99976  0.63578  0.33640  1.0000
  Fe  Fe170     1.0  0.59019  0.88702  0.68037  1.0000
  S   S341      1.0  0.60226  0.85122  0.68954  1.0000
  S   S342      1.0  0.55502  0.89924  0.67130  1.0000
  Fe  Fe171     1.0  0.63655  0.90510  0.68546  1.0000
  S   S343      1.0  0.65226  0.87077  0.69546  1.0000
  S   S344      1.0  0.65575  0.93702  0.68149  1.0000
  Fe  Fe172     1.0  0.63457  0.85791  0.67176  1.0000
  S   S345      1.0  0.64898  0.83430  0.64941  1.0000
  Fe  Fe173     1.0  0.61852  0.86791  0.71227  1.0000
  S   S346      1.0  0.60938  0.85579  0.74218  1.0000
  S   S347      1.0  0.62095  0.89257  0.66112  1.0000
  S   S348      1.0  0.60442  0.90338  0.70378  1.0000
  Fe  Fe174     1.0  0.90727  0.66991  0.55243  1.0000
  S   S349      1.0  0.91736  0.70658  0.54905  1.0000
  S   S350      1.0  0.91748  0.64184  0.57460  1.0000
  H   H2032     1.0  0.84596  0.79340  0.54478  1.0000
  C   C1184     1.0  0.54329  0.86558  0.73546  1.0000
  H   H2033     1.0  0.92551  0.51073  0.66361  1.0000
  H   H2034     1.0  0.96053  0.70583  0.56759  1.0000
  S   S351      1.0  0.87475  0.67696  0.53717  1.0000
  C   C1185     1.0  0.53085  0.83401  0.75621  1.0000
  Fe  Fe175     1.0  0.71747  0.86779  0.54810  1.0000
  S   S352      1.0  0.75552  0.86868  0.54054  1.0000
  S   S353      1.0  0.70659  0.87413  0.57825  1.0000
  H   H2035     1.0  0.50691  0.99515  0.64260  1.0000
  C   C1186     1.0  0.96417  0.70350  0.58233  1.0000
  H   H2036     1.0  0.68143  0.96502  0.61925  1.0000
  H   H2037     1.0  0.53869  0.88896  0.60939  1.0000
  S   S354      1.0  0.71309  0.83870  0.53008  1.0000
  C   C1187     1.0  0.83534  0.58346  0.61789  1.0000
  Fe  Fe176     1.0  0.92191  0.59341  0.67876  1.0000
  S   S355      1.0  0.92923  0.55966  0.66590  1.0000
  S   S356      1.0  0.90690  0.62483  0.66225  1.0000
  Fe  Fe177     1.0  0.93880  0.57427  0.71651  1.0000
  S   S357      1.0  0.94748  0.53933  0.70594  1.0000
  S   S358      1.0  0.95083  0.57803  0.74531  1.0000
  Fe  Fe178     1.0  0.96176  0.55780  0.68046  1.0000
  C   C1188     1.0  0.82154  0.75425  0.52117  1.0000
  Fe  Fe179     1.0  0.91421  0.54411  0.69247  1.0000
  S   S359      1.0  0.70734  0.89487  0.52609  1.0000
  S   S360      1.0  0.95597  0.59268  0.69165  1.0000
  S   S361      1.0  0.90393  0.57796  0.70471  1.0000
  C   C1189     1.0  0.58418  0.82703  0.64125  1.0000
  H   H2038     1.0  0.65728  0.96585  0.71153  1.0000
  C   C1190     1.0  0.61809  0.86744  0.76248  1.0000
  H   H2039     1.0  0.57884  0.90037  0.60932  1.0000
  C   C1191     1.0  0.51892  0.84192  0.67911  1.0000
  H   H2040     1.0  0.87994  0.53866  0.75888  1.0000
  C   C1192     1.0  0.86966  0.54170  0.65083  1.0000
  H   H2041     1.0  0.57232  0.88271  0.58497  1.0000
  C   C1193     1.0  0.83345  0.78601  0.53700  1.0000
  C   C1194     1.0  0.91436  0.63793  0.59903  1.0000
  C   C1195     1.0  0.92536  0.61829  0.60768  1.0000
  C   C1196     1.0  0.92364  0.61434  0.62700  1.0000
  C   C1197     1.0  0.91050  0.62976  0.63792  1.0000
  C   C1198     1.0  0.89953  0.64942  0.62929  1.0000
  C   C1199     1.0  0.90154  0.65358  0.60996  1.0000
  H   H2042     1.0  0.93534  0.60607  0.59938  1.0000
  H   H2043     1.0  0.93247  0.59935  0.63344  1.0000
  H   H2044     1.0  0.88936  0.66150  0.63761  1.0000
  H   H2045     1.0  0.89299  0.66876  0.60353  1.0000
  H   H2046     1.0  0.63642  0.93111  0.72428  1.0000
  H   H2047     1.0  0.64278  0.88933  0.74880  1.0000
  H   H2048     1.0  0.82455  0.73692  0.51675  1.0000
  Fe  Fe180     1.0  0.93607  0.69742  0.52234  1.0000
  H   H2049     1.0  0.95020  0.67083  0.59043  1.0000
  C   C1200     1.0  0.80113  0.76746  0.51686  1.0000
  N   N87       1.0  0.63002  0.98032  0.72974  1.0000
  H   H2050     1.0  0.61808  0.89808  0.61127  1.0000
  H   H2051     1.0  0.81044  0.81677  0.53664  1.0000
  H   H2052     1.0  0.58186  0.99626  0.72732  1.0000
  H   H2053     1.0  0.88685  0.54138  0.65654  1.0000
  Fe  Fe181     1.0  0.75075  0.84096  0.52122  1.0000
  H   H2054     1.0  0.98130  0.72782  0.54096  1.0000
  H   H2055     1.0  0.97929  0.71313  0.58477  1.0000
  H   H2056     1.0  0.54663  0.80976  0.73614  1.0000
  C   C1201     1.0  0.75605  0.95357  0.51984  1.0000
  C   C1202     1.0  0.84257  0.56177  0.62993  1.0000
  C   C1203     1.0  0.63681  0.95930  0.67342  1.0000
  C   C1204     1.0  0.64390  0.98171  0.67110  1.0000
  H   H2057     1.0  0.83902  0.54677  0.62211  1.0000
  C   C1205     1.0  0.59803  0.97342  0.66686  1.0000
  C   C1206     1.0  0.61399  0.95512  0.67086  1.0000
  C   C1207     1.0  0.63480  0.88358  0.76192  1.0000
  H   H2058     1.0  0.52710  0.88449  0.71176  1.0000
  H   H2059     1.0  0.60833  0.93791  0.67264  1.0000
  C   C1208     1.0  0.66430  0.84571  0.62938  1.0000
  C   C1209     1.0  0.67380  0.86706  0.62907  1.0000
  C   C1210     1.0  0.68641  0.87544  0.61322  1.0000
  C   C1211     1.0  0.68932  0.86291  0.59730  1.0000
  C   C1212     1.0  0.67929  0.84179  0.59740  1.0000
  C   C1213     1.0  0.66711  0.83312  0.61345  1.0000
  H   H2060     1.0  0.67185  0.87695  0.64119  1.0000
  H   H2061     1.0  0.69409  0.89176  0.61335  1.0000
  H   H2062     1.0  0.68125  0.83198  0.58525  1.0000
  H   H2063     1.0  0.65977  0.81661  0.61352  1.0000
  C   C1214     1.0  0.88242  0.55407  0.61863  1.0000
  C   C1215     1.0  0.53290  0.88010  0.67320  1.0000
  C   C1216     1.0  0.53708  0.85665  0.67796  1.0000
  H   H2064     1.0  0.60313  0.82480  0.63943  1.0000
  N   N88       1.0  0.52268  0.85235  0.74213  1.0000
  H   H2065     1.0  0.55422  0.84983  0.68071  1.0000
  H   H2066     1.0  0.61142  0.88382  0.59106  1.0000
  H   H2067     1.0  0.89185  0.58074  0.64603  1.0000
  H   H2068     1.0  0.91713  0.54369  0.60862  1.0000
  C   C1217     1.0  0.57251  0.88936  0.62124  1.0000
  C   C1218     1.0  0.90810  0.54854  0.62182  1.0000
  C   C1219     1.0  0.96748  0.67796  0.58920  1.0000
  H   H2069     1.0  0.99730  0.61686  0.65160  1.0000
  C   C1220     1.0  0.57342  0.86372  0.58563  1.0000
  H   H2070     1.0  0.52881  0.96890  0.65608  1.0000
  C   C1221     1.0  0.83793  0.76339  0.53134  1.0000
  H   H2071     1.0  0.99355  0.55498  0.70388  1.0000
  H   H2072     1.0  0.64556  0.93569  0.74702  1.0000
  C   C1222     1.0  0.55034  0.81698  0.74924  1.0000
  C   C1223     1.0  0.53839  0.88743  0.72289  1.0000
  S   S362      1.0  0.89268  0.51350  0.69504  1.0000
  N   N89       1.0  0.86714  0.55996  0.63537  1.0000
  C   C1224     1.0  0.57506  0.85240  0.63853  1.0000
  H   H2073     1.0  0.55252  0.87082  0.74731  1.0000
  C   C1225     1.0  0.57098  0.85268  0.60539  1.0000
  H   H2074     1.0  0.55615  0.85459  0.72747  1.0000
  H   H2075     1.0  0.94923  0.71167  0.59021  1.0000
  C   C1226     1.0  0.67163  0.98100  0.62348  1.0000
  H   H2076     1.0  0.91636  0.56371  0.62600  1.0000
  H   H2077     1.0  0.50720  0.90665  0.66564  1.0000
  C   C1227     1.0  0.87385  0.58236  0.64193  1.0000
  H   H2078     1.0  0.55256  0.80239  0.75967  1.0000
  H   H2079     1.0  0.56702  0.82512  0.74752  1.0000
  H   H2080     1.0  0.72098  0.97862  0.55307  1.0000
  H   H2081     1.0  0.53573  0.99117  0.67896  1.0000
  H   H2082     1.0  0.66601  0.92943  0.72853  1.0000
  H   H2083     1.0  0.58974  0.85737  0.57846  1.0000
  H   H2084     1.0  0.58023  0.97016  0.66553  1.0000
  H   H2085     1.0  0.87867  0.51047  0.63556  1.0000
  C   C1228     1.0  0.76284  0.99437  0.52127  1.0000
  H   H2086     1.0  0.62128  0.96386  0.75643  1.0000
  H   H2087     1.0  0.83479  0.59922  0.62568  1.0000
  H   H2088     1.0  0.51234  0.94522  0.65125  1.0000
  H   H2089     1.0  0.72944  0.94114  0.53890  1.0000
  C   C1229     1.0  0.65138  0.96469  0.72639  1.0000
  H   H2090     1.0  0.57905  0.89688  0.63344  1.0000
  C   C1230     1.0  0.51059  0.88866  0.66953  1.0000
  H   H2091     1.0  0.57623  0.81583  0.63209  1.0000
  H   H2092     1.0  0.86784  0.58565  0.67175  1.0000
  C   C1231     1.0  0.88335  0.52473  0.74920  1.0000
  H   H2093     1.0  0.87629  0.53915  0.61200  1.0000
  H   H2094     1.0  0.66625  0.99549  0.59597  1.0000
  H   H2095     1.0  0.69343  0.99913  0.60371  1.0000
  H   H2096     1.0  0.81770  0.58192  0.61347  1.0000
  H   H2097     1.0  0.52213  0.82380  0.68282  1.0000
  S   S363      1.0  0.77049  0.80587  0.51644  1.0000
  H   H2098     1.0  0.91817  0.53304  0.74868  1.0000
  C   C1232     1.0  0.62533  0.98113  0.75026  1.0000
  C   C1233     1.0  0.67499  0.00028  0.60820  1.0000
  C   C1234     1.0  0.61880  0.88140  0.60467  1.0000
  H   H2099     1.0  0.61530  0.86384  0.63098  1.0000
  C   C1235     1.0  0.54613  0.89370  0.62212  1.0000
  H   H2100     1.0  0.53084  0.90186  0.73096  1.0000
  C   C1236     1.0  0.85953  0.59148  0.65880  1.0000
  H   H2101     1.0  0.85745  0.54566  0.66274  1.0000
  H   H2102     1.0  0.50786  0.80572  0.72544  1.0000
  H   H2103     1.0  0.66590  0.97004  0.73390  1.0000
  N   N90       1.0  0.76131  0.81653  0.58659  1.0000
  C   C1237     1.0  0.73777  0.81579  0.59638  1.0000
  C   C1238     1.0  0.75887  0.81008  0.56712  1.0000
  C   C1239     1.0  0.76820  0.84098  0.58631  1.0000
  C   C1240     1.0  0.77791  0.80029  0.59691  1.0000
  C   C1241     1.0  0.73518  0.82486  0.61589  1.0000
  C   C1242     1.0  0.74981  0.78619  0.56524  1.0000
  C   C1243     1.0  0.79144  0.84621  0.57636  1.0000
  C   C1244     1.0  0.79987  0.79118  0.58590  1.0000
  H   H2104     1.0  0.72474  0.82579  0.58806  1.0000
  H   H2105     1.0  0.73217  0.79791  0.59792  1.0000
  H   H2106     1.0  0.77516  0.81063  0.55862  1.0000
  H   H2107     1.0  0.74700  0.82290  0.55994  1.0000
  H   H2108     1.0  0.75476  0.85298  0.58007  1.0000
  H   H2109     1.0  0.76942  0.84645  0.60053  1.0000
  H   H2110     1.0  0.78343  0.80841  0.60918  1.0000
  H   H2111     1.0  0.76917  0.78471  0.60244  1.0000
  H   H2112     1.0  0.71839  0.82016  0.62257  1.0000
  H   H2113     1.0  0.74876  0.81737  0.62482  1.0000
  H   H2114     1.0  0.73477  0.84394  0.61533  1.0000
  H   H2115     1.0  0.75891  0.77247  0.57370  1.0000
  H   H2116     1.0  0.73107  0.78630  0.56879  1.0000
  H   H2117     1.0  0.75241  0.78164  0.55065  1.0000
  H   H2118     1.0  0.80598  0.83797  0.58396  1.0000
  H   H2119     1.0  0.79327  0.86505  0.57605  1.0000
  H   H2120     1.0  0.79286  0.84157  0.56183  1.0000
  H   H2121     1.0  0.81443  0.78953  0.59509  1.0000
  H   H2122     1.0  0.80544  0.80208  0.57374  1.0000
  H   H2123     1.0  0.79798  0.77351  0.58166  1.0000
  H   H2124     1.0  0.64097  0.98488  0.75715  1.0000
  H   H2125     1.0  0.90169  0.57872  0.75603  1.0000
  C   C1245     1.0  0.60744  0.86290  0.61757  1.0000
  S   S364      1.0  0.86394  0.74747  0.53770  1.0000
  H   H2126     1.0  0.87426  0.59617  0.63064  1.0000
  H   H2127     1.0  0.57880  0.83484  0.60449  1.0000
  H   H2128     1.0  0.55247  0.85010  0.60890  1.0000
  H   H2129     1.0  0.53760  0.88472  0.63421  1.0000
  C   C1246     1.0  0.86564  0.51703  0.64598  1.0000
  H   H2130     1.0  0.55887  0.85913  0.57780  1.0000
  C   C1247     1.0  0.64932  0.93890  0.73202  1.0000
  Fe  Fe182     1.0  0.74484  0.89429  0.51771  1.0000
  H   H2131     1.0  0.61383  0.84586  0.61255  1.0000
  H   H2132     1.0  0.52771  0.94422  0.67145  1.0000
  S   S365      1.0  0.92755  0.66078  0.52651  1.0000
  H   H2133     1.0  0.55613  0.85228  0.64098  1.0000
  N   N91       1.0  0.58152  0.86458  0.62020  1.0000
  Fe  Fe183     1.0  0.88573  0.71356  0.53219  1.0000
  H   H2134     1.0  0.88174  0.56851  0.60790  1.0000
  H   H2135     1.0  0.91110  0.53380  0.63193  1.0000
  H   H2136     1.0  0.50278  0.85623  0.71785  1.0000
  H   H2137     1.0  0.61670  0.96236  0.70804  1.0000
  H   H2138     1.0  0.60340  0.95606  0.73008  1.0000
  H   H2139     1.0  0.54176  0.91236  0.62348  1.0000
  H   H2140     1.0  0.58115  0.86162  0.65004  1.0000
  H   H2141     1.0  0.85831  0.61059  0.65764  1.0000
  C   C1248     1.0  0.73879  0.95587  0.53392  1.0000
  C   C1249     1.0  0.60537  0.99766  0.75710  1.0000
  H   H2142     1.0  0.84167  0.58629  0.66000  1.0000
  C   C1250     1.0  0.79675  0.79012  0.52242  1.0000
  H   H2143     1.0  0.63728  0.87615  0.60214  1.0000
  C   C1251     1.0  0.61044  0.97033  0.72102  1.0000
  H   H2144     1.0  0.57949  0.82072  0.65562  1.0000
  C   C1252     1.0  0.73391  0.97720  0.54185  1.0000
  H   H2145     1.0  0.87790  0.53139  0.73541  1.0000
  C   C1253     1.0  0.98903  0.63486  0.60632  1.0000
  C   C1254     1.0  0.81318  0.79932  0.53248  1.0000
  H   H2146     1.0  0.57657  0.97684  0.71039  1.0000
  H   H2147     1.0  0.66158  0.98497  0.67294  1.0000
  H   H2148     1.0  0.83027  0.56086  0.64221  1.0000
  H   H2149     1.0  0.95675  0.66742  0.55846  1.0000
  H   H2150     1.0  0.55483  0.89301  0.71617  1.0000
  S   S366      1.0  0.99441  0.54486  0.66583  1.0000
  H   H2151     1.0  0.65340  0.97680  0.62559  1.0000
  C   C1255     1.0  0.90912  0.51712  0.74759  1.0000
  C   C1256     1.0  0.58992  0.98693  0.71565  1.0000
  H   H2152     1.0  0.99924  0.63615  0.54706  1.0000
  H   H2153     1.0  0.87210  0.51061  0.75323  1.0000
  H   H2154     1.0  0.91358  0.51268  0.73311  1.0000
  C   C1257     1.0  0.50527  0.86889  0.75131  1.0000
  H   H2155     1.0  0.84672  0.58565  0.60523  1.0000
  C   C1258     1.0  0.51308  0.84263  0.72573  1.0000
  H   H2156     1.0  0.67802  0.98521  0.63677  1.0000
  C   C1259     1.0  0.51724  0.95598  0.66221  1.0000
  H   H2157     1.0  0.52741  0.83683  0.71599  1.0000
  H   H2158     1.0  0.58901  0.98894  0.75860  1.0000
  C   C1260     1.0  0.74572  0.99662  0.53545  1.0000
  H   H2159     1.0  0.95580  0.52586  0.74706  1.0000
  H   H2160     1.0  0.84816  0.51564  0.64130  1.0000
  H   H2161     1.0  0.97303  0.67820  0.60349  1.0000
  C   C1261     1.0  0.60485  0.99593  0.66553  1.0000
  C   C1262     1.0  0.97577  0.66438  0.55828  1.0000
  H   H2162     1.0  0.59491  0.99941  0.70421  1.0000
  H   H2163     1.0  0.97714  0.50367  0.75230  1.0000
  C   C1263     1.0  0.95963  0.51071  0.75659  1.0000
  H   H2164     1.0  0.86724  0.50537  0.65857  1.0000
  H   H2165     1.0  0.97800  0.64814  0.53214  1.0000
  H   H2166     1.0  0.69064  0.99093  0.51855  1.0000
  H   H2167     1.0  0.98249  0.67933  0.55011  1.0000
  H   H2168     1.0  0.51682  0.82358  0.76218  1.0000
  H   H2169     1.0  0.96965  0.62934  0.55136  1.0000
  H   H2170     1.0  0.96650  0.63212  0.58452  1.0000
  C   C1264     1.0  0.99831  0.70547  0.52130  1.0000
  C   C1265     1.0  0.98124  0.64315  0.54676  1.0000
  C   C1266     1.0  0.99758  0.71998  0.53592  1.0000
  N   N92       1.0  0.98406  0.66310  0.57761  1.0000
  C   C1267     1.0  0.62789  0.00003  0.66715  1.0000
  H   H2171     1.0  0.51320  0.87729  0.76243  1.0000
  C   C1268     1.0  0.98372  0.63873  0.58584  1.0000
  H   H2172     1.0  0.97489  0.64220  0.61549  1.0000
  H   H2173     1.0  0.98964  0.50499  0.70351  1.0000
  H   H2174     1.0  0.99034  0.61607  0.61000  1.0000
  H   H2175     1.0  0.00018  0.61411  0.67577  1.0000
  H   H2176     1.0  0.99602  0.62696  0.57821  1.0000
  Fe  Fe184     1.0  0.62568  0.88539  0.84511  1.0000
  S   S367      1.0  0.58849  0.89626  0.85016  1.0000
  S   S368      1.0  0.64188  0.89394  0.81621  1.0000
  Fe  Fe185     1.0  0.63008  0.86885  0.88651  1.0000
  S   S369      1.0  0.59325  0.87930  0.89382  1.0000
  S   S370      1.0  0.65243  0.85112  0.90872  1.0000
  Fe  Fe186     1.0  0.58672  0.86349  0.86763  1.0000
  S   S371      1.0  0.55896  0.83958  0.86521  1.0000
  Fe  Fe187     1.0  0.59902  0.91127  0.87569  1.0000
  S   S372      1.0  0.58211  0.94622  0.88201  1.0000
  S   S373      1.0  0.62322  0.85112  0.86096  1.0000
  S   S374      1.0  0.63665  0.90228  0.87001  1.0000
  H   H2177     1.0  0.83704  0.63854  0.95820  1.0000
  H   H2178     1.0  0.94130  0.51090  0.84769  1.0000
  S   S375      1.0  0.84751  0.59961  0.98971  1.0000
  Fe  Fe188     1.0  0.62181  0.77656  0.00751  1.0000
  H   H2179     1.0  0.52006  0.92922  0.87624  1.0000
  S   S376      1.0  0.61116  0.79567  0.98054  1.0000
  Fe  Fe189     1.0  0.89716  0.55780  0.89322  1.0000
  S   S377      1.0  0.93383  0.55673  0.90103  1.0000
  S   S378      1.0  0.86611  0.55205  0.91334  1.0000
  Fe  Fe190     1.0  0.91139  0.56025  0.85121  1.0000
  S   S379      1.0  0.94898  0.55935  0.85595  1.0000
  S   S380      1.0  0.89614  0.56205  0.82306  1.0000
  Fe  Fe191     1.0  0.94109  0.53254  0.87841  1.0000
  H   H2180     1.0  0.97423  0.65920  0.78819  1.0000
  Fe  Fe192     1.0  0.93855  0.58374  0.87794  1.0000
  S   S381      1.0  0.95654  0.61616  0.88043  1.0000
  S   S382      1.0  0.90423  0.53122  0.87215  1.0000
  S   S383      1.0  0.90117  0.58695  0.87168  1.0000
  C   C1269     1.0  0.50908  0.88119  0.88883  1.0000
  H   H2181     1.0  0.63680  0.94512  0.80411  1.0000
  H   H2182     1.0  0.65400  0.99399  0.84179  1.0000
  H   H2183     1.0  0.67979  0.96429  0.80070  1.0000
  H   H2184     1.0  0.58180  0.96312  0.83423  1.0000
  H   H2185     1.0  0.58144  0.83884  0.01154  1.0000
  H   H2186     1.0  0.89587  0.51514  0.80494  1.0000
  C   C1270     1.0  0.94735  0.56714  0.78255  1.0000
  C   C1271     1.0  0.93562  0.56354  0.79988  1.0000
  C   C1272     1.0  0.91164  0.56586  0.80151  1.0000
  C   C1273     1.0  0.89952  0.57098  0.78554  1.0000
  H   H2187     1.0  0.81894  0.65101  0.94020  1.0000
  H   H2188     1.0  0.94505  0.55873  0.81196  1.0000
  H   H2189     1.0  0.88094  0.57265  0.78665  1.0000
  H   H2190     1.0  0.93046  0.59919  0.83083  1.0000
  C   C1274     1.0  0.85260  0.58550  0.96887  1.0000
  C   C1275     1.0  0.87253  0.58982  0.95774  1.0000
  C   C1276     1.0  0.87692  0.57972  0.94072  1.0000
  C   C1277     1.0  0.86120  0.56542  0.93453  1.0000
  C   C1278     1.0  0.84104  0.56140  0.94553  1.0000
  C   C1279     1.0  0.83682  0.57124  0.96269  1.0000
  H   H2191     1.0  0.88473  0.60103  0.96232  1.0000
  H   H2192     1.0  0.89243  0.58307  0.93237  1.0000
  H   H2193     1.0  0.82861  0.55073  0.94066  1.0000
  H   H2194     1.0  0.82118  0.56825  0.97096  1.0000
  H   H2195     1.0  0.80824  0.67280  0.00938  1.0000
  C   C1280     1.0  0.89431  0.50606  0.79218  1.0000
  C   C1281     1.0  0.59927  0.96997  0.88126  1.0000
  C   C1282     1.0  0.62307  0.96698  0.88241  1.0000
  H   H2196     1.0  0.51262  0.75992  0.99962  1.0000
  H   H2197     1.0  0.97175  0.66581  0.83973  1.0000
  H   H2198     1.0  0.94295  0.64922  0.82237  1.0000
  H   H2199     1.0  0.63111  0.94988  0.88461  1.0000
  H   H2200     1.0  0.67708  0.93252  0.81988  1.0000
  H   H2201     1.0  0.52472  0.92540  0.85234  1.0000
  C   C1283     1.0  0.64097  0.83683  0.92929  1.0000
  C   C1284     1.0  0.61733  0.83720  0.93371  1.0000
  C   C1285     1.0  0.60872  0.82497  0.94967  1.0000
  C   C1286     1.0  0.62353  0.81200  0.96143  1.0000
  C   C1287     1.0  0.64721  0.81167  0.95714  1.0000
  C   C1288     1.0  0.65586  0.82408  0.94118  1.0000
  H   H2202     1.0  0.60560  0.84683  0.92478  1.0000
  H   H2203     1.0  0.59037  0.82530  0.95279  1.0000
  H   H2204     1.0  0.65880  0.80143  0.96584  1.0000
  H   H2205     1.0  0.67418  0.82350  0.93786  1.0000
  H   H2206     1.0  0.70047  0.64647  0.01106  1.0000
  H   H2207     1.0  0.74256  0.60987  0.98518  1.0000
  C   C1289     1.0  0.53226  0.85297  0.87158  1.0000
  C   C1290     1.0  0.53061  0.87087  0.88355  1.0000
  H   H2208     1.0  0.51370  0.83204  0.85519  1.0000
  H   H2209     1.0  0.85749  0.52153  0.96535  1.0000
  H   H2210     1.0  0.54583  0.87658  0.88895  1.0000
  C   C1291     1.0  0.64177  0.89165  0.77844  1.0000
  C   C1292     1.0  0.63202  0.88386  0.79570  1.0000
  C   C1293     1.0  0.61498  0.86810  0.79621  1.0000
  C   C1294     1.0  0.60817  0.85989  0.77972  1.0000
  H   H2211     1.0  0.65509  0.90367  0.77786  1.0000
  H   H2212     1.0  0.60731  0.86192  0.80934  1.0000
  H   H2213     1.0  0.59530  0.84738  0.78036  1.0000
  N   N93       1.0  0.78858  0.64496  0.97254  1.0000
  C   C1295     1.0  0.80515  0.65315  0.98540  1.0000
  C   C1296     1.0  0.80155  0.62745  0.96081  1.0000
  C   C1297     1.0  0.76949  0.63389  0.98419  1.0000
  C   C1298     1.0  0.77936  0.66564  0.96119  1.0000
  C   C1299     1.0  0.79462  0.66931  0.00016  1.0000
  H   H2214     1.0  0.64194  0.84869  0.98628  1.0000
  C   C1300     1.0  0.75784  0.61417  0.97606  1.0000
  C   C1301     1.0  0.76378  0.66096  0.94581  1.0000
  H   H2215     1.0  0.81414  0.63820  0.99278  1.0000
  C   C1302     1.0  0.92839  0.61660  0.82395  1.0000
  H   H2216     1.0  0.79042  0.62066  0.95095  1.0000
  H   H2217     1.0  0.80735  0.61220  0.96968  1.0000
  H   H2218     1.0  0.66352  0.98278  0.78470  1.0000
  H   H2219     1.0  0.75571  0.64698  0.98842  1.0000
  H   H2220     1.0  0.76907  0.67780  0.97008  1.0000
  H   H2221     1.0  0.79370  0.67548  0.95470  1.0000
  H   H2222     1.0  0.60318  0.94395  0.84400  1.0000
  C   C1303     1.0  0.51587  0.93696  0.86246  1.0000
  H   H2223     1.0  0.67824  0.82745  0.98482  1.0000
  H   H2224     1.0  0.67923  0.92769  0.84397  1.0000
  H   H2225     1.0  0.65495  0.98368  0.88141  1.0000
  N   N94       1.0  0.97163  0.62385  0.81829  1.0000
  H   H2226     1.0  0.50782  0.89477  0.89833  1.0000
  H   H2227     1.0  0.87957  0.51468  0.78519  1.0000
  H   H2228     1.0  0.75195  0.61844  0.96209  1.0000
  H   H2229     1.0  0.77256  0.64968  0.93553  1.0000
  H   H2230     1.0  0.75891  0.67754  0.93826  1.0000
  H   H2231     1.0  0.74758  0.65386  0.95151  1.0000
  H   H2232     1.0  0.51870  0.80592  0.91121  1.0000
  H   H2233     1.0  0.65259  0.91045  0.00005  1.0000
  H   H2234     1.0  0.82969  0.62164  0.94036  1.0000
  C   C1304     1.0  0.66409  0.96612  0.79295  1.0000
  N   N95       1.0  0.64072  0.96991  0.82440  1.0000
  C   C1305     1.0  0.61605  0.97584  0.83082  1.0000
  H   H2235     1.0  0.99770  0.63265  0.83620  1.0000
  C   C1306     1.0  0.64970  0.95008  0.83681  1.0000
  H   H2236     1.0  0.52330  0.95392  0.86009  1.0000
  C   C1307     1.0  0.59981  0.95601  0.83196  1.0000
  H   H2237     1.0  0.68712  0.95463  0.83356  1.0000
  C   C1308     1.0  0.65691  0.89191  0.00352  1.0000
  C   C1309     1.0  0.63652  0.98615  0.88068  1.0000
  C   C1310     1.0  0.91713  0.50693  0.78041  1.0000
  H   H2238     1.0  0.82490  0.53236  0.00163  1.0000
  H   H2239     1.0  0.94960  0.63181  0.84231  1.0000
  H   H2240     1.0  0.81758  0.50969  0.94176  1.0000
  H   H2241     1.0  0.91229  0.62472  0.83025  1.0000
  H   H2242     1.0  0.63961  0.93482  0.83596  1.0000
  H   H2243     1.0  0.60806  0.98962  0.82158  1.0000
  H   H2244     1.0  0.97616  0.59918  0.84140  1.0000
  H   H2245     1.0  0.78073  0.66160  0.00910  1.0000
  C   C1311     1.0  0.58893  0.99229  0.87894  1.0000
  H   H2246     1.0  0.66602  0.95261  0.78279  1.0000
  H   H2247     1.0  0.60091  0.94646  0.81924  1.0000
  H   H2248     1.0  0.68332  0.85114  0.99793  1.0000
  C   C1312     1.0  0.64132  0.96331  0.80466  1.0000
  C   C1313     1.0  0.67481  0.94116  0.83305  1.0000
  C   C1314     1.0  0.96250  0.64533  0.78717  1.0000
  H   H2249     1.0  0.64777  0.95459  0.85143  1.0000
  H   H2250     1.0  0.92212  0.52498  0.77990  1.0000
  H   H2251     1.0  0.76950  0.59833  0.97584  1.0000
  H   H2252     1.0  0.64013  0.82348  0.00081  1.0000
  N   N96       1.0  0.61157  0.78276  0.89476  1.0000
  C   C1315     1.0  0.60089  0.79280  0.87741  1.0000
  C   C1316     1.0  0.63139  0.79713  0.89762  1.0000
  C   C1317     1.0  0.59382  0.78557  0.91054  1.0000
  C   C1318     1.0  0.61873  0.75778  0.89234  1.0000
  C   C1319     1.0  0.57901  0.78204  0.87209  1.0000
  C   C1320     1.0  0.65174  0.79553  0.88311  1.0000
  C   C1321     1.0  0.60040  0.77503  0.92957  1.0000
  C   C1322     1.0  0.63658  0.74606  0.90540  1.0000
  H   H2253     1.0  0.59646  0.81155  0.87840  1.0000
  H   H2254     1.0  0.61325  0.79135  0.86525  1.0000
  H   H2255     1.0  0.63856  0.79341  0.91124  1.0000
  H   H2256     1.0  0.62527  0.81562  0.89780  1.0000
  H   H2257     1.0  0.58877  0.80418  0.91201  1.0000
  H   H2258     1.0  0.57784  0.77741  0.90793  1.0000
  H   H2259     1.0  0.60340  0.74736  0.89386  1.0000
  H   H2260     1.0  0.62601  0.75547  0.87801  1.0000
  H   H2261     1.0  0.56383  0.78725  0.88114  1.0000
  H   H2262     1.0  0.57497  0.78888  0.85798  1.0000
  H   H2263     1.0  0.58110  0.76309  0.87174  1.0000
  H   H2264     1.0  0.66578  0.80536  0.88763  1.0000
  C   C1323     1.0  0.98988  0.63926  0.82319  1.0000
  H   H2265     1.0  0.65880  0.77765  0.88152  1.0000
  H   H2266     1.0  0.60123  0.75599  0.93005  1.0000
  H   H2267     1.0  0.58679  0.78034  0.94009  1.0000
  H   H2268     1.0  0.61658  0.78098  0.93402  1.0000
  H   H2269     1.0  0.62956  0.73050  0.91265  1.0000
  H   H2270     1.0  0.64186  0.75678  0.91610  1.0000
  H   H2271     1.0  0.65232  0.73999  0.89730  1.0000
  H   H2272     1.0  0.58963  0.86695  0.00394  1.0000
  H   H2273     1.0  0.81892  0.66265  0.97766  1.0000
  H   H2274     1.0  0.50578  0.83432  0.91155  1.0000
  H   H2275     1.0  0.66560  0.88474  0.99100  1.0000
  H   H2276     1.0  0.96595  0.58750  0.82183  1.0000
  C   C1324     1.0  0.63463  0.88008  0.00917  1.0000
  C   C1325     1.0  0.82291  0.63555  0.94934  1.0000
  H   H2277     1.0  0.61513  0.98298  0.84465  1.0000
  H   H2278     1.0  0.92566  0.61536  0.80914  1.0000
  C   C1326     1.0  0.67354  0.83560  0.99801  1.0000
  H   H2279     1.0  0.64717  0.80358  0.86953  1.0000
  C   C1327     1.0  0.50197  0.81610  0.91074  1.0000
  H   H2280     1.0  0.77607  0.62597  0.99731  1.0000
  H   H2281     1.0  0.78819  0.68617  0.99398  1.0000
  C   C1328     1.0  0.98635  0.61758  0.87593  1.0000
  C   C1329     1.0  0.97789  0.59984  0.82608  1.0000
  H   H2282     1.0  0.98366  0.65440  0.87699  1.0000
  H   H2283     1.0  0.57049  0.99474  0.87820  1.0000
  C   C1330     1.0  0.91122  0.57434  0.76816  1.0000
  C   C1331     1.0  0.59632  0.84887  0.00656  1.0000
  H   H2284     1.0  0.96592  0.56557  0.78144  1.0000
  C   C1332     1.0  0.51244  0.84569  0.86463  1.0000
  H   H2285     1.0  0.95996  0.60932  0.79420  1.0000
  C   C1333     1.0  0.97097  0.62301  0.79769  1.0000
  C   C1334     1.0  0.64725  0.84076  0.99981  1.0000
  H   H2286     1.0  0.96045  0.51636  0.77076  1.0000
  C   C1335     1.0  0.94850  0.63140  0.82712  1.0000
  H   H2287     1.0  0.94468  0.65105  0.79166  1.0000
  H   H2288     1.0  0.62403  0.88246  0.99695  1.0000
  C   C1336     1.0  0.65396  0.99068  0.82688  1.0000
  C   C1337     1.0  0.93522  0.57264  0.76662  1.0000
  H   H2289     1.0  0.62799  0.97395  0.79711  1.0000
  H   H2290     1.0  0.80102  0.50499  0.98298  1.0000
  H   H2291     1.0  0.60312  0.84187  0.99340  1.0000
  H   H2292     1.0  0.67234  0.98798  0.82247  1.0000
  H   H2293     1.0  0.98830  0.61824  0.79135  1.0000
  H   H2294     1.0  0.97281  0.67342  0.81527  1.0000
  H   H2295     1.0  0.53713  0.84207  0.76826  1.0000
  C   C1338     1.0  0.98234  0.66457  0.82658  1.0000
  C   C1339     1.0  0.51459  0.74831  0.01168  1.0000
  H   H2296     1.0  0.96234  0.64207  0.77231  1.0000
  H   H2297     1.0  0.67925  0.82311  0.00921  1.0000
  H   H2298     1.0  0.85516  0.53199  0.99405  1.0000
  C   C1340     1.0  0.99507  0.63934  0.87467  1.0000
  H   H2299     1.0  0.99464  0.58122  0.87399  1.0000
  H   H2300     1.0  0.81751  0.52704  0.97236  1.0000
  H   H2301     1.0  0.99786  0.67412  0.82802  1.0000
  C   C1341     1.0  0.85606  0.50280  0.96425  1.0000
  H   H2302     1.0  0.99832  0.50581  0.85233  1.0000
  C   C1342     1.0  0.84183  0.52263  0.00234  1.0000
  H   H2303     1.0  0.78957  0.51575  0.95197  1.0000
  C   C1343     1.0  0.81506  0.50836  0.97235  1.0000
  C   C1344     1.0  0.80562  0.50462  0.95348  1.0000
  S   S384      1.0  0.62298  0.73789  0.01327  1.0000
  H   H2304     1.0  0.55045  0.75444  0.01363  1.0000
