data_image0
_chemical_formula_structural       FeS2FeS2FeSFeS3FeS2FeS2FeSFeS3C3H6C3HCH2C7H4C2H3CHC2H3CHCHCH2CH2NH3C4HC2NC8H28C2H4CH3CHNH3C4H4CH2CH4CH4C2HCH2CHCH4C2H7CHCH2CHCH2CHCH2CH4NHC2HCHNH2FeS2FeS2FeSFeS3FeHSFeSHCHS2FeS2FeS2FeSFeS3HCH2C3H4CH4C6H4C3H2C6H5C2H2CHC2NH4C3HNC5HC2H3CH5CH2CH5CHCH2NCHCH5CH3C3HFeH2C2H3CH6SCHC2HC3H3CH3NHC2H2CHCHC2H2CH3CNHCH2CH3CH2CSH2CH9CH12C3H4CFeHSHCH6CH6C2HCH4NH4FeS2FeS2FeSFeS3FeHSH2C2HNS2FeS2FeS2FeSFeS3H2CHC2H5C6H4C2H5CHC3H2C6H5C2H2C3HCH2CNCHCHCH5CH3CH2CH2CHCH3C2NC8H20C3H2FeH2CHCHC3HCH3CH7CH2CH5CHNC8H9NHCHCH12NC2HCH3CH3CH3C3SHCH5C2H2CH2FeS2FeS2FeSFeS3CFeS2FeS2FeSFeS3CH3C4H2C3HCH3CHC6H4CH3CHCHCNH2CH5C2HCH3C4HC2HCHC3H2NH2CHC4H4CHC2H3CH4CHCH5C2H2CH5CHCH3CH4CH5CNH3CH6CHCH3CH2CHCH6CH5CH5CH2CH2CHCNH3FeS2FeS2FeSFeS3FeSHFeS2FeSFeS3C6H4CH7CHCH3CH2C4H4NCHC2NCH7C2SH3NC2HCH3CHCNC8H18CH4C2H5CHC5H3CHCH5CH4NHC2H2CH2C2HCH4CH4C3H4CHCH3C3H3CHC2HFeS2FeS2FeSFeS5FeSFeHFeS2FeSFeSFeS3C6H4C6H7CH4C3H3C3HCH3C3H5C7H2C2SCFeC4H2C2HN2C8H14CH5C2H6NC8H23SH2CH3CH5CH5CH2CHCHCHC3H4CH5CH11CH2CH3SHNH2C2HC3FeHCNC2H2C2HCH4CH4FeS2FeS2FeSFeS3FeSFeHS2FeS2FeSFeSFeS3C6H4C6H4CH5CHSCHSCH2CH3C3H4C6H4C2H4CSC2HCH3C2HNHC4H12NH3CHNHC2NC8H23CNH3CHC3H6CHC3HCHCH4C3H4CH2FeH2CH6CH2CHCH2C2H8CNC2HCHSH3CH3C3H2CHFeS2FeSFeSFeS3FeS2FeSHFeCFeS3H6C6H5CH5C5H7CHC2H2CHCH2NCH4CHCNH2NC4HC3H9C3HCH6SC3SCHCNHCHC2H2CH4CH4C3H2C2SC2H6CH3CHCH2CH4CH3CHCHCSH2CH5CHCHCHNH5CH6CHCH2CHC2HCFeS2Fe2HS2CSCFeSHFe2S2FeS2FeSHFeSFeS3FeS2FeS2FeSFeS3C6H5C2HCH2SHC2HC6H4CHC6H5C3H2C2HNH2NC8H24C2H3CH2SCH3CH3C2H2FeH6C3HC4HCH2CHCHC2H2CH3CHC2N2H11CH2CHC3H3NHCH9CH2CHC2H2NHSH2SC2HC3H6CSHCFeHCHCH2C2H2C2H3SHSH3CH5CH4C2HCHCH7C2SHFeS2FeHFeSCSH2FeS2FeSHFeSFeS3HC2HCH4CHCH4C7H4C3H2CHC2SHFeCH4NCH5CH2CHCHC2H8SCH4CHCH4CHN2H4CHSH2CHCSH3CH4C3H3CHCH11CH5CH4C2HC4H2SHCSHFeSFeHSFeSFeS2FeSCFeSFeS3CH2CHC3H2CH3C6H4C2H2CH4CHCHCH2C2SH2CNHSHCHNH3CHFeH4NC8H3CHCH5CHCH2CH5C2H2S2HCHCH2C2SH4CH3SH3NHCHCH3FeC2HFeH3CH4CHC2H4C2HCH2CH5SCH4CNHCH3CHFeS2HC2H2FeHCSFeSHFeSHFeHFeS3FeS2FeS2FeSFeS3FeHFeS2FeHFeS3HCHC6H4SH2C2H4C6H5CH2C8H4CHCH7CHSH2CH2C2H2CHCH4SCH2CFeH4NS2CNHCH2CHSH10SCN2C3HCH3C2H3CH3NC5HC2H11CH5CFeCH3C3H2CHCH3C2H2CH4CHC2H2SHCHCH5CH5C2HSC2HCFeSFeSHFeS2FeS3FeS2FeS2FeSFeHS2FeS2FeS2FeSFeS3C6H4CH6CH4C2FeCH2CHC2HCH6C6H4C6H6CHC2H2C2NSH2CH8CH6CHSHC2H2C2HCH5C2HCHCNC6H15CHCH2C3H4CHC2FeCH4CH3SH2CHCFeCH2FeHNH4CSHC2H2NHCH3CH3CHC2HCHCH2CH3NC2HCH2SCSNH3CH4SHC4H2NHCHCH3CHC2H3CH6CFeS3H2CH2CFeS2FeSHFeSFeS3H2C2HC2H2FeHNCH4NH2CFeHC5H2CHC6H4CHC2H2CH3CH2SC4H4C2HSCH2CH7CHCHCHCH2CH6C2H4CSH4CSH2C2H3CHCH3SCHFeCHCH2C2H3C3HC3SNHCHNH3CHSHSCNH2CHSH3C2H2CHC2HC4HCH2NH2SHCFeSCSFeS2FeS2FeSFeS3FeHCSCHC3H5CH2C5H2C6H3C7H9CH7C2HCH2CH3C2NC3HCHNH2CH7SCH2CH2CH2SH3SH3CSHCH7CHCH5CH9CSHFeCNHC3H2FeC2H2C3H2C2HCH3CH2CH2CHC2HCH6C3H2CHFeH4CHC6H4CHCHCH2FeSCHSHFeSCSFeS3FeS2FeSHFeSFeS3CFeS2FeS2FeSFeS3C6H4C2H2CH2NH4CH4FeH2C3H2C6H4C6H4C2HCH2C2HCH4NHC2HCH9C2H3C2H2CH2FeCNCHCH5C3H4CHCH2CHSCH2CH2SHSH2CH3C2HCH2CH2NC7H14NC8H20FeCH2FeSH2CH2SCH4C2HFeHC2HC3H2C4NH3CH3SH2C2H2CHCH2CFeS2FeS2FeSFeS3H2CH2FeS2FeS2FeSFeS3CH3CHCH8CHNHCHC2H3C6H4C4SCH5C2H4C3HC2HCHCHCH5CHC2H12NCHCH2CHC2NCH2CHCHCHC2H2C2HC2H2CH5SHC2H2CH4CH3C4H2CH5C3H2NC6HCH11C2H4NH2CH8CH3CSCHNCH5CH2CFeSCFeSCFeSFeS3FeS2FeS2FeSFeS3FeS2FeS2FeHFeS3HC5H5C4H2C6H4CH6CNSNHC6H5CHCH2C2H5CHSNC8H10CH2C2H3CNC8H13CH2C2H2CH2CHC2HC2HCHNC8H20CHCH2CH3CH4CH2CH4C2SH5CH4NH6CH3CH3CH7CH2CH3C2H2C3HC2HCNC2H2CSCHCH5FeS2FeS2FeHFeS3FeS2FeS2FeHFeHS2FeS2FeS2FeSFeS4H2CHC3H2CHCHC4HC6H4SHC2H2CH2SHC2H6C6H4NC8H19CH8CH2CHCH3NC3HC2H4CH3C2H2NH2C3HCHNH3CHC2HCH4C2HCH2C2HCH5CHCHCH3CH6CHC2H2SCH11C2HC3H3CH2NH2NH4FeS2FeS2FeSFeS3FeS2FeS2FeSFeS3C2HNCH3CHCH3CHCHC6H4C3HNH2CSC6H3C3H8CH6NHC2HCH2CHCH2SC2H3CH5CH13C3HC2H3CH5C2H2CHCH2CHC2NH2CH2C3H5C3HCH4CHC2HCHCH2C2HCH5C2HCHC2H6CHSNH3C2H2C2HNCH2C2H3C2H4CFeS2FeS2FeSFeS3C2H2FeSHFeSHFeSFeS3HCH7CH3C2HC6H4C6H4NH2C2H7C2H3C3HCH2CH2NCH6C4H9SH6C3H2CH7CH8CH4CHCHNC2H2C2SHC2HSCH3CHC2H4CH2CHCH5CH6CH4C2SCHFeS2FeSFeSFeS3FeS2FeS2FeSFeHS2FeSHFeSHFeSFeS3CH3NHCHCH4CHCH2CH2C8H4C2HC6H4C3H3CH7C2HC2H2NC8H25C2H2CHCH2SH2C2H8C2HCNHC5H2CH4CHSHNH3CHSHCHC3H3CH3C2H2CHCH2CNHNHCH3NC2HCHC2H9CH2CH2C2HCH6CH2CFeS2FeSFeSFeS3FeS2FeS2FeSFeHS2FeSHFeSHFeSFeS3H3C4H2CHC3HCH2CH2C3HCH3C8H4CHCHC6H5C3H5CH4NC8H21CH3C2H3CH3CH2CH6CH3NH5SNHNHC4H2C2SH4CNHSH2SCH4CHCHCHCHCH5CH3SHC2H5CHCH2CH2NHCH3CHC2H6SCHCFeS2FeSHFeSFeS3CH4CH2FeS2FeS2FeHFeHS2H2CH2CH3SNC6H5C3HC7H4CH5C2H4C2H2C2SNH3CH10CH6SCH4CHC4H9CHCHCH2CH8N2C8H2C3H3CH7CHSH2CSHC2H6C
_chemical_formula_sum              "Fe256 S512 C1792 H3072 N128"
_cell_length_a       55.3864
_cell_length_b       55.6492
_cell_length_c       94.7752
_cell_angle_alpha    81.8906
_cell_angle_beta     81.9059
_cell_angle_gamma    80.8158

_space_group_name_H-M_alt    "P 1"
_space_group_IT_number       1

loop_
  _space_group_symop_operation_xyz
  'x, y, z'

loop_
  _atom_site_type_symbol
  _atom_site_label
  _atom_site_symmetry_multiplicity
  _atom_site_fract_x
  _atom_site_fract_y
  _atom_site_fract_z
  _atom_site_occupancy
  Fe  Fe1       1.0  0.20753  0.40691  0.16848  1.0000
  S   S1        1.0  0.17211  0.39128  0.16941  1.0000
  S   S2        1.0  0.19949  0.44595  0.17492  1.0000
  Fe  Fe2       1.0  0.23770  0.36038  0.15761  1.0000
  S   S3        1.0  0.20403  0.34255  0.15746  1.0000
  S   S4        1.0  0.27552  0.34201  0.14852  1.0000
  Fe  Fe3       1.0  0.18686  0.37945  0.14767  1.0000
  S   S5        1.0  0.15992  0.39043  0.13069  1.0000
  Fe  Fe4       1.0  0.19204  0.35590  0.17918  1.0000
  S   S6        1.0  0.17543  0.32856  0.19685  1.0000
  S   S7        1.0  0.22127  0.39678  0.14631  1.0000
  S   S8        1.0  0.22671  0.37197  0.17979  1.0000
  Fe  Fe5       1.0  0.07796  0.39079  0.05007  1.0000
  S   S9        1.0  0.10442  0.35612  0.04844  1.0000
  S   S10       1.0  0.04048  0.39337  0.06274  1.0000
  Fe  Fe6       1.0  0.11229  0.42122  0.03044  1.0000
  S   S11       1.0  0.14203  0.38934  0.02736  1.0000
  S   S12       1.0  0.11393  0.45897  0.01898  1.0000
  Fe  Fe7       1.0  0.11073  0.36974  0.02481  1.0000
  S   S13       1.0  0.10580  0.34870  0.00687  1.0000
  Fe  Fe8       1.0  0.13302  0.37923  0.05137  1.0000
  S   S14       1.0  0.16222  0.36524  0.06663  1.0000
  S   S15       1.0  0.08175  0.40251  0.02651  1.0000
  S   S16       1.0  0.10583  0.41310  0.05443  1.0000
  C   C1        1.0  0.13459  0.47098  0.02728  1.0000
  C   C2        1.0  0.15162  0.45522  0.03507  1.0000
  C   C3        1.0  0.16783  0.46486  0.04207  1.0000
  H   H1        1.0  0.23375  0.37835  0.20906  1.0000
  H   H2        1.0  0.03926  0.36097  0.09012  1.0000
  H   H3        1.0  0.25657  0.45069  0.08002  1.0000
  H   H4        1.0  0.15240  0.43558  0.03570  1.0000
  H   H5        1.0  0.18109  0.45262  0.04795  1.0000
  H   H6        1.0  0.27539  0.48463  0.17012  1.0000
  C   C4        1.0  0.17794  0.45087  0.08444  1.0000
  C   C5        1.0  0.21694  0.47018  0.17487  1.0000
  C   C6        1.0  0.24259  0.46741  0.17164  1.0000
  H   H7        1.0  0.20568  0.47273  0.14275  1.0000
  C   C7        1.0  0.19967  0.47520  0.98674  1.0000
  H   H8        1.0  0.25252  0.45012  0.16868  1.0000
  H   H9        1.0  0.17885  0.49080  0.08327  1.0000
  C   C8        1.0  0.25551  0.48701  0.17249  1.0000
  C   C9        1.0  0.16127  0.38298  0.11292  1.0000
  C   C10       1.0  0.17817  0.36394  0.10756  1.0000
  C   C11       1.0  0.17817  0.35868  0.09340  1.0000
  C   C12       1.0  0.16146  0.37247  0.08441  1.0000
  C   C13       1.0  0.14492  0.39179  0.08969  1.0000
  C   C14       1.0  0.14460  0.39676  0.10391  1.0000
  H   H10       1.0  0.19110  0.35314  0.11435  1.0000
  H   H11       1.0  0.19120  0.34379  0.08940  1.0000
  H   H12       1.0  0.13242  0.40295  0.08279  1.0000
  H   H13       1.0  0.13153  0.41160  0.10792  1.0000
  C   C15       1.0  0.29213  0.31482  0.15674  1.0000
  C   C16       1.0  0.28791  0.30737  0.17149  1.0000
  H   H14       1.0  0.16655  0.43771  0.09108  1.0000
  H   H15       1.0  0.05175  0.44394  0.04834  1.0000
  H   H16       1.0  0.27361  0.31783  0.17806  1.0000
  C   C17       1.0  0.24679  0.39058  0.21068  1.0000
  H   H17       1.0  0.02814  0.46657  0.05505  1.0000
  C   C18       1.0  0.16988  0.32907  0.21573  1.0000
  C   C19       1.0  0.31097  0.30107  0.14839  1.0000
  H   H18       1.0  0.32682  0.24025  0.02549  1.0000
  H   H19       1.0  0.20011  0.45661  0.20351  1.0000
  H   H20       1.0  0.05717  0.44400  0.99620  1.0000
  C   C20       1.0  0.08372  0.35017  0.21401  1.0000
  H   H21       1.0  0.02384  0.34282  0.10451  1.0000
  C   C21       1.0  0.06591  0.47636  0.05222  1.0000
  H   H22       1.0  0.17553  0.46841  0.14025  1.0000
  C   C22       1.0  0.11866  0.35623  0.98893  1.0000
  H   H23       1.0  0.20532  0.43597  0.12210  1.0000
  H   H24       1.0  0.21040  0.48085  0.97634  1.0000
  C   C23       1.0  0.01356  0.35128  0.03883  1.0000
  H   H25       1.0  0.15113  0.36781  0.99429  1.0000
  H   H26       1.0  0.08885  0.34536  0.98009  1.0000
  N   N1        1.0  0.10013  0.44284  0.97427  1.0000
  H   H27       1.0  0.29974  0.28176  0.18930  1.0000
  H   H28       1.0  0.18583  0.41467  0.06588  1.0000
  H   H29       1.0  0.32786  0.17167  0.05836  1.0000
  C   C24       1.0  0.18948  0.48114  0.13715  1.0000
  C   C25       1.0  0.02968  0.36299  0.04478  1.0000
  C   C26       1.0  0.02038  0.37916  0.05493  1.0000
  C   C27       1.0  0.09135  0.42393  0.98607  1.0000
  H   H30       1.0  0.04931  0.35922  0.04163  1.0000
  C   C28       1.0  0.14449  0.43378  0.98118  1.0000
  C   C29       1.0  0.30461  0.17116  0.20085  1.0000
  N   N2        1.0  0.08780  0.34368  0.09830  1.0000
  C   C30       1.0  0.09465  0.32158  0.09015  1.0000
  C   C31       1.0  0.06266  0.34186  0.10654  1.0000
  C   C32       1.0  0.10672  0.34244  0.10853  1.0000
  C   C33       1.0  0.08806  0.36634  0.08750  1.0000
  C   C34       1.0  0.12147  0.31732  0.08285  1.0000
  C   C35       1.0  0.04145  0.34345  0.09732  1.0000
  C   C36       1.0  0.09948  0.35726  0.12144  1.0000
  C   C37       1.0  0.07770  0.39128  0.09292  1.0000
  H   H31       1.0  0.09155  0.30443  0.09736  1.0000
  H   H32       1.0  0.08279  0.32275  0.08144  1.0000
  H   H33       1.0  0.05694  0.35629  0.11376  1.0000
  H   H34       1.0  0.06302  0.32432  0.11388  1.0000
  H   H35       1.0  0.11197  0.32313  0.11331  1.0000
  H   H36       1.0  0.12408  0.34836  0.10269  1.0000
  H   H37       1.0  0.10715  0.36803  0.08242  1.0000
  H   H38       1.0  0.07837  0.36484  0.07822  1.0000
  H   H39       1.0  0.13512  0.31330  0.09068  1.0000
  H   H40       1.0  0.12385  0.30116  0.07685  1.0000
  H   H41       1.0  0.12596  0.33299  0.07490  1.0000
  H   H42       1.0  0.28580  0.17954  0.19860  1.0000
  H   H43       1.0  0.32807  0.11122  0.22034  1.0000
  H   H44       1.0  0.04368  0.32785  0.09094  1.0000
  H   H45       1.0  0.11612  0.35693  0.12686  1.0000
  H   H46       1.0  0.08580  0.34884  0.12955  1.0000
  H   H47       1.0  0.09252  0.37673  0.11838  1.0000
  H   H48       1.0  0.09222  0.39941  0.09676  1.0000
  H   H49       1.0  0.06176  0.39068  0.10131  1.0000
  H   H50       1.0  0.07048  0.40418  0.08393  1.0000
  H   H51       1.0  0.16927  0.36779  0.21511  1.0000
  H   H52       1.0  0.05924  0.41138  0.99911  1.0000
  H   H53       1.0  0.32472  0.23408  0.20918  1.0000
  H   H54       1.0  0.08292  0.47226  0.04468  1.0000
  H   H55       1.0  0.16454  0.49434  0.98219  1.0000
  H   H56       1.0  0.02092  0.33845  0.03120  1.0000
  H   H57       1.0  0.04215  0.47029  0.03648  1.0000
  H   H58       1.0  0.31414  0.16417  0.19080  1.0000
  C   C38       1.0  0.19926  0.43118  0.11231  1.0000
  C   C39       1.0  0.31940  0.18988  0.20495  1.0000
  H   H59       1.0  0.19862  0.39287  0.22006  1.0000
  H   H60       1.0  0.23153  0.42208  0.19693  1.0000
  H   H61       1.0  0.21829  0.48966  0.21285  1.0000
  H   H62       1.0  0.10029  0.42391  0.99588  1.0000
  C   C40       1.0  0.14134  0.36502  0.98569  1.0000
  H   H63       1.0  0.26320  0.38694  0.20266  1.0000
  H   H64       1.0  0.05233  0.42682  0.98214  1.0000
  H   H65       1.0  0.09177  0.29069  0.21443  1.0000
  C   C41       1.0  0.32397  0.22150  0.21942  1.0000
  H   H66       1.0  0.25607  0.23661  0.20682  1.0000
  N   N3        1.0  0.20508  0.44187  0.08476  1.0000
  H   H67       1.0  0.02794  0.36041  0.99611  1.0000
  H   H68       1.0  0.30369  0.15497  0.20907  1.0000
  H   H69       1.0  0.23286  0.43688  0.09928  1.0000
  C   C42       1.0  0.20538  0.40931  0.06776  1.0000
  C   C43       1.0  0.10630  0.35233  0.97766  1.0000
  C   C44       1.0  0.16649  0.49022  0.04161  1.0000
  C   C45       1.0  0.15200  0.36889  0.97131  1.0000
  H   H70       1.0  0.17289  0.45189  0.07341  1.0000
  H   H71       1.0  0.25219  0.42986  0.06778  1.0000
  H   H72       1.0  0.07125  0.36300  0.20727  1.0000
  H   H73       1.0  0.27108  0.19671  0.21918  1.0000
  C   C46       1.0  0.00791  0.35933  0.99873  1.0000
  H   H74       1.0  0.20952  0.38915  0.06751  1.0000
  H   H75       1.0  0.07035  0.46614  0.06265  1.0000
  C   C47       1.0  0.30274  0.28682  0.17783  1.0000
  H   H76       1.0  0.00935  0.34014  0.98050  1.0000
  H   H77       1.0  0.18463  0.49502  0.18153  1.0000
  H   H78       1.0  0.19324  0.45767  0.98572  1.0000
  H   H79       1.0  0.21224  0.45767  0.06258  1.0000
  C   C48       1.0  0.20671  0.45367  0.21424  1.0000
  H   H80       1.0  0.22898  0.40687  0.08444  1.0000
  H   H81       1.0  0.25544  0.46100  0.06143  1.0000
  H   H82       1.0  0.24038  0.46840  0.20386  1.0000
  H   H83       1.0  0.21169  0.46412  0.10048  1.0000
  C   C49       1.0  0.32537  0.28008  0.15468  1.0000
  C   C50       1.0  0.28264  0.21153  0.21866  1.0000
  H   H84       1.0  0.10701  0.48090  0.06451  1.0000
  C   C51       1.0  0.20444  0.49275  0.17884  1.0000
  H   H85       1.0  0.17901  0.43643  0.11314  1.0000
  H   H86       1.0  0.08355  0.49089  0.07869  1.0000
  C   C52       1.0  0.04559  0.46402  0.04773  1.0000
  H   H87       1.0  0.00598  0.34362  0.00720  1.0000
  C   C53       1.0  0.32155  0.27306  0.16949  1.0000
  H   H88       1.0  0.10298  0.46594  0.99039  1.0000
  H   H89       1.0  0.16689  0.48703  0.00062  1.0000
  H   H90       1.0  0.28191  0.22390  0.19537  1.0000
  H   H91       1.0  0.16377  0.42887  0.97626  1.0000
  C   C54       1.0  0.06337  0.42709  0.99097  1.0000
  C   C55       1.0  0.20988  0.41515  0.08254  1.0000
  H   H92       1.0  0.19785  0.40449  0.09058  1.0000
  H   H93       1.0  0.19448  0.48200  0.12543  1.0000
  H   H94       1.0  0.09698  0.40511  0.98297  1.0000
  H   H95       1.0  0.09874  0.34137  0.20657  1.0000
  H   H96       1.0  0.14347  0.45146  0.98548  1.0000
  H   H97       1.0  0.20380  0.41097  0.11266  1.0000
  H   H98       1.0  0.14901  0.48176  0.08735  1.0000
  C   C56       1.0  0.16856  0.47637  0.08935  1.0000
  H   H99       1.0  0.16900  0.47625  0.10101  1.0000
  C   C57       1.0  0.27634  0.23095  0.20589  1.0000
  H   H100      1.0  0.19041  0.41497  0.20539  1.0000
  H   H101      1.0  0.32145  0.17878  0.04050  1.0000
  C   C58       1.0  0.22688  0.47013  0.21363  1.0000
  H   H102      1.0  0.21752  0.41778  0.05877  1.0000
  C   C59       1.0  0.21308  0.44445  0.09895  1.0000
  H   H103      1.0  0.21686  0.47649  0.07515  1.0000
  H   H104      1.0  0.14100  0.41916  0.99015  1.0000
  C   C60       1.0  0.24744  0.44882  0.07063  1.0000
  H   H105      1.0  0.07579  0.47389  0.98209  1.0000
  C   C61       1.0  0.21936  0.45704  0.07304  1.0000
  H   H106      1.0  0.32121  0.20429  0.19559  1.0000
  H   H107      1.0  0.28477  0.24770  0.20594  1.0000
  C   C62       1.0  0.23610  0.41804  0.20819  1.0000
  H   H108      1.0  0.16871  0.29017  0.21998  1.0000
  H   H109      1.0  0.31435  0.30665  0.13696  1.0000
  H   H110      1.0  0.04293  0.47875  0.07939  1.0000
  H   H111      1.0  0.25185  0.42801  0.20852  1.0000
  N   N4        1.0  0.21420  0.42665  0.21862  1.0000
  H   H112      1.0  0.21177  0.47119  0.99540  1.0000
  C   C63       1.0  0.09586  0.46741  0.97988  1.0000
  C   C64       1.0  0.19363  0.41285  0.21691  1.0000
  H   H113      1.0  0.11607  0.30580  0.21733  1.0000
  C   C65       1.0  0.17706  0.49435  0.99032  1.0000
  H   H114      1.0  0.05970  0.32306  0.21594  1.0000
  N   N5        1.0  0.30946  0.20109  0.21856  1.0000
  H   H115      1.0  0.00057  0.37194  0.97692  1.0000
  H   H116      1.0  0.09148  0.36148  0.22050  1.0000
  Fe  Fe9       1.0  0.08281  0.27772  0.28683  1.0000
  S   S17       1.0  0.09666  0.30926  0.29416  1.0000
  S   S18       1.0  0.04480  0.28670  0.27897  1.0000
  Fe  Fe10      1.0  0.13260  0.24448  0.28995  1.0000
  S   S19       1.0  0.14970  0.27385  0.29726  1.0000
  S   S20       1.0  0.15058  0.20517  0.28783  1.0000
  Fe  Fe11      1.0  0.11340  0.28177  0.31117  1.0000
  S   S21       1.0  0.10833  0.28087  0.33569  1.0000
  Fe  Fe12      1.0  0.13156  0.29882  0.27954  1.0000
  S   S22       1.0  0.14833  0.32948  0.26454  1.0000
  S   S23       1.0  0.09717  0.25084  0.30469  1.0000
  S   S24       1.0  0.11684  0.26881  0.27137  1.0000
  Fe  Fe13      1.0  0.27789  0.11903  0.29992  1.0000
  H   H117      1.0  0.24083  0.42415  0.23352  1.0000
  S   S25       1.0  0.25536  0.15522  0.30578  1.0000
  Fe  Fe14      1.0  0.28734  0.06268  0.29984  1.0000
  S   S26       1.0  0.26906  0.02794  0.30528  1.0000
  H   H118      1.0  0.09901  0.43757  0.44602  1.0000
  C   C66       1.0  0.02243  0.49002  0.39305  1.0000
  H   H119      1.0  0.19925  0.14739  0.33811  1.0000
  S   S27       1.0  0.28963  0.08748  0.31646  1.0000
  S   S28       1.0  0.27194  0.09423  0.28439  1.0000
  Fe  Fe15      1.0  0.07442  0.35414  0.42722  1.0000
  S   S29       1.0  0.11376  0.33933  0.41990  1.0000
  S   S30       1.0  0.04778  0.33060  0.43996  1.0000
  Fe  Fe16      1.0  0.08056  0.40667  0.41628  1.0000
  S   S31       1.0  0.12015  0.39629  0.40805  1.0000
  S   S32       1.0  0.06083  0.44515  0.41678  1.0000
  Fe  Fe17      1.0  0.10757  0.36495  0.39955  1.0000
  S   S33       1.0  0.11969  0.36092  0.37573  1.0000
  Fe  Fe18      1.0  0.12233  0.37197  0.42900  1.0000
  S   S34       1.0  0.15068  0.37658  0.44311  1.0000
  S   S35       1.0  0.06748  0.37753  0.40650  1.0000
  S   S36       1.0  0.08346  0.38450  0.43767  1.0000
  H   H120      1.0  0.01468  0.44781  0.40737  1.0000
  C   C67       1.0  0.08102  0.46664  0.41030  1.0000
  H   H121      1.0  0.04673  0.28844  0.35651  1.0000
  H   H122      1.0  0.05193  0.30899  0.24898  1.0000
  C   C68       1.0  0.31877  0.18453  0.30598  1.0000
  C   C69       1.0  0.05044  0.28263  0.23505  1.0000
  C   C70       1.0  0.10117  0.46103  0.40005  1.0000
  H   H123      1.0  0.26932  0.02946  0.23918  1.0000
  H   H124      1.0  0.01341  0.33493  0.34556  1.0000
  H   H125      1.0  0.30106  0.16657  0.23041  1.0000
  H   H126      1.0  0.10346  0.44413  0.39532  1.0000
  C   C71       1.0  0.28455  0.13653  0.34331  1.0000
  H   H127      1.0  0.15493  0.40946  0.22250  1.0000
  H   H128      1.0  0.05348  0.34159  0.23008  1.0000
  H   H129      1.0  0.14356  0.32926  0.45885  1.0000
  H   H130      1.0  0.05708  0.31114  0.34220  1.0000
  C   C72       1.0  0.11738  0.33791  0.36487  1.0000
  C   C73       1.0  0.12176  0.34315  0.34983  1.0000
  C   C74       1.0  0.11932  0.32590  0.34072  1.0000
  C   C75       1.0  0.11262  0.30305  0.34656  1.0000
  C   C76       1.0  0.10859  0.29764  0.36160  1.0000
  C   C77       1.0  0.11099  0.31491  0.37071  1.0000
  H   H131      1.0  0.12691  0.36079  0.34518  1.0000
  H   H132      1.0  0.12257  0.33032  0.32918  1.0000
  H   H133      1.0  0.10351  0.27999  0.36625  1.0000
  H   H134      1.0  0.10791  0.31043  0.38224  1.0000
  C   C78       1.0  0.15768  0.32867  0.24587  1.0000
  C   C79       1.0  0.16123  0.35061  0.23695  1.0000
  C   C80       1.0  0.16081  0.30686  0.23966  1.0000
  H   H135      1.0  0.15878  0.36756  0.24166  1.0000
  H   H136      1.0  0.15868  0.28980  0.24643  1.0000
  C   C81       1.0  0.18090  0.19235  0.29137  1.0000
  C   C82       1.0  0.18869  0.16727  0.29037  1.0000
  C   C83       1.0  0.21186  0.15583  0.29419  1.0000
  C   C84       1.0  0.22736  0.16933  0.29924  1.0000
  C   C85       1.0  0.21974  0.19453  0.30005  1.0000
  C   C86       1.0  0.19676  0.20608  0.29596  1.0000
  H   H137      1.0  0.17658  0.15651  0.28681  1.0000
  H   H138      1.0  0.21743  0.13642  0.29358  1.0000
  H   H139      1.0  0.23161  0.20514  0.30393  1.0000
  H   H140      1.0  0.19110  0.22543  0.29668  1.0000
  H   H141      1.0  0.06021  0.49108  0.38340  1.0000
  C   C87       1.0  0.16851  0.41974  0.22569  1.0000
  C   C88       1.0  0.32336  0.20360  0.33721  1.0000
  H   H142      1.0  0.03892  0.34940  0.39177  1.0000
  H   H143      1.0  0.07362  0.35729  0.24545  1.0000
  C   C89       1.0  0.16664  0.30712  0.22468  1.0000
  H   H144      1.0  0.02401  0.40356  0.45247  1.0000
  C   C90       1.0  0.30099  0.99769  0.25527  1.0000
  C   C91       1.0  0.02735  0.32501  0.42871  1.0000
  N   N6        1.0  0.14920  0.19486  0.33583  1.0000
  H   H145      1.0  0.20306  0.44075  0.45661  1.0000
  H   H146      1.0  0.18035  0.18143  0.32112  1.0000
  H   H147      1.0  0.12742  0.26221  0.22243  1.0000
  H   H148      1.0  0.12485  0.27486  0.23888  1.0000
  C   C92       1.0  0.01902  0.27043  0.28267  1.0000
  C   C93       1.0  0.01940  0.24795  0.29143  1.0000
  C   C94       1.0  0.14906  0.22021  0.32768  1.0000
  H   H149      1.0  0.03608  0.23959  0.29594  1.0000
  N   N7        1.0  0.03102  0.33962  0.36386  1.0000
  C   C95       1.0  0.02153  0.32365  0.35485  1.0000
  C   C96       1.0  0.06571  0.29687  0.24249  1.0000
  C   C97       1.0  0.04178  0.32289  0.37609  1.0000
  C   C98       1.0  0.05040  0.35304  0.35463  1.0000
  C   C99       1.0  0.04075  0.30364  0.34828  1.0000
  H   H150      1.0  0.16170  0.46861  0.41177  1.0000
  C   C100      1.0  0.05236  0.33513  0.38694  1.0000
  C   C101      1.0  0.05538  0.37704  0.35951  1.0000
  H   H151      1.0  0.27613  0.06510  0.22323  1.0000
  H   H152      1.0  0.28192  0.07277  0.24003  1.0000
  H   H153      1.0  0.00638  0.31431  0.36123  1.0000
  C   C102      1.0  0.00818  0.41853  0.45299  1.0000
  H   H154      1.0  0.02775  0.31189  0.38225  1.0000
  H   H155      1.0  0.05732  0.30943  0.37204  1.0000
  H   H156      1.0  0.06829  0.34071  0.35349  1.0000
  H   H157      1.0  0.32488  0.07807  0.34189  1.0000
  H   H158      1.0  0.03226  0.29532  0.34055  1.0000
  C   C103      1.0  0.31204  0.18135  0.23111  1.0000
  H   H159      1.0  0.07043  0.34538  0.46181  1.0000
  H   H160      1.0  0.13457  0.47238  0.38839  1.0000
  C   C104      1.0  0.32727  0.02954  0.24780  1.0000
  H   H161      1.0  0.28113  0.11769  0.34791  1.0000
  H   H162      1.0  0.01412  0.36862  0.37696  1.0000
  H   H163      1.0  0.06917  0.34296  0.38204  1.0000
  H   H164      1.0  0.05785  0.32102  0.39588  1.0000
  H   H165      1.0  0.07541  0.37828  0.35707  1.0000
  C   C105      1.0  0.10108  0.29563  0.22307  1.0000
  H   H166      1.0  0.03706  0.29520  0.22881  1.0000
  C   C106      1.0  0.30698  0.16778  0.31855  1.0000
  H   H167      1.0  0.00474  0.47106  0.37085  1.0000
  H   H168      1.0  0.25316  0.04348  0.27686  1.0000
  N   N8        1.0  0.15677  0.45697  0.43463  1.0000
  C   C107      1.0  0.02311  0.30103  0.42834  1.0000
  H   H169      1.0  0.01735  0.44219  0.38944  1.0000
  C   C108      1.0  0.12304  0.21623  0.35693  1.0000
  H   H170      1.0  0.09669  0.18894  0.34353  1.0000
  H   H171      1.0  0.01900  0.36292  0.42005  1.0000
  H   H172      1.0  0.00269  0.37205  0.46202  1.0000
  H   H173      1.0  0.18651  0.22969  0.32604  1.0000
  H   H174      1.0  0.22084  0.40140  0.23773  1.0000
  C   C109      1.0  0.14521  0.36661  0.46168  1.0000
  H   H175      1.0  0.10042  0.21131  0.32773  1.0000
  H   H176      1.0  0.13735  0.18093  0.31811  1.0000
  H   H177      1.0  0.17252  0.15138  0.35102  1.0000
  C   C110      1.0  0.14283  0.34209  0.46653  1.0000
  C   C111      1.0  0.28865  0.03301  0.23780  1.0000
  C   C112      1.0  0.16776  0.23542  0.33144  1.0000
  H   H178      1.0  0.13791  0.49369  0.42954  1.0000
  Fe  Fe19      1.0  0.32800  0.08943  0.30550  1.0000
  H   H179      1.0  0.15963  0.19681  0.35671  1.0000
  H   H180      1.0  0.16138  0.44715  0.45715  1.0000
  C   C113      1.0  0.06881  0.33130  0.22345  1.0000
  C   C114      1.0  0.14285  0.19520  0.35185  1.0000
  H   H181      1.0  0.16103  0.43940  0.22359  1.0000
  H   H182      1.0  0.13074  0.23147  0.32900  1.0000
  H   H183      1.0  0.13707  0.42727  0.43221  1.0000
  C   C115      1.0  0.28857  0.06029  0.23174  1.0000
  H   H184      1.0  0.09621  0.34775  0.25753  1.0000
  H   H185      1.0  0.32709  0.07541  0.36811  1.0000
  H   H186      1.0  0.05065  0.37871  0.37107  1.0000
  H   H187      1.0  0.12144  0.44042  0.45730  1.0000
  H   H188      1.0  0.30716  0.06396  0.22666  1.0000
  H   H189      1.0  0.30681  0.20824  0.24702  1.0000
  S   S37       1.0  0.31676  0.12262  0.28994  1.0000
  C   C116      1.0  0.17785  0.43069  0.41474  1.0000
  H   H190      1.0  0.00491  0.27769  0.41827  1.0000
  C   C117      1.0  0.00464  0.45162  0.39779  1.0000
  C   C118      1.0  0.10434  0.19179  0.33206  1.0000
  H   H191      1.0  0.12412  0.45651  0.42458  1.0000
  C   C119      1.0  0.00909  0.35663  0.36982  1.0000
  C   C120      1.0  0.26026  0.04522  0.26525  1.0000
  C   C121      1.0  0.31442  0.17853  0.34201  1.0000
  H   H192      1.0  0.03230  0.28600  0.43507  1.0000
  H   H193      1.0  0.18711  0.44398  0.24316  1.0000
  H   H194      1.0  0.04076  0.48580  0.37104  1.0000
  C   C122      1.0  0.11370  0.44836  0.44722  1.0000
  H   H195      1.0  0.03949  0.27143  0.24348  1.0000
  H   H196      1.0  0.25463  0.06475  0.26121  1.0000
  H   H197      1.0  0.04528  0.35817  0.34353  1.0000
  N   N9        1.0  0.30076  0.02495  0.25131  1.0000
  H   H198      1.0  0.09420  0.18156  0.32614  1.0000
  C   C123      1.0  0.00768  0.29633  0.41884  1.0000
  C   C124      1.0  0.20617  0.43649  0.24515  1.0000
  H   H199      1.0  0.25042  0.03342  0.26036  1.0000
  H   H200      1.0  0.31478  0.23344  0.22765  1.0000
  C   C125      1.0  0.08322  0.34101  0.25159  1.0000
  H   H201      1.0  0.05113  0.46144  0.38468  1.0000
  C   C126      1.0  0.17913  0.15404  0.33940  1.0000
  H   H202      1.0  0.31835  0.12143  0.33167  1.0000
  C   C127      1.0  0.17489  0.18118  0.33286  1.0000
  C   C128      1.0  0.01553  0.34439  0.41994  1.0000
  H   H203      1.0  0.17071  0.14221  0.33354  1.0000
  H   H204      1.0  0.16762  0.42210  0.44682  1.0000
  C   C129      1.0  0.19803  0.44176  0.44557  1.0000
  H   H205      1.0  0.30430  0.15148  0.31368  1.0000
  H   H206      1.0  0.16928  0.41395  0.23733  1.0000
  H   H207      1.0  0.20479  0.42470  0.25564  1.0000
  C   C130      1.0  0.16728  0.35082  0.22196  1.0000
  N   N10       1.0  0.08338  0.31155  0.23270  1.0000
  H   H208      1.0  0.00716  0.29972  0.31649  1.0000
  C   C131      1.0  0.11411  0.27155  0.23054  1.0000
  H   H209      1.0  0.11258  0.33192  0.23487  1.0000
  H   H210      1.0  0.04612  0.39332  0.35314  1.0000
  C   C132      1.0  0.09803  0.32256  0.24175  1.0000
  H   H211      1.0  0.21600  0.45161  0.24679  1.0000
  H   H212      1.0  0.18465  0.41619  0.42311  1.0000
  H   H213      1.0  0.13178  0.23153  0.35942  1.0000
  C   C133      1.0  0.16991  0.44169  0.44650  1.0000
  H   H214      1.0  0.06916  0.30117  0.46898  1.0000
  H   H215      1.0  0.18869  0.19019  0.33686  1.0000
  C   C134      1.0  0.13192  0.18158  0.32987  1.0000
  S   S38       1.0  0.32645  0.06295  0.28976  1.0000
  H   H216      1.0  0.19244  0.43128  0.40542  1.0000
  H   H217      1.0  0.29391  0.02885  0.27399  1.0000
  C   C135      1.0  0.13323  0.44693  0.43393  1.0000
  H   H218      1.0  0.13296  0.16219  0.33482  1.0000
  H   H219      1.0  0.10913  0.22361  0.34956  1.0000
  H   H220      1.0  0.18117  0.49117  0.44717  1.0000
  H   H221      1.0  0.10114  0.25855  0.23534  1.0000
  H   H222      1.0  0.27581  0.22045  0.22855  1.0000
  H   H223      1.0  0.13680  0.17751  0.35696  1.0000
  H   H224      1.0  0.11273  0.20938  0.36724  1.0000
  H   H225      1.0  0.15279  0.21914  0.31593  1.0000
  H   H226      1.0  0.16249  0.25504  0.32743  1.0000
  C   C136      1.0  0.28872  0.03890  0.26364  1.0000
  H   H227      1.0  0.20829  0.42496  0.44128  1.0000
  H   H228      1.0  0.16832  0.23431  0.34314  1.0000
  H   H229      1.0  0.10804  0.30807  0.24891  1.0000
  H   H230      1.0  0.16160  0.42547  0.41091  1.0000
  H   H231      1.0  0.29792  0.02196  0.22911  1.0000
  H   H232      1.0  0.01548  0.43558  0.44786  1.0000
  H   H233      1.0  0.29583  0.05674  0.26271  1.0000
  H   H234      1.0  0.28806  0.17716  0.32172  1.0000
  H   H235      1.0  0.27743  0.14857  0.35179  1.0000
  H   H236      1.0  0.31901  0.00653  0.29448  1.0000
  H   H237      1.0  0.18930  0.46339  0.41945  1.0000
  H   H238      1.0  0.32832  0.04952  0.24543  1.0000
  C   C137      1.0  0.31252  0.13611  0.33884  1.0000
  C   C138      1.0  0.11860  0.47721  0.39598  1.0000
  C   C139      1.0  0.22137  0.42114  0.23366  1.0000
  H   H239      1.0  0.20506  0.45807  0.43938  1.0000
  H   H240      1.0  0.06163  0.49392  0.42345  1.0000
  H   H241      1.0  0.06198  0.26981  0.22806  1.0000
  H   H242      1.0  0.28373  0.18809  0.24942  1.0000
  C   C140      1.0  0.30360  0.18943  0.24618  1.0000
  Fe  Fe20      1.0  0.31153  0.09608  0.27529  1.0000
  H   H243      1.0  0.07550  0.28368  0.25051  1.0000
  S   S39       1.0  0.31786  0.10019  0.25084  1.0000
  H   H244      1.0  0.10457  0.46746  0.44802  1.0000
  C   C141      1.0  0.17164  0.45621  0.42003  1.0000
  H   H245      1.0  0.27376  0.14176  0.33408  1.0000
  H   H246      1.0  0.29409  0.18276  0.34461  1.0000
  H   H247      1.0  0.14720  0.40180  0.46815  1.0000
  H   H248      1.0  0.00128  0.42092  0.46434  1.0000
  H   H249      1.0  0.13854  0.48443  0.44825  1.0000
  H   H250      1.0  0.06982  0.33242  0.25979  1.0000
  C   C142      1.0  0.28224  0.99807  0.30105  1.0000
  H   H251      1.0  0.09996  0.30667  0.46324  1.0000
  H   H252      1.0  0.31448  0.17727  0.25409  1.0000
  H   H253      1.0  0.30526  0.19068  0.29811  1.0000
  H   H254      1.0  0.00226  0.36730  0.44403  1.0000
  H   H255      1.0  0.33114  0.17154  0.23091  1.0000
  H   H256      1.0  0.32124  0.12962  0.34881  1.0000
  C   C143      1.0  0.14972  0.48328  0.43760  1.0000
  C   C144      1.0  0.07748  0.48922  0.41576  1.0000
  H   H257      1.0  0.32377  0.20113  0.30932  1.0000
  C   C145      1.0  0.04466  0.48133  0.38233  1.0000
  H   H258      1.0  0.00680  0.38297  0.35000  1.0000
  H   H259      1.0  0.19073  0.46157  0.22134  1.0000
  H   H260      1.0  0.02872  0.48638  0.40388  1.0000
  H   H261      1.0  0.23669  0.46621  0.22329  1.0000
  N   N11       1.0  0.32073  0.15987  0.33151  1.0000
  H   H262      1.0  0.30965  0.21633  0.33125  1.0000
  H   H263      1.0  0.32079  0.17106  0.35262  1.0000
  H   H264      1.0  0.25303  0.38531  0.22145  1.0000
  H   H265      1.0  0.32592  0.21174  0.34686  1.0000
  Fe  Fe21      1.0  0.10275  0.39663  0.54743  1.0000
  S   S40       1.0  0.11409  0.35618  0.54795  1.0000
  S   S41       1.0  0.06368  0.41247  0.55409  1.0000
  Fe  Fe22      1.0  0.15339  0.40851  0.53641  1.0000
  S   S42       1.0  0.16972  0.36890  0.53589  1.0000
  S   S43       1.0  0.17151  0.44119  0.52616  1.0000
  Fe  Fe23      1.0  0.13574  0.36497  0.52650  1.0000
  S   S44       1.0  0.13499  0.33957  0.50990  1.0000
  Fe  Fe24      1.0  0.14701  0.36260  0.55744  1.0000
  S   S45       1.0  0.16040  0.33151  0.57391  1.0000
  S   S46       1.0  0.12132  0.40490  0.52518  1.0000
  S   S47       1.0  0.13374  0.40272  0.55881  1.0000
  Fe  Fe25      1.0  0.29829  0.10733  0.67484  1.0000
  H   H266      1.0  0.08216  0.36082  0.59346  1.0000
  S   S48       1.0  0.25822  0.12375  0.68054  1.0000
  H   H267      1.0  0.05536  0.36461  0.60635  1.0000
  H   H268      1.0  0.22242  0.23574  0.67264  1.0000
  C   C146      1.0  0.01524  0.40691  0.51995  1.0000
  C   C147      1.0  0.03129  0.24367  0.65270  1.0000
  H   H269      1.0  0.31010  0.01369  0.63542  1.0000
  N   N12       1.0  0.23617  0.21566  0.70065  1.0000
  S   S49       1.0  0.31458  0.08498  0.69401  1.0000
  S   S50       1.0  0.31208  0.07816  0.65997  1.0000
  Fe  Fe26      1.0  0.11303  0.26764  0.67357  1.0000
  S   S51       1.0  0.12613  0.30204  0.67786  1.0000
  S   S52       1.0  0.07096  0.27088  0.67874  1.0000
  Fe  Fe27      1.0  0.16568  0.24560  0.66231  1.0000
  S   S53       1.0  0.18125  0.27916  0.66521  1.0000
  S   S54       1.0  0.19448  0.21837  0.65101  1.0000
  Fe  Fe28      1.0  0.15827  0.27767  0.68673  1.0000
  S   S55       1.0  0.18052  0.27861  0.70522  1.0000
  Fe  Fe29      1.0  0.14798  0.30042  0.65612  1.0000
  S   S56       1.0  0.14757  0.33601  0.64124  1.0000
  S   S57       1.0  0.14385  0.24289  0.68430  1.0000
  S   S58       1.0  0.13380  0.26730  0.65141  1.0000
  H   H270      1.0  0.26519  0.26422  0.70691  1.0000
  H   H271      1.0  0.06734  0.40690  0.48121  1.0000
  C   C148      1.0  0.24910  0.21234  0.68581  1.0000
  H   H272      1.0  0.24499  0.19537  0.68230  1.0000
  C   C149      1.0  0.11554  0.47417  0.56181  1.0000
  C   C150      1.0  0.30443  0.99830  0.67197  1.0000
  H   H273      1.0  0.26751  0.19563  0.71060  1.0000
  H   H274      1.0  0.02698  0.22811  0.60565  1.0000
  H   H275      1.0  0.01479  0.40034  0.55625  1.0000
  H   H276      1.0  0.04470  0.47078  0.55159  1.0000
  H   H277      1.0  0.01492  0.32365  0.64510  1.0000
  C   C151      1.0  0.24092  0.14994  0.67194  1.0000
  C   C152      1.0  0.21684  0.15772  0.67815  1.0000
  C   C153      1.0  0.20254  0.17879  0.67196  1.0000
  C   C154      1.0  0.21210  0.19219  0.65940  1.0000
  C   C155      1.0  0.23604  0.18421  0.65305  1.0000
  C   C156      1.0  0.25052  0.16335  0.65937  1.0000
  H   H278      1.0  0.20916  0.14731  0.68778  1.0000
  H   H279      1.0  0.18395  0.18440  0.67677  1.0000
  H   H280      1.0  0.24347  0.19428  0.64321  1.0000
  H   H281      1.0  0.26897  0.15751  0.65444  1.0000
  C   C157      1.0  0.17441  0.46427  0.53650  1.0000
  C   C158      1.0  0.17792  0.45891  0.55101  1.0000
  H   H282      1.0  0.00583  0.36136  0.49249  1.0000
  H   H283      1.0  0.08425  0.37357  0.60934  1.0000
  H   H284      1.0  0.25535  0.16372  0.69892  1.0000
  H   H285      1.0  0.17374  0.21459  0.71393  1.0000
  H   H286      1.0  0.17884  0.44019  0.55613  1.0000
  C   C159      1.0  0.05227  0.37280  0.48202  1.0000
  H   H287      1.0  0.06477  0.48616  0.52477  1.0000
  C   C160      1.0  0.19340  0.21352  0.71554  1.0000
  C   C161      1.0  0.13941  0.35038  0.49141  1.0000
  C   C162      1.0  0.14188  0.37490  0.48658  1.0000
  H   H288      1.0  0.13827  0.31497  0.48500  1.0000
  H   H289      1.0  0.14164  0.38764  0.49425  1.0000
  C   C163      1.0  0.15579  0.33327  0.59259  1.0000
  C   C164      1.0  0.14831  0.35559  0.59821  1.0000
  C   C165      1.0  0.14597  0.35626  0.61315  1.0000
  C   C166      1.0  0.15069  0.33461  0.62255  1.0000
  C   C167      1.0  0.15761  0.31227  0.61694  1.0000
  C   C168      1.0  0.16032  0.31165  0.60201  1.0000
  H   H290      1.0  0.14487  0.37236  0.59103  1.0000
  H   H291      1.0  0.14058  0.37362  0.61742  1.0000
  H   H292      1.0  0.16139  0.29549  0.62406  1.0000
  H   H293      1.0  0.16618  0.29433  0.59775  1.0000
  H   H294      1.0  0.20618  0.19890  0.69559  1.0000
  C   C169      1.0  0.04684  0.26358  0.67019  1.0000
  C   C170      1.0  0.05125  0.24953  0.65871  1.0000
  H   H295      1.0  0.15465  0.37469  0.69129  1.0000
  H   H296      1.0  0.06999  0.24265  0.65473  1.0000
  C   C171      1.0  0.03874  0.41355  0.51586  1.0000
  C   C172      1.0  0.05377  0.41501  0.52632  1.0000
  C   C173      1.0  0.04514  0.41039  0.54091  1.0000
  H   H297      1.0  0.07912  0.32090  0.60539  1.0000
  C   C174      1.0  0.14000  0.33401  0.48134  1.0000
  H   H298      1.0  0.04537  0.41753  0.50463  1.0000
  H   H299      1.0  0.07183  0.42013  0.52307  1.0000
  C   C175      1.0  0.24231  0.23317  0.67383  1.0000
  N   N13       1.0  0.07348  0.32751  0.62780  1.0000
  C   C176      1.0  0.08396  0.33357  0.61230  1.0000
  H   H300      1.0  0.22249  0.36001  0.70063  1.0000
  C   C177      1.0  0.01244  0.34145  0.49421  1.0000
  H   H301      1.0  0.04306  0.30951  0.65138  1.0000
  C   C178      1.0  0.00672  0.25187  0.65801  1.0000
  H   H302      1.0  0.20040  0.23116  0.69408  1.0000
  H   H303      1.0  0.10328  0.48456  0.50830  1.0000
  H   H304      1.0  0.06851  0.36508  0.63267  1.0000
  H   H305      1.0  0.08264  0.32546  0.65755  1.0000
  H   H306      1.0  0.14719  0.32354  0.71147  1.0000
  C   C179      1.0  0.08699  0.30291  0.63314  1.0000
  H   H307      1.0  0.09062  0.30013  0.48205  1.0000
  H   H308      1.0  0.09872  0.34912  0.63376  1.0000
  H   H309      1.0  0.00311  0.26187  0.71928  1.0000
  C   C180      1.0  0.20907  0.21478  0.70070  1.0000
  H   H310      1.0  0.08093  0.29690  0.64455  1.0000
  H   H311      1.0  0.03030  0.33721  0.47288  1.0000
  C   C181      1.0  0.03564  0.33365  0.48398  1.0000
  H   H312      1.0  0.01513  0.33538  0.50560  1.0000
  H   H313      1.0  0.26948  0.20950  0.68568  1.0000
  C   C182      1.0  0.08113  0.47445  0.52890  1.0000
  H   H314      1.0  0.10694  0.30420  0.63280  1.0000
  C   C183      1.0  0.18105  0.47775  0.55878  1.0000
  H   H315      1.0  0.06222  0.46874  0.56649  1.0000
  H   H316      1.0  0.21660  0.37518  0.64174  1.0000
  H   H317      1.0  0.09433  0.34491  0.47234  1.0000
  C   C184      1.0  0.17355  0.48852  0.52991  1.0000
  C   C185      1.0  0.01508  0.24608  0.60635  1.0000
  N   N14       1.0  0.19015  0.28605  0.54072  1.0000
  C   C186      1.0  0.20690  0.30504  0.53493  1.0000
  C   C187      1.0  0.19511  0.27712  0.55598  1.0000
  C   C188      1.0  0.16385  0.29855  0.54038  1.0000
  C   C189      1.0  0.19575  0.26589  0.53116  1.0000
  C   C190      1.0  0.20405  0.31771  0.51953  1.0000
  C   C191      1.0  0.22098  0.26292  0.55787  1.0000
  C   C192      1.0  0.14359  0.28690  0.55070  1.0000
  C   C193      1.0  0.18310  0.24285  0.53606  1.0000
  H   H318      1.0  0.20418  0.31978  0.54210  1.0000
  H   H319      1.0  0.22660  0.29692  0.53468  1.0000
  H   H320      1.0  0.18187  0.26501  0.56166  1.0000
  H   H321      1.0  0.19237  0.29288  0.56237  1.0000
  H   H322      1.0  0.16199  0.31767  0.54303  1.0000
  H   H323      1.0  0.15836  0.30022  0.52939  1.0000
  H   H324      1.0  0.19025  0.27288  0.52030  1.0000
  H   H325      1.0  0.21596  0.25994  0.52893  1.0000
  H   H326      1.0  0.21028  0.30485  0.51138  1.0000
  H   H327      1.0  0.18499  0.32659  0.51828  1.0000
  H   H328      1.0  0.21589  0.33249  0.51701  1.0000
  H   H329      1.0  0.22166  0.25614  0.56944  1.0000
  H   H330      1.0  0.22521  0.24662  0.55198  1.0000
  H   H331      1.0  0.23561  0.27479  0.55477  1.0000
  H   H332      1.0  0.14461  0.28956  0.56199  1.0000
  H   H333      1.0  0.14397  0.26727  0.54987  1.0000
  H   H334      1.0  0.12531  0.29651  0.54803  1.0000
  H   H335      1.0  0.16499  0.24504  0.53190  1.0000
  H   H336      1.0  0.18063  0.23782  0.54782  1.0000
  H   H337      1.0  0.19497  0.22678  0.53180  1.0000
  C   C194      1.0  0.02229  0.27217  0.67528  1.0000
  C   C195      1.0  0.02150  0.40411  0.54499  1.0000
  C   C196      1.0  0.24453  0.16917  0.70902  1.0000
  H   H338      1.0  0.02918  0.29552  0.63913  1.0000
  H   H339      1.0  0.03491  0.23234  0.64404  1.0000
  Fe  Fe30      1.0  0.33057  0.05751  0.67861  1.0000
  H   H340      1.0  0.21748  0.39544  0.65510  1.0000
  H   H341      1.0  0.01876  0.28330  0.68401  1.0000
  C   C197      1.0  0.04606  0.32760  0.62844  1.0000
  H   H342      1.0  0.04202  0.31966  0.61902  1.0000
  C   C198      1.0  0.03318  0.31317  0.64181  1.0000
  H   H343      1.0  0.23608  0.30279  0.66877  1.0000
  C   C199      1.0  0.06908  0.33635  0.49851  1.0000
  C   C200      1.0  0.00695  0.47336  0.49918  1.0000
  C   C201      1.0  0.16213  0.32109  0.71797  1.0000
  H   H344      1.0  0.03954  0.31335  0.48638  1.0000
  C   C202      1.0  0.05800  0.34980  0.51169  1.0000
  H   H345      1.0  0.04377  0.37833  0.47187  1.0000
  H   H346      1.0  0.01403  0.45446  0.49663  1.0000
  H   H347      1.0  0.23560  0.32280  0.68192  1.0000
  C   C203      1.0  0.07568  0.35972  0.60516  1.0000
  H   H348      1.0  0.03827  0.38020  0.49041  1.0000
  H   H349      1.0  0.20987  0.30619  0.68182  1.0000
  H   H350      1.0  0.06805  0.31646  0.50164  1.0000
  H   H351      1.0  0.08909  0.33795  0.49698  1.0000
  H   H352      1.0  0.27611  0.24459  0.69334  1.0000
  H   H353      1.0  0.09193  0.45592  0.50968  1.0000
  H   H354      1.0  0.30635  0.04581  0.63631  1.0000
  C   C204      1.0  0.07295  0.34289  0.65257  1.0000
  H   H355      1.0  0.09641  0.28297  0.61415  1.0000
  H   H356      1.0  0.25231  0.22811  0.66341  1.0000
  C   C205      1.0  0.07889  0.34687  0.63611  1.0000
  H   H357      1.0  0.29561  0.01708  0.67015  1.0000
  H   H358      1.0  0.05734  0.33621  0.52147  1.0000
  H   H359      1.0  0.03913  0.35965  0.51133  1.0000
  H   H360      1.0  0.07032  0.36264  0.51360  1.0000
  H   H361      1.0  0.06579  0.28024  0.62350  1.0000
  C   C206      1.0  0.09967  0.46793  0.51577  1.0000
  H   H362      1.0  0.20458  0.33740  0.69848  1.0000
  N   N15       1.0  0.19361  0.35677  0.67109  1.0000
  C   C207      1.0  0.18516  0.37536  0.65888  1.0000
  C   C208      1.0  0.17146  0.34504  0.67811  1.0000
  C   C209      1.0  0.21266  0.33752  0.66463  1.0000
  C   C210      1.0  0.20433  0.36977  0.68118  1.0000
  C   C211      1.0  0.20540  0.38785  0.64900  1.0000
  C   C212      1.0  0.14931  0.36269  0.68422  1.0000
  C   C213      1.0  0.22386  0.31631  0.67510  1.0000
  C   C214      1.0  0.20514  0.35732  0.69683  1.0000
  H   H363      1.0  0.17529  0.36687  0.65184  1.0000
  H   H364      1.0  0.17165  0.39056  0.66301  1.0000
  H   H365      1.0  0.17595  0.33051  0.68695  1.0000
  H   H366      1.0  0.16467  0.33535  0.67027  1.0000
  H   H367      1.0  0.20479  0.32925  0.65653  1.0000
  H   H368      1.0  0.22876  0.34576  0.65874  1.0000
  H   H369      1.0  0.22343  0.37297  0.67677  1.0000
  H   H370      1.0  0.19354  0.38832  0.68205  1.0000
  H   H371      1.0  0.31527  0.02954  0.72008  1.0000
  N   N16       1.0  0.09101  0.48619  0.53989  1.0000
  H   H372      1.0  0.27600  0.23278  0.71220  1.0000
  C   C215      1.0  0.07432  0.38709  0.48103  1.0000
  H   H373      1.0  0.11746  0.45803  0.51892  1.0000
  C   C216      1.0  0.18021  0.30053  0.71722  1.0000
  H   H374      1.0  0.25205  0.15615  0.71788  1.0000
  H   H375      1.0  0.13563  0.35179  0.69075  1.0000
  H   H376      1.0  0.03627  0.34676  0.62753  1.0000
  H   H377      1.0  0.07953  0.35769  0.65710  1.0000
  H   H378      1.0  0.18424  0.47352  0.56991  1.0000
  H   H379      1.0  0.07415  0.45717  0.53390  1.0000
  H   H380      1.0  0.09622  0.45061  0.55274  1.0000
  H   H381      1.0  0.19647  0.40342  0.64194  1.0000
  H   H382      1.0  0.01425  0.47202  0.52073  1.0000
  H   H383      1.0  0.09262  0.26401  0.63086  1.0000
  H   H384      1.0  0.19015  0.36647  0.70417  1.0000
  H   H385      1.0  0.22511  0.16647  0.70916  1.0000
  N   N17       1.0  0.05826  0.34524  0.48461  1.0000
  C   C217      1.0  0.31965  0.03011  0.63265  1.0000
  C   C218      1.0  0.05264  0.48152  0.55831  1.0000
  H   H386      1.0  0.05284  0.34452  0.65595  1.0000
  C   C219      1.0  0.08509  0.28154  0.62479  1.0000
  H   H387      1.0  0.13964  0.37398  0.67552  1.0000
  H   H388      1.0  0.10449  0.33093  0.61117  1.0000
  H   H389      1.0  0.22907  0.25540  0.69814  1.0000
  C   C220      1.0  0.00676  0.40191  0.53452  1.0000
  H   H390      1.0  0.00356  0.46905  0.54465  1.0000
  H   H391      1.0  0.32364  0.03416  0.62084  1.0000
  H   H392      1.0  0.24776  0.25078  0.67546  1.0000
  C   C221      1.0  0.24733  0.19552  0.71119  1.0000
  H   H393      1.0  0.02566  0.26022  0.60017  1.0000
  H   H394      1.0  0.08532  0.38112  0.49013  1.0000
  H   H395      1.0  0.00391  0.27050  0.57283  1.0000
  C   C222      1.0  0.23907  0.24007  0.70487  1.0000
  C   C223      1.0  0.26576  0.24532  0.70420  1.0000
  C   C224      1.0  0.10639  0.46640  0.54870  1.0000
  S   S59       1.0  0.33063  0.12816  0.66813  1.0000
  H   H396      1.0  0.23044  0.24193  0.71605  1.0000
  C   C225      1.0  0.00235  0.26641  0.66924  1.0000
  H   H397      1.0  0.12301  0.45856  0.54193  1.0000
  H   H398      1.0  0.10023  0.48056  0.56987  1.0000
  H   H399      1.0  0.12658  0.45799  0.56727  1.0000
  H   H400      1.0  0.01167  0.24863  0.61789  1.0000
  H   H401      1.0  0.12786  0.48836  0.55873  1.0000
  C   C226      1.0  0.07698  0.33751  0.47229  1.0000
  C   C227      1.0  0.14495  0.38293  0.47176  1.0000
  H   H402      1.0  0.02203  0.48478  0.49624  1.0000
  H   H403      1.0  0.03708  0.49275  0.56418  1.0000
  C   C228      1.0  0.08433  0.30967  0.47185  1.0000
  H   H404      1.0  0.17121  0.49273  0.51863  1.0000
  H   H405      1.0  0.08656  0.38554  0.47076  1.0000
  Fe  Fe31      1.0  0.20704  0.35599  0.76545  1.0000
  S   S60       1.0  0.24192  0.37321  0.76281  1.0000
  S   S61       1.0  0.18351  0.35835  0.74710  1.0000
  Fe  Fe32      1.0  0.20892  0.34185  0.79779  1.0000
  S   S62       1.0  0.24430  0.35678  0.79729  1.0000
  S   S63       1.0  0.19025  0.32506  0.81896  1.0000
  Fe  Fe33      1.0  0.22704  0.38940  0.78333  1.0000
  S   S64       1.0  0.22724  0.42619  0.79148  1.0000
  Fe  Fe34      1.0  0.25646  0.33934  0.77700  1.0000
  S   S65       1.0  0.29526  0.32116  0.76959  1.0000
  S   S66       1.0  0.19089  0.37504  0.78492  1.0000
  S   S67       1.0  0.22237  0.32137  0.77851  1.0000
  C   C229      1.0  0.19662  0.43294  0.88367  1.0000
  Fe  Fe35      1.0  0.09014  0.36664  0.90762  1.0000
  S   S68       1.0  0.13064  0.35128  0.90576  1.0000
  S   S69       1.0  0.05953  0.34397  0.90873  1.0000
  Fe  Fe36      1.0  0.09911  0.41787  0.90971  1.0000
  S   S70       1.0  0.13990  0.40697  0.90742  1.0000
  S   S71       1.0  0.08147  0.45625  0.91283  1.0000
  Fe  Fe37      1.0  0.13485  0.38532  0.89012  1.0000
  S   S72       1.0  0.15780  0.39380  0.86867  1.0000
  Fe  Fe38      1.0  0.13176  0.37459  0.92333  1.0000
  S   S73       1.0  0.15404  0.36933  0.94215  1.0000
  S   S74       1.0  0.09439  0.39921  0.89112  1.0000
  S   S75       1.0  0.09109  0.38675  0.92638  1.0000
  C   C230      1.0  0.10179  0.47031  0.92042  1.0000
  H   H406      1.0  0.15534  0.45612  0.93546  1.0000
  H   H407      1.0  0.15113  0.49062  0.84987  1.0000
  H   H408      1.0  0.14871  0.45338  0.86372  1.0000
  C   C231      1.0  0.01284  0.38796  0.88354  1.0000
  C   C232      1.0  0.12166  0.45608  0.92658  1.0000
  C   C233      1.0  0.28753  0.42286  0.80732  1.0000
  C   C234      1.0  0.30579  0.28952  0.79411  1.0000
  H   H409      1.0  0.00720  0.45352  0.93668  1.0000
  H   H410      1.0  0.12316  0.43638  0.92801  1.0000
  C   C235      1.0  0.23570  0.45540  0.78439  1.0000
  C   C236      1.0  0.24680  0.46048  0.77030  1.0000
  C   C237      1.0  0.30324  0.20434  0.75677  1.0000
  H   H411      1.0  0.30392  0.43155  0.80803  1.0000
  C   C238      1.0  0.14503  0.45874  0.87479  1.0000
  H   H412      1.0  0.29637  0.35700  0.78930  1.0000
  H   H413      1.0  0.24960  0.44658  0.76309  1.0000
  H   H414      1.0  0.33025  0.21043  0.79000  1.0000
  C   C239      1.0  0.33185  0.40319  0.78645  1.0000
  H   H415      1.0  0.01394  0.40252  0.87471  1.0000
  C   C240      1.0  0.18196  0.34403  0.83288  1.0000
  C   C241      1.0  0.18405  0.36902  0.83038  1.0000
  C   C242      1.0  0.17678  0.38388  0.84151  1.0000
  C   C243      1.0  0.16723  0.37398  0.85523  1.0000
  C   C244      1.0  0.16532  0.34892  0.85782  1.0000
  C   C245      1.0  0.17271  0.33401  0.84667  1.0000
  H   H416      1.0  0.19119  0.37695  0.81982  1.0000
  H   H417      1.0  0.17842  0.40320  0.83940  1.0000
  H   H418      1.0  0.15839  0.34101  0.86841  1.0000
  H   H419      1.0  0.17136  0.31463  0.84872  1.0000
  C   C246      1.0  0.10707  0.48836  0.96991  1.0000
  H   H420      1.0  0.07463  0.42496  0.94619  1.0000
  H   H421      1.0  0.12225  0.37599  0.84031  1.0000
  H   H422      1.0  0.28217  0.23347  0.77848  1.0000
  C   C247      1.0  0.31368  0.29820  0.77989  1.0000
  H   H423      1.0  0.28825  0.21043  0.86578  1.0000
  C   C248      1.0  0.00134  0.42793  0.91479  1.0000
  H   H424      1.0  0.28802  0.29714  0.79919  1.0000
  C   C249      1.0  0.32091  0.27078  0.80175  1.0000
  N   N18       1.0  0.31204  0.22612  0.76127  1.0000
  H   H425      1.0  0.14445  0.44110  0.88185  1.0000
  H   H426      1.0  0.32391  0.36123  0.77784  1.0000
  C   C250      1.0  0.18228  0.33530  0.73610  1.0000
  H   H427      1.0  0.31309  0.22795  0.86264  1.0000
  H   H428      1.0  0.19830  0.19598  0.72233  1.0000
  H   H429      1.0  0.21483  0.31186  0.74224  1.0000
  H   H430      1.0  0.32153  0.05779  0.72458  1.0000
  H   H431      1.0  0.31919  0.40295  0.75928  1.0000
  C   C251      1.0  0.03397  0.37763  0.89001  1.0000
  C   C252      1.0  0.03283  0.35837  0.90118  1.0000
  H   H432      1.0  0.06386  0.33887  0.87632  1.0000
  C   C253      1.0  0.33036  0.43090  0.78088  1.0000
  H   H433      1.0  0.03266  0.40033  0.91933  1.0000
  H   H434      1.0  0.05120  0.38418  0.88611  1.0000
  H   H435      1.0  0.26863  0.26327  0.76261  1.0000
  C   C254      1.0  0.31109  0.20953  0.78818  1.0000
  C   C255      1.0  0.16173  0.47414  0.89384  1.0000
  C   C256      1.0  0.16328  0.33844  0.72729  1.0000
  C   C257      1.0  0.25464  0.48353  0.76561  1.0000
  H   H436      1.0  0.06678  0.45357  0.96391  1.0000
  C   C258      1.0  0.20013  0.31450  0.73552  1.0000
  C   C259      1.0  0.13953  0.46728  0.93119  1.0000
  H   H437      1.0  0.30810  0.24735  0.77905  1.0000
  C   C260      1.0  0.30252  0.23025  0.77658  1.0000
  H   H438      1.0  0.03954  0.42139  0.90389  1.0000
  C   C261      1.0  0.27747  0.25928  0.75178  1.0000
  C   C262      1.0  0.00499  0.47211  0.91455  1.0000
  C   C263      1.0  0.10592  0.38417  0.84713  1.0000
  H   H439      1.0  0.28799  0.41031  0.75527  1.0000
  H   H440      1.0  0.31139  0.20607  0.84160  1.0000
  N   N19       1.0  0.16524  0.47165  0.87802  1.0000
  H   H441      1.0  0.32811  0.99972  0.89323  1.0000
  H   H442      1.0  0.10562  0.46089  0.87445  1.0000
  C   C264      1.0  0.10575  0.32843  0.84668  1.0000
  H   H443      1.0  0.12961  0.33478  0.82654  1.0000
  C   C265      1.0  0.13721  0.49280  0.93003  1.0000
  C   C266      1.0  0.29064  0.40296  0.77820  1.0000
  C   C267      1.0  0.32920  0.35001  0.79978  1.0000
  C   C268      1.0  0.09735  0.36542  0.85963  1.0000
  H   H444      1.0  0.27628  0.42281  0.81800  1.0000
  H   H445      1.0  0.31812  0.34761  0.81046  1.0000
  H   H446      1.0  0.31429  0.26441  0.75388  1.0000
  H   H447      1.0  0.29967  0.37924  0.76090  1.0000
  C   C269      1.0  0.02934  0.41995  0.91482  1.0000
  H   H448      1.0  0.03971  0.32490  0.85522  1.0000
  C   C270      1.0  0.01027  0.34981  0.90602  1.0000
  C   C271      1.0  0.04956  0.33395  0.84538  1.0000
  H   H449      1.0  0.19002  0.45088  0.86278  1.0000
  H   H450      1.0  0.18207  0.42096  0.88548  1.0000
  H   H451      1.0  0.31250  0.44226  0.78363  1.0000
  C   C272      1.0  0.10951  0.33696  0.83034  1.0000
  H   H452      1.0  0.26902  0.19171  0.75432  1.0000
  H   H453      1.0  0.21353  0.42229  0.87862  1.0000
  H   H454      1.0  0.27778  0.38742  0.80601  1.0000
  H   H455      1.0  0.20075  0.43693  0.89415  1.0000
  C   C273      1.0  0.13970  0.36489  0.96004  1.0000
  H   H456      1.0  0.07739  0.40697  0.96317  1.0000
  C   C274      1.0  0.09968  0.31900  0.87954  1.0000
  H   H457      1.0  0.09108  0.39282  0.84059  1.0000
  H   H458      1.0  0.06177  0.31995  0.83946  1.0000
  H   H459      1.0  0.10705  0.35362  0.95469  1.0000
  H   H460      1.0  0.03522  0.34288  0.83846  1.0000
  H   H461      1.0  0.28504  0.42293  0.77815  1.0000
  C   C275      1.0  0.06362  0.35368  0.84897  1.0000
  C   C276      1.0  0.07931  0.32861  0.86974  1.0000
  H   H462      1.0  0.09265  0.30553  0.88835  1.0000
  H   H463      1.0  0.26743  0.24704  0.74726  1.0000
  C   C277      1.0  0.11658  0.35701  0.96326  1.0000
  H   H464      1.0  0.32851  0.15176  0.86799  1.0000
  H   H465      1.0  0.12401  0.32631  0.85065  1.0000
  H   H466      1.0  0.26351  0.48722  0.75477  1.0000
  H   H467      1.0  0.10427  0.33392  0.88484  1.0000
  H   H468      1.0  0.13016  0.41670  0.96599  1.0000
  C   C278      1.0  0.00150  0.45593  0.89240  1.0000
  H   H469      1.0  0.05045  0.36535  0.85612  1.0000
  C   C279      1.0  0.31888  0.19508  0.85122  1.0000
  H   H470      1.0  0.11204  0.39923  0.85166  1.0000
  H   H471      1.0  0.09409  0.45745  0.95246  1.0000
  H   H472      1.0  0.26347  0.21648  0.76484  1.0000
  C   C280      1.0  0.30027  0.39849  0.76257  1.0000
  H   H473      1.0  0.12749  0.48498  0.96841  1.0000
  H   H474      1.0  0.30533  0.20535  0.74485  1.0000
  H   H475      1.0  0.07219  0.31202  0.86763  1.0000
  H   H476      1.0  0.31519  0.19903  0.87436  1.0000
  C   C281      1.0  0.30509  0.24928  0.75145  1.0000
  H   H477      1.0  0.31464  0.26411  0.81272  1.0000
  H   H478      1.0  0.29943  0.21206  0.79855  1.0000
  H   H479      1.0  0.15987  0.45622  0.90049  1.0000
  H   H480      1.0  0.27588  0.43424  0.79962  1.0000
  H   H481      1.0  0.00857  0.49318  0.88334  1.0000
  C   C282      1.0  0.29489  0.39621  0.80398  1.0000
  N   N20       1.0  0.08681  0.34410  0.85585  1.0000
  H   H482      1.0  0.27300  0.39526  0.78099  1.0000
  H   H483      1.0  0.06708  0.36604  0.83893  1.0000
  H   H484      1.0  0.27547  0.27713  0.74481  1.0000
  C   C283      1.0  0.11865  0.47291  0.87649  1.0000
  H   H485      1.0  0.11657  0.30957  0.87379  1.0000
  H   H486      1.0  0.02530  0.46989  0.91140  1.0000
  H   H487      1.0  0.14929  0.35438  0.72774  1.0000
  H   H488      1.0  0.21310  0.28140  0.72572  1.0000
  H   H489      1.0  0.30648  0.38727  0.81244  1.0000
  H   H490      1.0  0.10225  0.35622  0.82696  1.0000
  C   C284      1.0  0.23207  0.47377  0.79357  1.0000
  H   H491      1.0  0.10166  0.32489  0.82434  1.0000
  C   C285      1.0  0.08621  0.44494  0.96148  1.0000
  H   H492      1.0  0.16995  0.37486  0.96890  1.0000
  H   H493      1.0  0.14393  0.48565  0.89686  1.0000
  H   H494      1.0  0.13385  0.44745  0.96010  1.0000
  C   C286      1.0  0.19910  0.29727  0.72611  1.0000
  H   H495      1.0  0.10104  0.30946  0.84779  1.0000
  H   H496      1.0  0.31004  0.17822  0.85287  1.0000
  C   C287      1.0  0.27652  0.19996  0.76249  1.0000
  H   H497      1.0  0.11380  0.35900  0.86535  1.0000
  C   C288      1.0  0.08587  0.42083  0.95530  1.0000
  H   H498      1.0  0.22352  0.47003  0.80449  1.0000
  H   H499      1.0  0.27637  0.18607  0.77215  1.0000
  H   H500      1.0  0.08366  0.37573  0.86715  1.0000
  H   H501      1.0  0.03735  0.43035  0.92170  1.0000
  H   H502      1.0  0.02193  0.45227  0.89024  1.0000
  H   H503      1.0  0.32815  0.14214  0.74528  1.0000
  C   C289      1.0  0.32863  0.03792  0.72489  1.0000
  H   H504      1.0  0.30988  0.19107  0.78545  1.0000
  H   H505      1.0  0.31513  0.18714  0.76052  1.0000
  H   H506      1.0  0.00928  0.33482  0.91460  1.0000
  H   H507      1.0  0.18548  0.47653  0.91001  1.0000
  H   H508      1.0  0.10455  0.41274  0.95090  1.0000
  C   C290      1.0  0.18966  0.45662  0.87362  1.0000
  H   H509      1.0  0.19941  0.48476  0.89236  1.0000
  H   H510      1.0  0.31167  0.24672  0.74005  1.0000
  H   H511      1.0  0.20512  0.46759  0.87238  1.0000
  H   H512      1.0  0.32859  0.02965  0.73618  1.0000
  H   H513      1.0  0.18432  0.48842  0.84886  1.0000
  C   C291      1.0  0.30868  0.20893  0.86429  1.0000
  H   H514      1.0  0.32012  0.16392  0.83076  1.0000
  H   H515      1.0  0.10027  0.49176  0.95925  1.0000
  C   C292      1.0  0.18155  0.48602  0.89927  1.0000
  H   H516      1.0  0.11645  0.48960  0.86863  1.0000
  H   H517      1.0  0.11275  0.47776  0.88751  1.0000
  C   C293      1.0  0.12709  0.43517  0.96962  1.0000
  H   H518      1.0  0.00977  0.48548  0.93425  1.0000
  C   C294      1.0  0.31366  0.36518  0.78843  1.0000
  N   N21       1.0  0.30797  0.39251  0.78919  1.0000
  H   H519      1.0  0.33130  0.12715  0.72145  1.0000
  H   H520      1.0  0.23976  0.19847  0.72242  1.0000
  H   H521      1.0  0.19450  0.22909  0.72141  1.0000
  Fe  Fe39      1.0  0.24440  0.57441  0.17609  1.0000
  S   S76       1.0  0.20395  0.58831  0.18046  1.0000
  S   S77       1.0  0.25996  0.53361  0.17771  1.0000
  Fe  Fe40      1.0  0.25847  0.62588  0.16502  1.0000
  S   S78       1.0  0.21875  0.64227  0.16808  1.0000
  S   S79       1.0  0.28276  0.65462  0.15409  1.0000
  Fe  Fe41      1.0  0.21614  0.61921  0.18949  1.0000
  S   S80       1.0  0.19506  0.64492  0.20516  1.0000
  Fe  Fe42      1.0  0.21006  0.61038  0.15889  1.0000
  S   S81       1.0  0.18056  0.61522  0.14413  1.0000
  S   S82       1.0  0.25661  0.60386  0.18688  1.0000
  S   S83       1.0  0.24980  0.59534  0.15399  1.0000
  Fe  Fe43      1.0  0.16712  0.53978  0.05612  1.0000
  S   S84       1.0  0.18278  0.57367  0.04615  1.0000
  H   H522      1.0  0.13393  0.65476  0.21897  1.0000
  Fe  Fe44      1.0  0.12413  0.56771  0.07359  1.0000
  S   S85       1.0  0.13624  0.60425  0.06521  1.0000
  S   S86       1.0  0.08915  0.56046  0.08754  1.0000
  Fe  Fe45      1.0  0.14350  0.58979  0.04365  1.0000
  S   S87       1.0  0.12636  0.60779  0.02375  1.0000
  Fe  Fe46      1.0  0.17430  0.58456  0.06859  1.0000
  S   S88       1.0  0.20428  0.59607  0.07901  1.0000
  S   S89       1.0  0.12852  0.55483  0.05210  1.0000
  S   S90       1.0  0.16142  0.54914  0.07863  1.0000
  C   C295      1.0  0.18759  0.60868  0.12626  1.0000
  C   C296      1.0  0.16827  0.60971  0.11799  1.0000
  C   C297      1.0  0.17318  0.60512  0.10359  1.0000
  C   C298      1.0  0.19751  0.59998  0.09730  1.0000
  C   C299      1.0  0.21686  0.59855  0.10563  1.0000
  C   C300      1.0  0.21192  0.60263  0.12013  1.0000
  H   H523      1.0  0.14940  0.61426  0.12270  1.0000
  H   H524      1.0  0.15817  0.60622  0.09724  1.0000
  H   H525      1.0  0.23571  0.59432  0.10081  1.0000
  H   H526      1.0  0.22692  0.60138  0.12647  1.0000
  C   C301      1.0  0.14990  0.50589  0.03349  1.0000
  H   H527      1.0  0.21672  0.50792  0.00077  1.0000
  H   H528      1.0  0.31225  0.68961  0.20770  1.0000
  H   H529      1.0  0.14996  0.52541  0.03234  1.0000
  H   H530      1.0  0.30251  0.69989  0.14516  1.0000
  H   H531      1.0  0.12843  0.60381  0.97221  1.0000
  H   H532      1.0  0.25478  0.71030  0.17464  1.0000
  H   H533      1.0  0.20480  0.69221  0.14127  1.0000
  C   C302      1.0  0.15887  0.53666  0.99477  1.0000
  H   H534      1.0  0.19340  0.68825  0.12485  1.0000
  C   C303      1.0  0.15755  0.55609  0.14941  1.0000
  H   H535      1.0  0.17817  0.60262  0.01213  1.0000
  H   H536      1.0  0.19533  0.65821  0.11044  1.0000
  H   H537      1.0  0.19104  0.66619  0.14017  1.0000
  C   C304      1.0  0.20127  0.54201  0.00856  1.0000
  H   H538      1.0  0.20745  0.52947  0.18283  1.0000
  H   H539      1.0  0.07233  0.50923  0.03005  1.0000
  C   C305      1.0  0.04726  0.59808  0.05774  1.0000
  C   C306      1.0  0.06719  0.58889  0.06552  1.0000
  C   C307      1.0  0.06404  0.57244  0.07800  1.0000
  C   C308      1.0  0.04093  0.56499  0.08260  1.0000
  H   H540      1.0  0.22309  0.50974  0.14939  1.0000
  H   H541      1.0  0.16855  0.54422  0.12186  1.0000
  H   H542      1.0  0.08494  0.59477  0.06187  1.0000
  H   H543      1.0  0.03845  0.55224  0.09224  1.0000
  N   N22       1.0  0.05995  0.50365  0.05287  1.0000
  C   C309      1.0  0.02280  0.56155  0.97661  1.0000
  H   H544      1.0  0.23515  0.55104  0.14216  1.0000
  C   C310      1.0  0.02114  0.57368  0.07458  1.0000
  C   C311      1.0  0.16494  0.60198  0.97801  1.0000
  N   N23       1.0  0.18253  0.51974  0.99130  1.0000
  C   C312      1.0  0.16732  0.60260  0.00350  1.0000
  H   H545      1.0  0.01134  0.53175  0.99232  1.0000
  H   H546      1.0  0.15144  0.56644  0.13935  1.0000
  H   H547      1.0  0.15413  0.56935  0.15746  1.0000
  H   H548      1.0  0.26671  0.66579  0.18444  1.0000
  H   H549      1.0  0.20981  0.55444  0.99977  1.0000
  H   H550      1.0  0.24884  0.63522  0.21025  1.0000
  H   H551      1.0  0.22985  0.71336  0.20684  1.0000
  C   C313      1.0  0.32759  0.70300  0.16012  1.0000
  C   C314      1.0  0.12771  0.60501  0.99499  1.0000
  S   S91       1.0  0.18516  0.50226  0.05141  1.0000
  H   H552      1.0  0.01996  0.50727  0.05786  1.0000
  H   H553      1.0  0.19542  0.55736  0.12007  1.0000
  H   H554      1.0  0.02925  0.57013  0.98506  1.0000
  N   N24       1.0  0.19348  0.52717  0.13726  1.0000
  C   C315      1.0  0.13931  0.60340  0.98088  1.0000
  C   C316      1.0  0.03645  0.51034  0.06248  1.0000
  H   H555      1.0  0.03980  0.51065  0.03426  1.0000
  C   C317      1.0  0.23790  0.53779  0.13416  1.0000
  H   H556      1.0  0.26779  0.72197  0.19537  1.0000
  H   H557      1.0  0.09550  0.51669  0.04814  1.0000
  H   H558      1.0  0.22427  0.70928  0.18458  1.0000
  C   C318      1.0  0.14167  0.60452  0.00635  1.0000
  H   H559      1.0  0.23711  0.66546  0.19397  1.0000
  C   C319      1.0  0.17854  0.50633  0.14203  1.0000
  N   N25       1.0  0.24246  0.67193  0.11523  1.0000
  C   C320      1.0  0.26972  0.66338  0.11562  1.0000
  C   C321      1.0  0.23933  0.69941  0.11140  1.0000
  C   C322      1.0  0.23462  0.66041  0.10344  1.0000
  C   C323      1.0  0.22878  0.66400  0.12966  1.0000
  C   C324      1.0  0.27765  0.63539  0.11829  1.0000
  C   C325      1.0  0.24873  0.71378  0.12182  1.0000
  C   C326      1.0  0.20724  0.66621  0.10113  1.0000
  C   C327      1.0  0.20328  0.67888  0.13387  1.0000
  H   H560      1.0  0.28054  0.67022  0.10542  1.0000
  H   H561      1.0  0.27658  0.67104  0.12427  1.0000
  H   H562      1.0  0.21989  0.70730  0.11048  1.0000
  H   H563      1.0  0.24914  0.70430  0.10051  1.0000
  H   H564      1.0  0.24565  0.66553  0.09297  1.0000
  H   H565      1.0  0.23829  0.64014  0.10547  1.0000
  H   H566      1.0  0.22619  0.64440  0.13051  1.0000
  H   H567      1.0  0.24002  0.66504  0.13835  1.0000
  H   H568      1.0  0.29707  0.63179  0.12069  1.0000
  H   H569      1.0  0.26651  0.62670  0.12767  1.0000
  H   H570      1.0  0.27711  0.62632  0.10866  1.0000
  H   H571      1.0  0.24299  0.70747  0.13325  1.0000
  H   H572      1.0  0.26913  0.71248  0.12005  1.0000
  H   H573      1.0  0.24126  0.73353  0.11977  1.0000
  H   H574      1.0  0.20447  0.65725  0.09181  1.0000
  H   H575      1.0  0.20103  0.68606  0.09855  1.0000
  H   H576      1.0  0.14596  0.54152  0.15351  1.0000
  H   H577      1.0  0.01520  0.49834  0.08254  1.0000
  C   C328      1.0  0.19784  0.51765  0.00356  1.0000
  H   H578      1.0  0.05156  0.55063  0.02417  1.0000
  H   H579      1.0  0.21374  0.53796  0.01707  1.0000
  H   H580      1.0  0.03587  0.55224  0.04178  1.0000
  H   H581      1.0  0.15986  0.51114  0.13846  1.0000
  C   C329      1.0  0.13649  0.53419  0.98735  1.0000
  C   C330      1.0  0.30442  0.66845  0.16134  1.0000
  H   H582      1.0  0.31227  0.91142  0.97155  1.0000
  H   H583      1.0  0.16199  0.55608  0.99240  1.0000
  H   H584      1.0  0.06897  0.55163  0.03845  1.0000
  H   H585      1.0  0.18368  0.55168  0.01348  1.0000
  H   H586      1.0  0.04982  0.61095  0.04815  1.0000
  C   C331      1.0  0.18533  0.54609  0.14758  1.0000
  H   H587      1.0  0.20262  0.53796  0.09994  1.0000
  C   C332      1.0  0.21732  0.51236  0.17956  1.0000
  C   C333      1.0  0.24101  0.69826  0.17970  1.0000
  C   C334      1.0  0.25172  0.67726  0.19056  1.0000
  C   C335      1.0  0.02428  0.59032  0.06217  1.0000
  C   C336      1.0  0.05640  0.51573  0.03785  1.0000
  H   H588      1.0  0.19941  0.54958  0.97863  1.0000
  H   H589      1.0  0.17543  0.50290  0.15399  1.0000
  H   H590      1.0  0.31113  0.63970  0.17863  1.0000
  C   C337      1.0  0.18869  0.53931  0.12245  1.0000
  H   H591      1.0  0.31800  0.87163  0.98530  1.0000
  C   C338      1.0  0.33236  0.66909  0.17893  1.0000
  H   H592      1.0  0.21632  0.51279  0.11081  1.0000
  H   H593      1.0  0.23544  0.69013  0.17082  1.0000
  H   H594      1.0  0.07507  0.53148  0.06147  1.0000
  H   H595      1.0  0.28893  0.69890  0.18746  1.0000
  H   H596      1.0  0.03909  0.54881  0.97257  1.0000
  C   C339      1.0  0.05309  0.54411  0.03568  1.0000
  H   H597      1.0  0.18474  0.51388  0.10747  1.0000
  H   H598      1.0  0.19493  0.56242  0.14425  1.0000
  H   H599      1.0  0.23614  0.54763  0.12326  1.0000
  H   H600      1.0  0.18984  0.50636  0.01319  1.0000
  N   N26       1.0  0.26076  0.68485  0.20337  1.0000
  H   H601      1.0  0.12079  0.50850  0.02023  1.0000
  C   C340      1.0  0.24296  0.50964  0.17638  1.0000
  C   C341      1.0  0.31076  0.69121  0.15463  1.0000
  H   H602      1.0  0.12877  0.51712  0.99188  1.0000
  H   H603      1.0  0.12176  0.54977  0.98949  1.0000
  C   C342      1.0  0.19865  0.52477  0.10965  1.0000
  H   H604      1.0  0.25724  0.52859  0.13419  1.0000
  H   H605      1.0  0.10784  0.60680  0.99712  1.0000
  C   C343      1.0  0.31545  0.65739  0.17349  1.0000
  C   C344      1.0  0.17887  0.60166  0.98934  1.0000
  H   H606      1.0  0.19040  0.53868  0.15846  1.0000
  C   C345      1.0  0.27821  0.70335  0.19783  1.0000
  H   H607      1.0  0.19868  0.60074  0.98715  1.0000
  H   H608      1.0  0.03314  0.53035  0.06313  1.0000
  H   H609      1.0  0.15240  0.53417  0.00644  1.0000
  H   H610      1.0  0.22781  0.50331  0.13159  1.0000
  C   C346      1.0  0.22045  0.51823  0.13827  1.0000
  H   H611      1.0  0.14068  0.53481  0.97558  1.0000
  H   H612      1.0  0.21663  0.52090  0.97667  1.0000
  H   H613      1.0  0.30741  0.72176  0.20256  1.0000
  H   H614      1.0  0.28911  0.65318  0.20359  1.0000
  C   C347      1.0  0.19726  0.53026  0.97787  1.0000
  C   C348      1.0  0.08128  0.51333  0.05748  1.0000
  C   C349      1.0  0.09561  0.49702  0.06899  1.0000
  H   H615      1.0  0.33209  0.72059  0.15492  1.0000
  H   H616      1.0  0.06308  0.59382  0.97297  1.0000
  H   H617      1.0  0.00351  0.56755  0.07805  1.0000
  H   H618      1.0  0.03498  0.61451  0.97641  1.0000
  C   C350      1.0  0.27406  0.66203  0.21109  1.0000
  H   H619      1.0  0.10717  0.63988  0.21857  1.0000
  C   C351      1.0  0.29778  0.70593  0.20739  1.0000
  H   H620      1.0  0.04355  0.50860  0.08486  1.0000
  H   H621      1.0  0.10161  0.50562  0.97490  1.0000
  H   H622      1.0  0.10854  0.50778  0.07244  1.0000
  C   C352      1.0  0.03492  0.49830  0.07818  1.0000
  C   C353      1.0  0.23861  0.69610  0.21261  1.0000
  C   C354      1.0  0.25787  0.64240  0.21815  1.0000
  H   H623      1.0  0.28356  0.66617  0.21980  1.0000
  H   H624      1.0  0.22368  0.68434  0.21460  1.0000
  H   H625      1.0  0.28988  0.70929  0.21842  1.0000
  C   C355      1.0  0.13388  0.49630  0.02633  1.0000
  H   H626      1.0  0.00422  0.65153  0.08905  1.0000
  C   C356      1.0  0.00292  0.54617  0.98441  1.0000
  C   C357      1.0  0.33309  0.87612  0.97676  1.0000
  H   H627      1.0  0.06504  0.67380  0.29368  1.0000
  Fe  Fe47      1.0  0.16354  0.71513  0.29375  1.0000
  S   S92       1.0  0.17228  0.67558  0.30322  1.0000
  S   S93       1.0  0.19799  0.73403  0.29223  1.0000
  Fe  Fe48      1.0  0.11158  0.70671  0.28833  1.0000
  S   S94       1.0  0.11793  0.66721  0.29724  1.0000
  S   S95       1.0  0.07487  0.72244  0.27983  1.0000
  Fe  Fe49      1.0  0.13401  0.68030  0.31473  1.0000
  S   S96       1.0  0.11873  0.66667  0.33734  1.0000
  Fe  Fe50      1.0  0.15550  0.66653  0.28473  1.0000
  S   S97       1.0  0.17164  0.63359  0.27304  1.0000
  S   S98       1.0  0.12581  0.72033  0.30651  1.0000
  S   S99       1.0  0.14860  0.70549  0.27455  1.0000
  S   S100      1.0  0.29018  0.86124  0.27828  1.0000
  S   S101      1.0  0.28445  0.86900  0.31261  1.0000
  Fe  Fe51      1.0  0.27228  0.84336  0.29922  1.0000
  S   S102      1.0  0.23269  0.83448  0.30136  1.0000
  Fe  Fe52      1.0  0.30516  0.88438  0.29194  1.0000
  H   H628      1.0  0.21229  0.81992  0.24400  1.0000
  Fe  Fe53      1.0  0.09862  0.58877  0.42436  1.0000
  S   S103      1.0  0.12763  0.60687  0.43135  1.0000
  S   S104      1.0  0.05818  0.59969  0.42968  1.0000
  Fe  Fe54      1.0  0.13482  0.54912  0.41129  1.0000
  S   S105      1.0  0.16719  0.56296  0.41748  1.0000
  Fe  Fe55      1.0  0.14388  0.56818  0.43865  1.0000
  S   S106      1.0  0.15498  0.55214  0.46054  1.0000
  Fe  Fe56      1.0  0.14829  0.60034  0.40954  1.0000
  S   S107      1.0  0.17028  0.62495  0.39322  1.0000
  S   S108      1.0  0.11337  0.55071  0.43300  1.0000
  S   S109      1.0  0.11745  0.58596  0.40210  1.0000
  C   C358      1.0  0.13395  0.65654  0.35270  1.0000
  C   C359      1.0  0.11957  0.65023  0.36568  1.0000
  C   C360      1.0  0.13059  0.64100  0.37816  1.0000
  C   C361      1.0  0.15618  0.63797  0.37779  1.0000
  C   C362      1.0  0.17069  0.64461  0.36484  1.0000
  C   C363      1.0  0.15962  0.65370  0.35227  1.0000
  H   H629      1.0  0.09971  0.65243  0.36611  1.0000
  H   H630      1.0  0.11920  0.63641  0.38812  1.0000
  H   H631      1.0  0.19054  0.64205  0.36448  1.0000
  H   H632      1.0  0.17092  0.65765  0.34220  1.0000
  C   C364      1.0  0.20665  0.76190  0.29573  1.0000
  C   C365      1.0  0.23174  0.76278  0.29638  1.0000
  C   C366      1.0  0.23989  0.78456  0.29861  1.0000
  C   C367      1.0  0.22306  0.80590  0.30007  1.0000
  C   C368      1.0  0.19789  0.80490  0.29974  1.0000
  C   C369      1.0  0.18970  0.78305  0.29758  1.0000
  H   H633      1.0  0.24503  0.74651  0.29505  1.0000
  H   H634      1.0  0.25926  0.78493  0.29898  1.0000
  H   H635      1.0  0.18469  0.82130  0.30085  1.0000
  H   H636      1.0  0.17035  0.78273  0.29710  1.0000
  H   H637      1.0  0.27081  0.87101  0.42180  1.0000
  H   H638      1.0  0.02577  0.73797  0.27201  1.0000
  H   H639      1.0  0.16948  0.67614  0.25136  1.0000
  C   C370      1.0  0.00583  0.66521  0.32921  1.0000
  H   H640      1.0  0.00641  0.59921  0.43084  1.0000
  H   H641      1.0  0.33281  0.83184  0.38073  1.0000
  H   H642      1.0  0.19527  0.80598  0.25934  1.0000
  H   H643      1.0  0.24804  0.72166  0.22598  1.0000
  C   C371      1.0  0.07506  0.65895  0.24183  1.0000
  C   C372      1.0  0.10095  0.65895  0.26157  1.0000
  C   C373      1.0  0.06921  0.55919  0.46460  1.0000
  H   H644      1.0  0.23587  0.87328  0.25615  1.0000
  H   H645      1.0  0.05502  0.68196  0.25844  1.0000
  H   H646      1.0  0.13759  0.60388  0.46245  1.0000
  C   C374      1.0  0.23461  0.80083  0.26119  1.0000
  C   C375      1.0  0.27650  0.95608  0.29859  1.0000
  C   C376      1.0  0.30103  0.95103  0.29252  1.0000
  H   H647      1.0  0.00866  0.68245  0.32208  1.0000
  C   C377      1.0  0.29109  0.80485  0.23239  1.0000
  H   H648      1.0  0.29952  0.82267  0.36872  1.0000
  H   H649      1.0  0.26446  0.94227  0.29954  1.0000
  H   H650      1.0  0.32580  0.81105  0.42189  1.0000
  C   C378      1.0  0.03933  0.56275  0.39984  1.0000
  C   C379      1.0  0.05322  0.57184  0.40867  1.0000
  C   C380      1.0  0.04139  0.58573  0.41956  1.0000
  H   H651      1.0  0.28939  0.82127  0.41204  1.0000
  H   H652      1.0  0.07012  0.64012  0.24492  1.0000
  H   H653      1.0  0.04848  0.55268  0.39117  1.0000
  H   H654      1.0  0.07300  0.56842  0.40685  1.0000
  H   H655      1.0  0.00246  0.60545  0.45790  1.0000
  C   C381      1.0  0.28776  0.78018  0.26849  1.0000
  C   C382      1.0  0.19555  0.61840  0.23225  1.0000
  C   C383      1.0  0.02762  0.67132  0.29059  1.0000
  C   C384      1.0  0.04855  0.68329  0.28943  1.0000
  C   C385      1.0  0.04817  0.70735  0.28264  1.0000
  C   C386      1.0  0.02634  0.71938  0.27730  1.0000
  C   C387      1.0  0.28878  0.84145  0.40913  1.0000
  H   H656      1.0  0.02839  0.65259  0.29565  1.0000
  H   H657      1.0  0.02333  0.65228  0.32847  1.0000
  C   C388      1.0  0.07657  0.63862  0.46711  1.0000
  C   C389      1.0  0.09495  0.50541  0.41169  1.0000
  S   S110      1.0  0.30464  0.81440  0.30247  1.0000
  C   C390      1.0  0.24304  0.70287  0.22717  1.0000
  Fe  Fe57      1.0  0.32332  0.83327  0.28222  1.0000
  C   C391      1.0  0.11591  0.49908  0.40212  1.0000
  C   C392      1.0  0.19018  0.61635  0.24733  1.0000
  C   C393      1.0  0.26691  0.79771  0.24087  1.0000
  C   C394      1.0  0.27624  0.80697  0.26434  1.0000
  H   H658      1.0  0.26694  0.99498  0.27007  1.0000
  H   H659      1.0  0.13572  0.52015  0.34211  1.0000
  C   C395      1.0  0.21296  0.80360  0.25216  1.0000
  C   C396      1.0  0.01573  0.58892  0.42228  1.0000
  H   H660      1.0  0.14011  0.71780  0.35370  1.0000
  N   N27       1.0  0.25747  0.81087  0.25382  1.0000
  N   N28       1.0  0.18958  0.72654  0.34029  1.0000
  C   C397      1.0  0.21270  0.71606  0.33140  1.0000
  C   C398      1.0  0.18812  0.75411  0.33779  1.0000
  C   C399      1.0  0.16787  0.71947  0.33467  1.0000
  C   C400      1.0  0.19089  0.71604  0.35582  1.0000
  C   C401      1.0  0.21690  0.68798  0.33125  1.0000
  C   C402      1.0  0.21049  0.76449  0.34131  1.0000
  C   C403      1.0  0.14225  0.72743  0.34262  1.0000
  C   C404      1.0  0.17569  0.73120  0.36740  1.0000
  H   H661      1.0  0.21320  0.72459  0.32004  1.0000
  H   H662      1.0  0.22942  0.72040  0.33523  1.0000
  H   H663      1.0  0.17153  0.76345  0.34381  1.0000
  H   H664      1.0  0.18598  0.76088  0.32634  1.0000
  H   H665      1.0  0.16761  0.72675  0.32309  1.0000
  H   H666      1.0  0.16921  0.69932  0.33514  1.0000
  H   H667      1.0  0.18527  0.69737  0.35781  1.0000
  H   H668      1.0  0.21031  0.71356  0.35826  1.0000
  H   H669      1.0  0.23601  0.68233  0.32629  1.0000
  H   H670      1.0  0.21479  0.67777  0.34216  1.0000
  H   H671      1.0  0.20458  0.68230  0.32447  1.0000
  H   H672      1.0  0.21636  0.75614  0.35183  1.0000
  H   H673      1.0  0.22627  0.76205  0.33274  1.0000
  H   H674      1.0  0.20560  0.78459  0.34164  1.0000
  C   C405      1.0  0.03417  0.61151  0.46729  1.0000
  H   H675      1.0  0.16287  0.51717  0.43926  1.0000
  H   H676      1.0  0.12803  0.72177  0.33712  1.0000
  H   H677      1.0  0.16904  0.71832  0.37667  1.0000
  H   H678      1.0  0.15917  0.74333  0.36405  1.0000
  H   H679      1.0  0.18756  0.74196  0.37176  1.0000
  C   C406      1.0  0.09156  0.63623  0.27058  1.0000
  C   C407      1.0  0.05327  0.67714  0.24779  1.0000
  H   H680      1.0  0.27631  0.83597  0.38158  1.0000
  H   H681      1.0  0.07218  0.63523  0.26927  1.0000
  H   H682      1.0  0.10358  0.61899  0.26821  1.0000
  H   H683      1.0  0.02401  0.57851  0.46023  1.0000
  H   H684      1.0  0.10455  0.68776  0.22690  1.0000
  H   H685      1.0  0.31074  0.98758  0.24628  1.0000
  N   N29       1.0  0.14256  0.57209  0.35677  1.0000
  C   C408      1.0  0.15386  0.57344  0.37020  1.0000
  C   C409      1.0  0.11506  0.57921  0.36013  1.0000
  C   C410      1.0  0.15316  0.59019  0.34502  1.0000
  C   C411      1.0  0.14927  0.54626  0.35301  1.0000
  C   C412      1.0  0.18228  0.57008  0.36885  1.0000
  C   C413      1.0  0.10152  0.56071  0.37081  1.0000
  C   C414      1.0  0.13810  0.60009  0.33239  1.0000
  C   C415      1.0  0.13760  0.53997  0.34040  1.0000
  H   H686      1.0  0.14732  0.59144  0.37426  1.0000
  H   H687      1.0  0.14813  0.55939  0.37900  1.0000
  H   H688      1.0  0.10546  0.58197  0.35042  1.0000
  H   H689      1.0  0.11097  0.59733  0.36438  1.0000
  H   H690      1.0  0.15586  0.60681  0.34953  1.0000
  H   H691      1.0  0.17184  0.58234  0.34031  1.0000
  H   H692      1.0  0.16951  0.54196  0.35009  1.0000
  H   H693      1.0  0.14542  0.53252  0.36252  1.0000
  H   H694      1.0  0.18782  0.57193  0.37944  1.0000
  H   H695      1.0  0.19070  0.55160  0.36617  1.0000
  H   H696      1.0  0.19016  0.58447  0.36107  1.0000
  H   H697      1.0  0.08182  0.56862  0.37294  1.0000
  H   H698      1.0  0.10208  0.54319  0.36638  1.0000
  H   H699      1.0  0.10872  0.55678  0.38131  1.0000
  H   H700      1.0  0.12127  0.61262  0.33586  1.0000
  H   H701      1.0  0.13314  0.58549  0.32705  1.0000
  H   H702      1.0  0.14929  0.61137  0.32415  1.0000
  H   H703      1.0  0.14935  0.54384  0.33007  1.0000
  H   H704      1.0  0.11870  0.54958  0.33956  1.0000
  H   H705      1.0  0.00182  0.67033  0.34024  1.0000
  H   H706      1.0  0.26954  0.77748  0.24391  1.0000
  H   H707      1.0  0.28794  0.87906  0.38921  1.0000
  H   H708      1.0  0.06367  0.56004  0.45371  1.0000
  S   S111      1.0  0.31231  0.92391  0.28432  1.0000
  H   H709      1.0  0.30637  0.91210  0.39472  1.0000
  H   H710      1.0  0.24320  0.84178  0.23899  1.0000
  C   C416      1.0  0.31198  0.89382  0.40065  1.0000
  H   H711      1.0  0.24373  0.64931  0.22670  1.0000
  H   H712      1.0  0.22587  0.70214  0.23478  1.0000
  H   H713      1.0  0.22769  0.80878  0.27134  1.0000
  C   C417      1.0  0.18180  0.66203  0.23110  1.0000
  H   H714      1.0  0.29993  0.85635  0.42759  1.0000
  H   H715      1.0  0.33192  0.89271  0.40145  1.0000
  H   H716      1.0  0.27419  0.84085  0.43172  1.0000
  H   H717      1.0  0.10996  0.70696  0.25497  1.0000
  H   H718      1.0  0.09233  0.52258  0.41614  1.0000
  C   C418      1.0  0.11775  0.63903  0.24037  1.0000
  H   H719      1.0  0.07498  0.66178  0.22998  1.0000
  H   H720      1.0  0.06194  0.64865  0.46074  1.0000
  H   H721      1.0  0.05045  0.69419  0.24020  1.0000
  H   H722      1.0  0.13566  0.63723  0.24472  1.0000
  H   H723      1.0  0.09160  0.62915  0.45997  1.0000
  C   C419      1.0  0.23607  0.85350  0.26011  1.0000
  H   H724      1.0  0.25713  0.68980  0.23251  1.0000
  H   H725      1.0  0.26961  0.84613  0.24615  1.0000
  C   C420      1.0  0.00192  0.57926  0.41374  1.0000
  H   H726      1.0  0.12999  0.68156  0.23702  1.0000
  C   C421      1.0  0.30707  0.87387  0.39207  1.0000
  H   H727      1.0  0.26801  0.81431  0.27455  1.0000
  C   C422      1.0  0.17682  0.66004  0.24613  1.0000
  H   H728      1.0  0.29183  0.81748  0.26024  1.0000
  C   C423      1.0  0.30704  0.99266  0.29557  1.0000
  C   C424      1.0  0.18056  0.63712  0.25430  1.0000
  C   C425      1.0  0.10950  0.68383  0.23807  1.0000
  H   H729      1.0  0.29654  0.85464  0.36961  1.0000
  H   H730      1.0  0.25310  0.80121  0.23308  1.0000
  H   H731      1.0  0.32829  0.87828  0.33693  1.0000
  H   H732      1.0  0.09195  0.63755  0.28212  1.0000
  C   C426      1.0  0.25214  0.83805  0.24903  1.0000
  H   H733      1.0  0.29981  0.77989  0.27698  1.0000
  H   H734      1.0  0.13787  0.74756  0.34257  1.0000
  H   H735      1.0  0.03613  0.66854  0.24947  1.0000
  H   H736      1.0  0.04150  0.61906  0.45630  1.0000
  H   H737      1.0  0.31453  0.81156  0.39169  1.0000
  C   C427      1.0  0.10094  0.70751  0.24518  1.0000
  H   H738      1.0  0.09013  0.67509  0.26622  1.0000
  H   H739      1.0  0.07944  0.59442  0.45634  1.0000
  H   H740      1.0  0.00447  0.51766  0.36944  1.0000
  H   H741      1.0  0.21668  0.84990  0.26171  1.0000
  H   H742      1.0  0.19312  0.59854  0.25359  1.0000
  H   H743      1.0  0.27181  0.84676  0.40373  1.0000
  H   H744      1.0  0.11050  0.62147  0.24437  1.0000
  H   H745      1.0  0.27387  0.76805  0.27300  1.0000
  H   H746      1.0  0.23873  0.78088  0.26476  1.0000
  H   H747      1.0  0.21381  0.78704  0.24668  1.0000
  H   H748      1.0  0.08078  0.71144  0.24788  1.0000
  C   C428      1.0  0.00577  0.68334  0.28529  1.0000
  H   H749      1.0  0.18344  0.49895  0.42763  1.0000
  H   H750      1.0  0.31141  0.99086  0.26453  1.0000
  C   C429      1.0  0.31629  0.96936  0.29124  1.0000
  H   H751      1.0  0.26970  0.62652  0.22332  1.0000
  H   H752      1.0  0.29975  0.77240  0.25937  1.0000
  H   H753      1.0  0.30155  0.89340  0.41146  1.0000
  S   S112      1.0  0.13985  0.51714  0.39846  1.0000
  H   H754      1.0  0.01876  0.51030  0.39100  1.0000
  N   N30       1.0  0.10027  0.66063  0.24559  1.0000
  H   H755      1.0  0.24334  0.85028  0.27060  1.0000
  H   H756      1.0  0.12013  0.65918  0.26386  1.0000
  C   C430      1.0  0.28335  0.85338  0.42320  1.0000
  C   C431      1.0  0.17091  0.49797  0.43783  1.0000
  H   H757      1.0  0.27901  0.96823  0.26181  1.0000
  C   C432      1.0  0.00520  0.70753  0.27870  1.0000
  C   C433      1.0  0.01359  0.56707  0.40214  1.0000
  C   C434      1.0  0.01537  0.59495  0.46531  1.0000
  Fe  Fe58      1.0  0.31844  0.84098  0.31429  1.0000
  H   H758      1.0  0.29647  0.79396  0.22319  1.0000
  C   C435      1.0  0.31453  0.83113  0.38716  1.0000
  N   N31       1.0  0.31103  0.84756  0.39893  1.0000
  C   C436      1.0  0.27589  0.98860  0.25976  1.0000
  C   C437      1.0  0.12381  0.63939  0.22392  1.0000
  H   H759      1.0  0.24802  0.98338  0.30712  1.0000
  H   H760      1.0  0.08626  0.54569  0.46524  1.0000
  C   C438      1.0  0.19099  0.64125  0.22410  1.0000
  C   C439      1.0  0.26718  0.97948  0.30280  1.0000
  H   H761      1.0  0.13630  0.62231  0.22160  1.0000
  C   C440      1.0  0.07469  0.58451  0.46716  1.0000
  H   H762      1.0  0.17815  0.67976  0.22485  1.0000
  H   H763      1.0  0.31932  0.87616  0.38174  1.0000
  H   H764      1.0  0.10671  0.72337  0.23769  1.0000
  H   H765      1.0  0.20258  0.60227  0.22696  1.0000
  C   C441      1.0  0.29537  0.83672  0.37632  1.0000
  H   H766      1.0  0.28920  0.82448  0.22789  1.0000
  H   H767      1.0  0.30639  0.80071  0.23905  1.0000
  H   H768      1.0  0.26342  0.99357  0.25133  1.0000
  H   H769      1.0  0.17694  0.70581  0.71262  1.0000
  Fe  Fe59      1.0  0.13076  0.69678  0.67061  1.0000
  S   S113      1.0  0.13960  0.65579  0.67425  1.0000
  S   S114      1.0  0.09125  0.71659  0.67008  1.0000
  Fe  Fe60      1.0  0.18523  0.70460  0.66454  1.0000
  S   S115      1.0  0.19714  0.66378  0.66718  1.0000
  S   S116      1.0  0.21961  0.72415  0.65983  1.0000
  Fe  Fe61      1.0  0.16692  0.66032  0.65453  1.0000
  S   S117      1.0  0.17120  0.63017  0.64005  1.0000
  Fe  Fe62      1.0  0.16931  0.66214  0.68672  1.0000
  S   S118      1.0  0.18499  0.63425  0.70435  1.0000
  S   S119      1.0  0.15696  0.70117  0.65010  1.0000
  S   S120      1.0  0.15849  0.70318  0.68483  1.0000
  Fe  Fe63      1.0  0.28422  0.84238  0.66459  1.0000
  S   S121      1.0  0.24671  0.83060  0.66356  1.0000
  Fe  Fe64      1.0  0.30583  0.89027  0.66630  1.0000
  H   H770      1.0  0.03217  0.64729  0.64136  1.0000
  S   S122      1.0  0.30067  0.87042  0.64803  1.0000
  S   S123      1.0  0.28641  0.86408  0.68250  1.0000
  Fe  Fe65      1.0  0.10076  0.57394  0.56370  1.0000
  S   S124      1.0  0.10247  0.61299  0.55433  1.0000
  S   S125      1.0  0.06625  0.55763  0.57208  1.0000
  Fe  Fe66      1.0  0.15542  0.55907  0.55762  1.0000
  S   S126      1.0  0.16221  0.59675  0.54734  1.0000
  Fe  Fe67      1.0  0.13574  0.60980  0.56595  1.0000
  S   S127      1.0  0.14160  0.64182  0.57686  1.0000
  Fe  Fe68      1.0  0.12854  0.59682  0.53653  1.0000
  S   S128      1.0  0.12312  0.61307  0.51370  1.0000
  S   S129      1.0  0.13146  0.57210  0.57698  1.0000
  S   S130      1.0  0.12427  0.55805  0.54518  1.0000
  C   C442      1.0  0.16255  0.63412  0.62258  1.0000
  C   C443      1.0  0.15764  0.61360  0.61697  1.0000
  C   C444      1.0  0.15074  0.61579  0.60309  1.0000
  C   C445      1.0  0.14944  0.63845  0.59451  1.0000
  C   C446      1.0  0.15441  0.65900  0.60009  1.0000
  C   C447      1.0  0.16078  0.65690  0.61413  1.0000
  H   H771      1.0  0.15889  0.59595  0.62351  1.0000
  H   H772      1.0  0.14660  0.59993  0.59899  1.0000
  H   H773      1.0  0.15337  0.67661  0.59352  1.0000
  H   H774      1.0  0.16467  0.67280  0.61833  1.0000
  C   C448      1.0  0.22642  0.75396  0.66108  1.0000
  C   C449      1.0  0.20818  0.77349  0.66440  1.0000
  C   C450      1.0  0.21471  0.79677  0.66515  1.0000
  C   C451      1.0  0.23955  0.80068  0.66297  1.0000
  C   C452      1.0  0.25780  0.78102  0.65994  1.0000
  C   C453      1.0  0.25124  0.75798  0.65875  1.0000
  H   H775      1.0  0.18902  0.77076  0.66615  1.0000
  H   H776      1.0  0.20039  0.81183  0.66744  1.0000
  H   H777      1.0  0.27694  0.78362  0.65845  1.0000
  H   H778      1.0  0.26552  0.74300  0.65622  1.0000
  C   C454      1.0  0.04511  0.58641  0.48984  1.0000
  H   H779      1.0  0.24212  0.89567  0.70274  1.0000
  H   H780      1.0  0.05714  0.63027  0.57991  1.0000
  H   H781      1.0  0.05786  0.51249  0.54253  1.0000
  H   H782      1.0  0.24368  0.74551  0.69027  1.0000
  H   H783      1.0  0.03088  0.65316  0.57898  1.0000
  C   C455      1.0  0.32730  0.78639  0.63177  1.0000
  H   H784      1.0  0.15471  0.53801  0.49093  1.0000
  S   S131      1.0  0.29264  0.93163  0.66356  1.0000
  C   C456      1.0  0.30562  0.95472  0.66980  1.0000
  H   H785      1.0  0.24007  0.64920  0.70236  1.0000
  S   S132      1.0  0.32507  0.82551  0.70807  1.0000
  C   C457      1.0  0.18836  0.95129  0.68476  1.0000
  H   H786      1.0  0.07386  0.58559  0.50404  1.0000
  H   H787      1.0  0.23082  0.90903  0.64117  1.0000
  C   C458      1.0  0.25367  0.71357  0.70609  1.0000
  H   H788      1.0  0.03449  0.65968  0.62234  1.0000
  H   H789      1.0  0.09241  0.58141  0.47188  1.0000
  H   H790      1.0  0.00381  0.58987  0.47551  1.0000
  C   C459      1.0  0.04798  0.56157  0.55810  1.0000
  C   C460      1.0  0.05403  0.57691  0.54553  1.0000
  C   C461      1.0  0.03835  0.58188  0.53482  1.0000
  H   H791      1.0  0.27392  0.84403  0.62820  1.0000
  H   H792      1.0  0.21367  0.87865  0.69447  1.0000
  H   H793      1.0  0.07047  0.58552  0.54415  1.0000
  H   H794      1.0  0.04257  0.59465  0.52542  1.0000
  C   C462      1.0  0.02136  0.68045  0.67092  1.0000
  C   C463      1.0  0.04304  0.66650  0.67541  1.0000
  C   C464      1.0  0.06439  0.67733  0.67544  1.0000
  C   C465      1.0  0.06428  0.70242  0.67110  1.0000
  C   C466      1.0  0.04229  0.71662  0.66714  1.0000
  C   C467      1.0  0.02094  0.70572  0.66700  1.0000
  H   H795      1.0  0.04348  0.64700  0.67861  1.0000
  H   H796      1.0  0.08098  0.66620  0.67873  1.0000
  H   H797      1.0  0.04191  0.73609  0.66387  1.0000
  H   H798      1.0  0.19303  0.57751  0.60378  1.0000
  C   C468      1.0  0.14132  0.57068  0.50119  1.0000
  C   C469      1.0  0.09432  0.52666  0.52310  1.0000
  H   H799      1.0  0.20452  0.52837  0.59097  1.0000
  H   H800      1.0  0.03389  0.57255  0.48816  1.0000
  H   H801      1.0  0.26966  0.69886  0.70639  1.0000
  H   H802      1.0  0.19597  0.62427  0.56094  1.0000
  C   C470      1.0  0.19515  0.87084  0.67768  1.0000
  S   S133      1.0  0.18335  0.52569  0.56198  1.0000
  C   C471      1.0  0.13301  0.59586  0.49912  1.0000
  C   C472      1.0  0.19235  0.54394  0.59555  1.0000
  H   H803      1.0  0.17780  0.55125  0.58855  1.0000
  C   C473      1.0  0.29442  0.97926  0.66750  1.0000
  H   H804      1.0  0.31034  0.78458  0.63939  1.0000
  H   H805      1.0  0.23798  0.93789  0.67767  1.0000
  H   H806      1.0  0.18291  0.53637  0.60597  1.0000
  C   C474      1.0  0.20676  0.56413  0.59816  1.0000
  C   C475      1.0  0.13181  0.60772  0.48509  1.0000
  H   H807      1.0  0.12576  0.62726  0.48342  1.0000
  N   N32       1.0  0.22052  0.57677  0.58502  1.0000
  H   H808      1.0  0.24776  0.60208  0.58146  1.0000
  C   C476      1.0  0.23721  0.55719  0.57733  1.0000
  C   C477      1.0  0.20186  0.59063  0.57557  1.0000
  C   C478      1.0  0.25923  0.56525  0.56688  1.0000
  C   C479      1.0  0.21104  0.60881  0.56284  1.0000
  H   H809      1.0  0.20287  0.95761  0.68969  1.0000
  H   H810      1.0  0.24538  0.54239  0.58521  1.0000
  H   H811      1.0  0.22650  0.54799  0.57108  1.0000
  H   H812      1.0  0.19298  0.57761  0.57083  1.0000
  H   H813      1.0  0.18612  0.60077  0.58192  1.0000
  H   H814      1.0  0.01468  0.64737  0.60166  1.0000
  H   H815      1.0  0.26801  0.54967  0.56090  1.0000
  H   H816      1.0  0.27356  0.56984  0.57274  1.0000
  H   H817      1.0  0.21594  0.59979  0.55289  1.0000
  H   H818      1.0  0.22657  0.61771  0.56463  1.0000
  H   H819      1.0  0.20698  0.73474  0.69947  1.0000
  H   H820      1.0  0.05505  0.55144  0.47250  1.0000
  N   N33       1.0  0.21392  0.91035  0.67827  1.0000
  H   H821      1.0  0.27795  0.98360  0.66218  1.0000
  H   H822      1.0  0.02932  0.60332  0.56956  1.0000
  H   H823      1.0  0.18853  0.95983  0.67346  1.0000
  C   C480      1.0  0.23551  0.59335  0.59027  1.0000
  H   H824      1.0  0.29180  0.77537  0.62035  1.0000
  N   N34       1.0  0.05501  0.60016  0.47590  1.0000
  H   H825      1.0  0.32015  0.83506  0.62205  1.0000
  C   C481      1.0  0.23408  0.90344  0.65254  1.0000
  C   C482      1.0  0.17967  0.50210  0.55221  1.0000
  N   N35       1.0  0.08213  0.65837  0.63392  1.0000
  C   C483      1.0  0.10100  0.67259  0.63764  1.0000
  C   C484      1.0  0.08057  0.63633  0.64510  1.0000
  C   C485      1.0  0.05772  0.67496  0.63481  1.0000
  C   C486      1.0  0.08982  0.65153  0.61889  1.0000
  C   C487      1.0  0.10322  0.69751  0.62842  1.0000
  C   C488      1.0  0.10525  0.62004  0.64752  1.0000
  C   C489      1.0  0.03471  0.66361  0.63343  1.0000
  C   C490      1.0  0.08147  0.62817  0.61526  1.0000
  H   H826      1.0  0.09716  0.67612  0.64908  1.0000
  H   H827      1.0  0.11976  0.66185  0.63658  1.0000
  H   H828      1.0  0.06801  0.62426  0.64264  1.0000
  H   H829      1.0  0.07242  0.64218  0.65567  1.0000
  H   H830      1.0  0.05420  0.68285  0.64517  1.0000
  H   H831      1.0  0.05798  0.69097  0.62634  1.0000
  H   H832      1.0  0.08359  0.66688  0.61075  1.0000
  H   H833      1.0  0.11018  0.64863  0.61650  1.0000
  H   H834      1.0  0.10518  0.69607  0.61676  1.0000
  H   H835      1.0  0.08739  0.71154  0.63141  1.0000
  H   H836      1.0  0.11994  0.70437  0.63055  1.0000
  H   H837      1.0  0.11655  0.61614  0.63731  1.0000
  H   H838      1.0  0.11609  0.62867  0.65391  1.0000
  H   H839      1.0  0.10165  0.60227  0.65378  1.0000
  H   H840      1.0  0.20716  0.67993  0.70345  1.0000
  H   H841      1.0  0.32541  0.77036  0.59174  1.0000
  H   H842      1.0  0.01059  0.63025  0.55152  1.0000
  H   H843      1.0  0.09126  0.61134  0.62083  1.0000
  H   H844      1.0  0.08644  0.62703  0.60356  1.0000
  H   H845      1.0  0.06142  0.62796  0.61769  1.0000
  H   H846      1.0  0.17419  0.91877  0.68222  1.0000
  H   H847      1.0  0.17631  0.87840  0.68208  1.0000
  H   H848      1.0  0.27562  0.73373  0.68900  1.0000
  C   C491      1.0  0.01109  0.55521  0.54892  1.0000
  N   N36       1.0  0.22947  0.70375  0.71024  1.0000
  H   H849      1.0  0.04519  0.63883  0.56333  1.0000
  H   H850      1.0  0.23500  0.88326  0.65445  1.0000
  H   H851      1.0  0.25635  0.72560  0.71405  1.0000
  C   C492      1.0  0.25687  0.72829  0.69109  1.0000
  H   H852      1.0  0.12404  0.49657  0.52661  1.0000
  C   C493      1.0  0.17557  0.50746  0.53781  1.0000
  C   C494      1.0  0.32690  0.94935  0.67670  1.0000
  C   C495      1.0  0.10698  0.50501  0.53280  1.0000
  H   H853      1.0  0.17476  0.52614  0.53262  1.0000
  H   H854      1.0  0.24371  0.66392  0.68423  1.0000
  H   H855      1.0  0.23339  0.87323  0.67863  1.0000
  H   H856      1.0  0.07884  0.56006  0.49356  1.0000
  H   H857      1.0  0.25523  0.71718  0.68253  1.0000
  H   H858      1.0  0.29179  0.79603  0.60439  1.0000
  C   C496      1.0  0.24405  0.66646  0.69563  1.0000
  H   H859      1.0  0.27131  0.81253  0.62783  1.0000
  C   C497      1.0  0.21516  0.88308  0.68259  1.0000
  C   C498      1.0  0.23968  0.91527  0.69819  1.0000
  C   C499      1.0  0.21305  0.91682  0.66233  1.0000
  H   H860      1.0  0.28840  0.82145  0.64072  1.0000
  C   C500      1.0  0.02665  0.55047  0.55975  1.0000
  H   H861      1.0  0.21977  0.69938  0.68933  1.0000
  C   C501      1.0  0.14815  0.55746  0.48927  1.0000
  H   H862      1.0  0.18921  0.91611  0.69777  1.0000
  H   H863      1.0  0.30233  0.75247  0.60033  1.0000
  H   H864      1.0  0.10799  0.53293  0.51415  1.0000
  H   H865      1.0  0.21389  0.93670  0.65912  1.0000
  C   C502      1.0  0.23663  0.91843  0.68207  1.0000
  C   C503      1.0  0.30775  0.82350  0.61874  1.0000
  C   C504      1.0  0.03960  0.63568  0.57510  1.0000
  H   H866      1.0  0.19657  0.87194  0.66583  1.0000
  H   H867      1.0  0.03116  0.60215  0.58816  1.0000
  H   H868      1.0  0.22429  0.92565  0.70460  1.0000
  H   H869      1.0  0.26312  0.66918  0.69628  1.0000
  C   C505      1.0  0.13846  0.59451  0.47320  1.0000
  H   H870      1.0  0.14261  0.56142  0.51194  1.0000
  H   H871      1.0  0.03203  0.59911  0.49640  1.0000
  Fe  Fe69      1.0  0.32367  0.84183  0.68463  1.0000
  H   H872      1.0  0.19526  0.91361  0.65926  1.0000
  H   H873      1.0  0.11416  0.51328  0.54100  1.0000
  C   C506      1.0  0.28403  0.82508  0.62949  1.0000
  H   H874      1.0  0.30207  0.83297  0.60832  1.0000
  H   H875      1.0  0.24835  0.58241  0.59762  1.0000
  H   H876      1.0  0.07928  0.52176  0.51804  1.0000
  H   H877      1.0  0.32668  0.81248  0.58752  1.0000
  H   H878      1.0  0.25336  0.90782  0.67691  1.0000
  H   H879      1.0  0.23326  0.62665  0.60032  1.0000
  C   C507      1.0  0.19088  0.92304  0.68611  1.0000
  H   H880      1.0  0.07632  0.50956  0.55653  1.0000
  H   H881      1.0  0.21145  0.60742  0.60889  1.0000
  C   C508      1.0  0.22055  0.61435  0.59824  1.0000
  H   H882      1.0  0.25379  0.58074  0.55879  1.0000
  C   C509      1.0  0.06470  0.57278  0.49935  1.0000
  H   H883      1.0  0.21961  0.55557  0.60612  1.0000
  H   H884      1.0  0.05535  0.56158  0.50848  1.0000
  C   C510      1.0  0.30433  0.78368  0.61138  1.0000
  C   C511      1.0  0.01677  0.57125  0.53657  1.0000
  H   H885      1.0  0.25677  0.92248  0.69942  1.0000
  H   H886      1.0  0.05286  0.63228  0.48693  1.0000
  H   H887      1.0  0.00978  0.56974  0.59002  1.0000
  H   H888      1.0  0.25223  0.90858  0.65357  1.0000
  H   H889      1.0  0.17040  0.95843  0.69060  1.0000
  H   H890      1.0  0.20668  0.62582  0.59185  1.0000
  H   H891      1.0  0.19792  0.85099  0.68177  1.0000
  H   H892      1.0  0.02202  0.53851  0.56945  1.0000
  C   C512      1.0  0.22426  0.68809  0.69955  1.0000
  N   N37       1.0  0.32110  0.79797  0.61710  1.0000
  C   C513      1.0  0.31670  0.76295  0.60239  1.0000
  C   C514      1.0  0.02420  0.61424  0.57876  1.0000
  H   H893      1.0  0.08203  0.61379  0.48608  1.0000
  C   C515      1.0  0.20933  0.72558  0.71054  1.0000
  H   H894      1.0  0.08666  0.54223  0.52931  1.0000
  S   S134      1.0  0.32048  0.81884  0.66735  1.0000
  H   H895      1.0  0.01817  0.67732  0.63577  1.0000
  H   H896      1.0  0.00788  0.51445  0.51887  1.0000
  H   H897      1.0  0.21422  0.73979  0.71641  1.0000
  C   C516      1.0  0.06639  0.62091  0.47980  1.0000
  H   H898      1.0  0.33056  0.74972  0.60781  1.0000
  H   H899      1.0  0.16999  0.73709  0.71585  1.0000
  H   H900      1.0  0.02316  0.62744  0.47226  1.0000
  C   C517      1.0  0.18346  0.72016  0.71749  1.0000
  C   C518      1.0  0.14661  0.56931  0.47525  1.0000
  C   C519      1.0  0.06973  0.49869  0.54920  1.0000
  H   H901      1.0  0.00444  0.71673  0.66350  1.0000
  H   H902      1.0  0.33087  0.74664  0.63122  1.0000
  C   C520      1.0  0.32576  0.99292  0.67884  1.0000
  H   H903      1.0  0.08468  0.65265  0.47145  1.0000
  Fe  Fe70      1.0  0.25323  0.56314  0.78146  1.0000
  S   S135      1.0  0.21417  0.57688  0.78939  1.0000
  S   S136      1.0  0.26184  0.53033  0.76867  1.0000
  Fe  Fe71      1.0  0.27298  0.60519  0.79273  1.0000
  S   S137      1.0  0.23487  0.62125  0.80177  1.0000
  Fe  Fe72      1.0  0.22879  0.58222  0.80951  1.0000
  S   S138      1.0  0.20988  0.56467  0.83048  1.0000
  Fe  Fe73      1.0  0.22359  0.61439  0.78082  1.0000
  S   S139      1.0  0.19634  0.64233  0.76910  1.0000
  S   S140      1.0  0.26768  0.56632  0.80198  1.0000
  S   S141      1.0  0.26188  0.60056  0.77134  1.0000
  Fe  Fe74      1.0  0.11588  0.59176  0.92722  1.0000
  S   S142      1.0  0.14390  0.61753  0.92525  1.0000
  S   S143      1.0  0.07576  0.60698  0.92653  1.0000
  Fe  Fe75      1.0  0.15415  0.54720  0.92974  1.0000
  S   S144      1.0  0.18551  0.56901  0.92701  1.0000
  H   H904      1.0  0.17624  0.59610  0.74728  1.0000
  Fe  Fe76      1.0  0.16085  0.59152  0.94271  1.0000
  C   C521      1.0  0.02212  0.54772  0.94729  1.0000
  Fe  Fe77      1.0  0.16595  0.59288  0.90972  1.0000
  S   S145      1.0  0.18229  0.61251  0.88870  1.0000
  S   S146      1.0  0.13050  0.56824  0.94629  1.0000
  S   S147      1.0  0.13700  0.56851  0.91085  1.0000
  H   H905      1.0  0.17493  0.50570  0.90033  1.0000
  H   H906      1.0  0.30465  0.58185  0.84124  1.0000
  H   H907      1.0  0.12413  0.65051  0.88623  1.0000
  H   H908      1.0  0.30049  0.61376  0.87025  1.0000
  H   H909      1.0  0.10402  0.64570  0.90251  1.0000
  H   H910      1.0  0.29689  0.70559  0.80194  1.0000
  C   C522      1.0  0.20235  0.57837  0.84653  1.0000
  C   C523      1.0  0.19513  0.56382  0.85932  1.0000
  C   C524      1.0  0.18891  0.57400  0.87235  1.0000
  C   C525      1.0  0.18994  0.59885  0.87265  1.0000
  C   C526      1.0  0.19706  0.61343  0.85985  1.0000
  C   C527      1.0  0.20315  0.60326  0.84681  1.0000
  H   H911      1.0  0.19454  0.54455  0.85913  1.0000
  H   H912      1.0  0.18352  0.56263  0.88216  1.0000
  H   H913      1.0  0.19769  0.63272  0.86002  1.0000
  H   H914      1.0  0.20814  0.61469  0.83696  1.0000
  H   H915      1.0  0.29747  0.59378  0.82393  1.0000
  C   C528      1.0  0.17429  0.65561  0.74439  1.0000
  H   H916      1.0  0.11429  0.52681  0.92419  1.0000
  H   H917      1.0  0.32898  0.86388  0.94664  1.0000
  H   H918      1.0  0.31173  0.77583  0.86348  1.0000
  H   H919      1.0  0.28256  0.66692  0.79845  1.0000
  H   H920      1.0  0.20986  0.54218  0.76518  1.0000
  C   C529      1.0  0.02672  0.56568  0.90648  1.0000
  C   C530      1.0  0.05193  0.55699  0.90632  1.0000
  C   C531      1.0  0.06716  0.56938  0.91255  1.0000
  C   C532      1.0  0.05733  0.59089  0.91861  1.0000
  C   C533      1.0  0.03223  0.59984  0.91847  1.0000
  H   H921      1.0  0.31178  0.63815  0.82528  1.0000
  H   H922      1.0  0.05957  0.54047  0.90153  1.0000
  H   H923      1.0  0.08639  0.56220  0.91269  1.0000
  H   H924      1.0  0.00151  0.63433  0.95892  1.0000
  H   H925      1.0  0.02452  0.61663  0.92296  1.0000
  H   H926      1.0  0.17412  0.54822  0.96138  1.0000
  H   H927      1.0  0.30601  0.64729  0.84277  1.0000
  C   C534      1.0  0.11654  0.50711  0.92470  1.0000
  H   H928      1.0  0.20235  0.53050  0.95467  1.0000
  C   C535      1.0  0.26090  0.66158  0.83112  1.0000
  C   C536      1.0  0.19439  0.64178  0.75072  1.0000
  H   H929      1.0  0.29608  0.58599  0.86363  1.0000
  H   H930      1.0  0.26766  0.68178  0.72937  1.0000
  C   C537      1.0  0.11360  0.63688  0.89304  1.0000
  H   H931      1.0  0.27751  0.67092  0.82850  1.0000
  C   C538      1.0  0.25123  0.50178  0.77488  1.0000
  H   H932      1.0  0.31407  0.75233  0.82391  1.0000
  H   H933      1.0  0.16862  0.53271  0.73832  1.0000
  N   N38       1.0  0.18605  0.55639  0.74868  1.0000
  C   C539      1.0  0.15980  0.58169  0.76808  1.0000
  H   H934      1.0  0.16042  0.66687  0.75078  1.0000
  H   H935      1.0  0.32376  0.80361  0.85544  1.0000
  H   H936      1.0  0.28930  0.76611  0.80543  1.0000
  H   H937      1.0  0.13416  0.56299  0.73022  1.0000
  C   C540      1.0  0.17929  0.52170  0.76988  1.0000
  H   H938      1.0  0.30201  0.95332  0.93627  1.0000
  C   C541      1.0  0.30809  0.63101  0.83685  1.0000
  N   N39       1.0  0.32256  0.78654  0.82929  1.0000
  H   H939      1.0  0.25380  0.61595  0.85640  1.0000
  H   H940      1.0  0.29195  0.80401  0.86150  1.0000
  N   N40       1.0  0.10415  0.61560  0.87221  1.0000
  C   C542      1.0  0.09422  0.62868  0.88522  1.0000
  C   C543      1.0  0.08236  0.61249  0.86504  1.0000
  C   C544      1.0  0.12080  0.63142  0.86225  1.0000
  C   C545      1.0  0.11841  0.59128  0.87734  1.0000
  H   H941      1.0  0.27426  0.56011  0.83542  1.0000
  C   C546      1.0  0.06332  0.59748  0.87424  1.0000
  C   C547      1.0  0.12292  0.62964  0.84599  1.0000
  C   C548      1.0  0.12765  0.57345  0.86610  1.0000
  H   H942      1.0  0.08099  0.64536  0.88228  1.0000
  H   H943      1.0  0.08368  0.61688  0.89352  1.0000
  H   H944      1.0  0.08825  0.60345  0.85516  1.0000
  H   H945      1.0  0.07225  0.63080  0.86141  1.0000
  H   H946      1.0  0.11440  0.65124  0.86317  1.0000
  H   H947      1.0  0.13985  0.62789  0.86539  1.0000
  H   H948      1.0  0.13511  0.59404  0.88182  1.0000
  H   H949      1.0  0.10718  0.58137  0.88629  1.0000
  H   H950      1.0  0.03186  0.60639  0.94836  1.0000
  C   C549      1.0  0.00512  0.56969  0.95334  1.0000
  C   C550      1.0  0.04824  0.60648  0.96789  1.0000
  C   C551      1.0  0.31017  0.94391  0.94601  1.0000
  H   H951      1.0  0.04889  0.59561  0.86758  1.0000
  C   C552      1.0  0.19716  0.53558  0.75894  1.0000
  H   H952      1.0  0.13819  0.63946  0.84037  1.0000
  H   H953      1.0  0.10583  0.63879  0.84151  1.0000
  H   H954      1.0  0.12698  0.61068  0.84322  1.0000
  H   H955      1.0  0.19912  0.57746  0.72872  1.0000
  H   H956      1.0  0.27692  0.78571  0.81891  1.0000
  H   H957      1.0  0.14172  0.58066  0.85781  1.0000
  S   S148      1.0  0.18030  0.60002  0.96051  1.0000
  C   C553      1.0  0.17162  0.65440  0.72994  1.0000
  C   C554      1.0  0.30205  0.66775  0.79787  1.0000
  C   C555      1.0  0.23966  0.49685  0.78885  1.0000
  S   S149      1.0  0.30985  0.61767  0.79484  1.0000
  C   C556      1.0  0.30197  0.78754  0.84156  1.0000
  H   H958      1.0  0.21305  0.67933  0.72743  1.0000
  C   C557      1.0  0.03634  0.59327  0.95794  1.0000
  N   N41       1.0  0.28482  0.61920  0.83962  1.0000
  H   H959      1.0  0.25375  0.58718  0.83101  1.0000
  C   C558      1.0  0.16361  0.54984  0.74357  1.0000
  H   H960      1.0  0.28611  0.80134  0.83847  1.0000
  C   C559      1.0  0.18045  0.57999  0.75539  1.0000
  C   C560      1.0  0.29003  0.59346  0.83551  1.0000
  H   H961      1.0  0.14934  0.54543  0.75258  1.0000
  H   H962      1.0  0.15224  0.60133  0.76865  1.0000
  C   C561      1.0  0.29336  0.78080  0.81120  1.0000
  H   H963      1.0  0.19705  0.58392  0.75950  1.0000
  H   H964      1.0  0.22805  0.61708  0.74706  1.0000
  H   H965      1.0  0.16576  0.53389  0.77630  1.0000
  H   H966      1.0  0.00154  0.58365  0.94398  1.0000
  C   C562      1.0  0.22876  0.68999  0.72519  1.0000
  H   H967      1.0  0.29471  0.93898  0.95412  1.0000
  H   H968      1.0  0.14382  0.57289  0.76690  1.0000
  H   H969      1.0  0.04044  0.55236  0.94245  1.0000
  H   H970      1.0  0.23228  0.57281  0.74687  1.0000
  C   C563      1.0  0.31906  0.64680  0.79551  1.0000
  C   C564      1.0  0.26680  0.63379  0.82996  1.0000
  C   C565      1.0  0.15060  0.56965  0.73295  1.0000
  H   H971      1.0  0.29482  0.76959  0.84392  1.0000
  H   H972      1.0  0.16698  0.57411  0.77839  1.0000
  C   C566      1.0  0.01687  0.58707  0.91263  1.0000
  C   C567      1.0  0.21226  0.62739  0.74237  1.0000
  S   S150      1.0  0.00781  0.54976  0.89889  1.0000
  C   C568      1.0  0.32802  0.92105  0.94192  1.0000
  C   C569      1.0  0.27312  0.62006  0.85493  1.0000
  H   H973      1.0  0.27090  0.63905  0.85781  1.0000
  H   H974      1.0  0.22546  0.70310  0.73337  1.0000
  H   H975      1.0  0.27328  0.59928  0.87614  1.0000
  H   H976      1.0  0.20613  0.54524  0.72868  1.0000
  H   H977      1.0  0.17772  0.51516  0.96276  1.0000
  H   H978      1.0  0.30803  0.88940  0.96091  1.0000
  C   C570      1.0  0.20480  0.56012  0.73561  1.0000
  H   H979      1.0  0.13693  0.55615  0.87155  1.0000
  H   H980      1.0  0.31964  0.95740  0.94986  1.0000
  H   H981      1.0  0.31461  0.83644  0.83821  1.0000
  C   C571      1.0  0.25185  0.67203  0.72893  1.0000
  H   H982      1.0  0.02425  0.53149  0.95549  1.0000
  C   C572      1.0  0.31026  0.68971  0.79982  1.0000
  H   H983      1.0  0.24088  0.54231  0.74178  1.0000
  H   H984      1.0  0.25131  0.66542  0.84181  1.0000
  C   C573      1.0  0.28688  0.60391  0.86673  1.0000
  H   H985      1.0  0.31707  0.90951  0.93737  1.0000
  H   H986      1.0  0.07167  0.57862  0.87800  1.0000
  H   H987      1.0  0.05361  0.60668  0.88352  1.0000
  H   H988      1.0  0.16545  0.51758  0.84853  1.0000
  C   C574      1.0  0.30829  0.79305  0.85610  1.0000
  H   H989      1.0  0.14392  0.58699  0.73768  1.0000
  H   H990      1.0  0.23688  0.51071  0.79610  1.0000
  H   H991      1.0  0.12658  0.62115  0.89718  1.0000
  C   C575      1.0  0.26792  0.57907  0.83812  1.0000
  H   H992      1.0  0.24214  0.56831  0.72853  1.0000
  C   C576      1.0  0.20948  0.62599  0.72801  1.0000
  H   H993      1.0  0.24877  0.62683  0.83207  1.0000
  C   C577      1.0  0.23138  0.56098  0.73856  1.0000
  S   S151      1.0  0.16069  0.50637  0.93488  1.0000
  H   H994      1.0  0.30779  0.82025  0.81693  1.0000
  H   H995      1.0  0.27364  0.63177  0.81850  1.0000
  C   C578      1.0  0.18691  0.53103  0.96353  1.0000
  H   H996      1.0  0.29636  0.79656  0.80289  1.0000
  H   H997      1.0  0.05149  0.57980  0.95347  1.0000
  H   H998      1.0  0.25951  0.57749  0.84947  1.0000
  H   H999      1.0  0.11249  0.56852  0.86111  1.0000
  H   H1000     1.0  0.24817  0.67006  0.82313  1.0000
  C   C579      1.0  0.31664  0.77110  0.81867  1.0000
  H   H1001     1.0  0.08323  0.50691  0.91533  1.0000
  C   C580      1.0  0.32503  0.81176  0.82146  1.0000
  H   H1002     1.0  0.20874  0.52112  0.75293  1.0000
  C   C581      1.0  0.32256  0.89646  0.96549  1.0000
  H   H1003     1.0  0.24774  0.66233  0.73989  1.0000
  N   N42       1.0  0.01459  0.58082  0.96475  1.0000
  H   H1004     1.0  0.15567  0.66449  0.72529  1.0000
  H   H1005     1.0  0.19013  0.50888  0.77754  1.0000
  H   H1006     1.0  0.32766  0.95548  0.89294  1.0000
  H   H1007     1.0  0.14733  0.50905  0.87353  1.0000
  H   H1008     1.0  0.16251  0.57345  0.72269  1.0000
  C   C582      1.0  0.33061  0.83093  0.83032  1.0000
  H   H1009     1.0  0.05638  0.62217  0.96143  1.0000
  H   H1010     1.0  0.32395  0.80426  0.73736  1.0000
  H   H1011     1.0  0.01370  0.54218  0.93851  1.0000
  H   H1012     1.0  0.16957  0.51025  0.76451  1.0000
  H   H1013     1.0  0.18283  0.71484  0.72926  1.0000
  H   H1014     1.0  0.17972  0.50605  0.87209  1.0000
  C   C583      1.0  0.18904  0.63922  0.72179  1.0000
  H   H1015     1.0  0.33228  0.76847  0.81003  1.0000
  C   C584      1.0  0.09887  0.49585  0.91982  1.0000
  H   H1016     1.0  0.22313  0.61439  0.72172  1.0000
  H   H1017     1.0  0.25720  0.65775  0.72165  1.0000
  C   C585      1.0  0.16641  0.49809  0.85336  1.0000
  H   H1018     1.0  0.33098  0.60503  0.85137  1.0000
  C   C586      1.0  0.16440  0.49696  0.86984  1.0000
  C   C587      1.0  0.33228  0.61476  0.84036  1.0000
  H   H1019     1.0  0.33280  0.74477  0.84904  1.0000
  C   C588      1.0  0.41308  0.31492  0.15672  1.0000
  Fe  Fe78      1.0  0.60118  0.20818  0.17267  1.0000
  S   S152      1.0  0.61216  0.16831  0.17052  1.0000
  S   S153      1.0  0.56193  0.21772  0.18357  1.0000
  Fe  Fe79      1.0  0.64699  0.17203  0.17919  1.0000
  Fe  Fe80      1.0  0.63035  0.18066  0.14859  1.0000
  H   H1020     1.0  0.45117  0.31972  0.14786  1.0000
  S   S154      1.0  0.63531  0.21138  0.18271  1.0000
  S   S155      1.0  0.61780  0.22082  0.15030  1.0000
  C   C589      1.0  0.64859  0.06263  0.09414  1.0000
  S   S156      1.0  0.60783  0.07002  0.03880  1.0000
  C   C590      1.0  0.44984  0.27451  0.17175  1.0000
  Fe  Fe81      1.0  0.64506  0.10437  0.05913  1.0000
  S   S157      1.0  0.60722  0.09583  0.06801  1.0000
  H   H1021     1.0  0.45299  0.29386  0.17070  1.0000
  Fe  Fe82      1.0  0.62036  0.05909  0.06044  1.0000
  Fe  Fe83      1.0  0.59828  0.10755  0.04553  1.0000
  S   S158      1.0  0.56190  0.12776  0.04011  1.0000
  S   S159      1.0  0.63496  0.11943  0.03692  1.0000
  Fe  Fe84      1.0  0.42795  0.20290  0.16410  1.0000
  S   S160      1.0  0.42420  0.16297  0.16938  1.0000
  S   S161      1.0  0.46488  0.21532  0.15453  1.0000
  Fe  Fe85      1.0  0.37169  0.21901  0.17076  1.0000
  S   S162      1.0  0.36454  0.17985  0.17603  1.0000
  H   H1022     1.0  0.55749  0.16271  0.00489  1.0000
  Fe  Fe86      1.0  0.39718  0.17397  0.18825  1.0000
  S   S163      1.0  0.39816  0.15831  0.21171  1.0000
  Fe  Fe87      1.0  0.39186  0.17216  0.15657  1.0000
  S   S164      1.0  0.38646  0.14359  0.14263  1.0000
  S   S165      1.0  0.40344  0.21338  0.18389  1.0000
  S   S166      1.0  0.39667  0.21186  0.15028  1.0000
  Fe  Fe88      1.0  0.41428  0.10425  0.03106  1.0000
  S   S167      1.0  0.42582  0.06442  0.03765  1.0000
  S   S168      1.0  0.42248  0.11977  0.00774  1.0000
  Fe  Fe89      1.0  0.40003  0.11535  0.06258  1.0000
  S   S169      1.0  0.41054  0.07601  0.07147  1.0000
  S   S170      1.0  0.39142  0.14900  0.07459  1.0000
  Fe  Fe90      1.0  0.44350  0.07648  0.05473  1.0000
  S   S171      1.0  0.48109  0.05783  0.05960  1.0000
  Fe  Fe91      1.0  0.39180  0.06740  0.05356  1.0000
  S   S172      1.0  0.36846  0.03731  0.05541  1.0000
  S   S173      1.0  0.43442  0.11641  0.04712  1.0000
  S   S174      1.0  0.37856  0.10673  0.04574  1.0000
  C   C591      1.0  0.38719  0.14589  0.12372  1.0000
  C   C592      1.0  0.38588  0.12471  0.11747  1.0000
  C   C593      1.0  0.38717  0.12536  0.10246  1.0000
  C   C594      1.0  0.38937  0.14736  0.09355  1.0000
  C   C595      1.0  0.39033  0.16864  0.09978  1.0000
  C   C596      1.0  0.38945  0.16789  0.11479  1.0000
  H   H1023     1.0  0.38404  0.10763  0.12430  1.0000
  H   H1024     1.0  0.38626  0.10888  0.09784  1.0000
  H   H1025     1.0  0.39194  0.18577  0.09298  1.0000
  H   H1026     1.0  0.39039  0.18432  0.11946  1.0000
  H   H1027     1.0  0.66071  0.01319  0.06404  1.0000
  C   C597      1.0  0.41765  0.01593  0.00094  1.0000
  C   C598      1.0  0.62662  0.99804  0.06890  1.0000
  H   H1028     1.0  0.42572  0.25188  0.16584  1.0000
  C   C599      1.0  0.39837  0.08233  0.97285  1.0000
  H   H1029     1.0  0.43076  0.19042  0.03235  1.0000
  H   H1030     1.0  0.35916  0.13381  0.20470  1.0000
  S   S175      1.0  0.60876  0.02523  0.07381  1.0000
  H   H1031     1.0  0.41870  0.32344  0.16549  1.0000
  C   C600      1.0  0.39335  0.09181  0.99762  1.0000
  C   C601      1.0  0.41349  0.10472  0.99450  1.0000
  H   H1032     1.0  0.38330  0.09070  0.00829  1.0000
  C   C602      1.0  0.53972  0.10810  0.04550  1.0000
  C   C603      1.0  0.54514  0.08593  0.05425  1.0000
  C   C604      1.0  0.52723  0.07026  0.05839  1.0000
  C   C605      1.0  0.50397  0.07665  0.05367  1.0000
  C   C606      1.0  0.49899  0.09835  0.04454  1.0000
  C   C607      1.0  0.51656  0.11436  0.04075  1.0000
  H   H1033     1.0  0.56289  0.08107  0.05814  1.0000
  H   H1034     1.0  0.53130  0.05343  0.06542  1.0000
  H   H1035     1.0  0.48191  0.10257  0.04003  1.0000
  H   H1036     1.0  0.51232  0.13137  0.03391  1.0000
  C   C608      1.0  0.64211  0.02319  0.10747  1.0000
  H   H1037     1.0  0.52412  0.09970  0.98789  1.0000
  C   C609      1.0  0.49192  0.21347  0.16309  1.0000
  C   C610      1.0  0.51474  0.21451  0.15452  1.0000
  C   C611      1.0  0.53641  0.21487  0.16070  1.0000
  C   C612      1.0  0.53544  0.21494  0.17552  1.0000
  C   C613      1.0  0.51262  0.21387  0.18412  1.0000
  C   C614      1.0  0.49104  0.21281  0.17798  1.0000
  H   H1038     1.0  0.51567  0.21514  0.14300  1.0000
  H   H1039     1.0  0.55376  0.21575  0.15392  1.0000
  H   H1040     1.0  0.51160  0.21400  0.19559  1.0000
  H   H1041     1.0  0.47363  0.21217  0.18472  1.0000
  H   H1042     1.0  0.56691  0.07364  0.97168  1.0000
  C   C615      1.0  0.61848  0.14954  0.10389  1.0000
  C   C616      1.0  0.62892  0.13976  0.09114  1.0000
  C   C617      1.0  0.58344  0.06293  0.00554  1.0000
  H   H1043     1.0  0.59870  0.15443  0.10589  1.0000
  H   H1044     1.0  0.61720  0.13736  0.08339  1.0000
  C   C618      1.0  0.57727  0.09115  0.00480  1.0000
  C   C619      1.0  0.38558  0.08111  0.98677  1.0000
  H   H1045     1.0  0.60783  0.13179  0.19597  1.0000
  N   N43       1.0  0.40776  0.28927  0.16227  1.0000
  H   H1046     1.0  0.39604  0.32677  0.15352  1.0000
  H   H1047     1.0  0.43726  0.30278  0.13702  1.0000
  N   N44       1.0  0.46788  0.13003  0.09319  1.0000
  C   C620      1.0  0.45367  0.13157  0.10795  1.0000
  C   C621      1.0  0.45989  0.10924  0.08715  1.0000
  C   C622      1.0  0.46049  0.15379  0.08400  1.0000
  C   C623      1.0  0.49507  0.12628  0.09467  1.0000
  C   C624      1.0  0.45616  0.15374  0.11551  1.0000
  C   C625      1.0  0.46364  0.08398  0.09625  1.0000
  C   C626      1.0  0.47177  0.15599  0.06814  1.0000
  C   C627      1.0  0.51281  0.11463  0.08256  1.0000
  H   H1048     1.0  0.43373  0.13188  0.10751  1.0000
  H   H1049     1.0  0.45921  0.11503  0.11550  1.0000
  H   H1050     1.0  0.46930  0.10665  0.07626  1.0000
  H   H1051     1.0  0.43995  0.11348  0.08570  1.0000
  H   H1052     1.0  0.44008  0.15735  0.08413  1.0000
  H   H1053     1.0  0.46563  0.16958  0.08833  1.0000
  H   H1054     1.0  0.50113  0.14399  0.09581  1.0000
  H   H1055     1.0  0.49872  0.11404  0.10475  1.0000
  H   H1056     1.0  0.44744  0.15094  0.12683  1.0000
  H   H1057     1.0  0.47563  0.15587  0.11580  1.0000
  H   H1058     1.0  0.44602  0.17098  0.11056  1.0000
  H   H1059     1.0  0.46081  0.06964  0.08982  1.0000
  H   H1060     1.0  0.48247  0.07925  0.09943  1.0000
  H   H1061     1.0  0.44979  0.08304  0.10592  1.0000
  H   H1062     1.0  0.49182  0.15691  0.06706  1.0000
  H   H1063     1.0  0.46322  0.17354  0.06256  1.0000
  H   H1064     1.0  0.46804  0.14130  0.06235  1.0000
  H   H1065     1.0  0.52997  0.12322  0.08067  1.0000
  H   H1066     1.0  0.50570  0.11684  0.07211  1.0000
  H   H1067     1.0  0.51872  0.09485  0.08587  1.0000
  H   H1068     1.0  0.40814  0.29405  0.18462  1.0000
  H   H1069     1.0  0.39209  0.26999  0.18216  1.0000
  H   H1070     1.0  0.50935  0.10261  0.01289  1.0000
  H   H1071     1.0  0.55263  0.18557  0.21026  1.0000
  C   C628      1.0  0.43370  0.31760  0.14398  1.0000
  C   C629      1.0  0.63335  0.15316  0.11403  1.0000
  H   H1072     1.0  0.44438  0.26793  0.18320  1.0000
  H   H1073     1.0  0.46778  0.26341  0.16850  1.0000
  H   H1074     1.0  0.33844  0.18019  0.20568  1.0000
  C   C630      1.0  0.43070  0.27054  0.16225  1.0000
  H   H1075     1.0  0.42859  0.33488  0.13694  1.0000
  H   H1076     1.0  0.54831  0.15556  0.21781  1.0000
  S   S176      1.0  0.61870  0.16523  0.12990  1.0000
  C   C631      1.0  0.39573  0.28889  0.17764  1.0000
  H   H1077     1.0  0.44062  0.26912  0.15136  1.0000
  H   H1078     1.0  0.59717  0.07560  0.97670  1.0000
  H   H1079     1.0  0.57104  0.09505  0.01607  1.0000
  C   C632      1.0  0.54812  0.12852  0.00004  1.0000
  H   H1080     1.0  0.43210  0.01151  0.99192  1.0000
  H   H1081     1.0  0.65320  0.01894  0.00085  1.0000
  H   H1082     1.0  0.65407  0.18408  0.21226  1.0000
  C   C633      1.0  0.62874  0.00689  0.11965  1.0000
  C   C634      1.0  0.37125  0.30627  0.18017  1.0000
  H   H1083     1.0  0.58279  0.13861  0.00522  1.0000
  H   H1084     1.0  0.63965  0.11631  0.00270  1.0000
  Fe  Fe92      1.0  0.65306  0.22021  0.15998  1.0000
  H   H1085     1.0  0.64360  0.01977  0.02480  1.0000
  H   H1086     1.0  0.40095  0.29648  0.13146  1.0000
  H   H1087     1.0  0.60917  0.00740  0.11808  1.0000
  H   H1088     1.0  0.54285  0.07169  0.99184  1.0000
  H   H1089     1.0  0.37275  0.29501  0.15365  1.0000
  H   H1090     1.0  0.62062  0.21993  0.11864  1.0000
  C   C635      1.0  0.37576  0.16566  0.01910  1.0000
  C   C636      1.0  0.39865  0.27858  0.13789  1.0000
  C   C637      1.0  0.56675  0.14668  0.99944  1.0000
  H   H1091     1.0  0.41152  0.03588  0.99813  1.0000
  C   C638      1.0  0.65182  0.99719  0.06425  1.0000
  C   C639      1.0  0.38793  0.00921  0.05627  1.0000
  C   C640      1.0  0.63547  0.11857  0.98017  1.0000
  C   C641      1.0  0.65709  0.06957  0.98222  1.0000
  H   H1092     1.0  0.62736  0.13766  0.97937  1.0000
  C   C642      1.0  0.66222  0.16819  0.21883  1.0000
  H   H1093     1.0  0.59592  0.21060  0.20665  1.0000
  H   H1094     1.0  0.57700  0.13199  0.20464  1.0000
  C   C643      1.0  0.52032  0.00709  0.03822  1.0000
  H   H1095     1.0  0.53306  0.13794  0.99371  1.0000
  C   C644      1.0  0.63620  0.22634  0.11111  1.0000
  H   H1096     1.0  0.37805  0.02945  0.98710  1.0000
  C   C645      1.0  0.63850  0.00098  0.02588  1.0000
  C   C646      1.0  0.53704  0.08993  0.99555  1.0000
  H   H1097     1.0  0.59192  0.17345  0.20059  1.0000
  H   H1098     1.0  0.36935  0.07210  0.98913  1.0000
  C   C647      1.0  0.41226  0.00830  0.05890  1.0000
  H   H1099     1.0  0.41554  0.26508  0.13637  1.0000
  H   H1100     1.0  0.34652  0.17040  0.00498  1.0000
  H   H1101     1.0  0.38858  0.17088  0.00936  1.0000
  C   C648      1.0  0.59586  0.13444  0.20623  1.0000
  H   H1102     1.0  0.38412  0.27138  0.13341  1.0000
  C   C649      1.0  0.38986  0.28153  0.15377  1.0000
  C   C650      1.0  0.58549  0.21306  0.21731  1.0000
  N   N45       1.0  0.36932  0.18628  0.02838  1.0000
  N   N46       1.0  0.39692  0.00107  0.00157  1.0000
  H   H1103     1.0  0.60329  0.11978  0.21432  1.0000
  H   H1104     1.0  0.41186  0.17128  0.04412  1.0000
  H   H1105     1.0  0.36175  0.20294  0.21386  1.0000
  H   H1106     1.0  0.57905  0.05484  0.99641  1.0000
  H   H1107     1.0  0.63160  0.05273  0.13081  1.0000
  H   H1108     1.0  0.63807  0.01819  0.09714  1.0000
  H   H1109     1.0  0.41863  0.02453  0.06121  1.0000
  H   H1110     1.0  0.60360  0.05771  0.00596  1.0000
  H   H1111     1.0  0.61645  0.16178  0.21056  1.0000
  H   H1112     1.0  0.38071  0.04346  0.01656  1.0000
  H   H1113     1.0  0.51046  0.00627  0.02895  1.0000
  C   C651      1.0  0.35868  0.13189  0.21625  1.0000
  H   H1114     1.0  0.58567  0.11906  0.97903  1.0000
  H   H1115     1.0  0.60221  0.05140  0.09887  1.0000
  C   C652      1.0  0.43138  0.01270  0.01431  1.0000
  H   H1116     1.0  0.41932  0.01075  0.02461  1.0000
  C   C653      1.0  0.41517  0.17988  0.03287  1.0000
  C   C654      1.0  0.36649  0.03189  0.01583  1.0000
  C   C655      1.0  0.38431  0.00936  0.98821  1.0000
  H   H1117     1.0  0.50957  0.07165  0.01008  1.0000
  H   H1118     1.0  0.63462  0.22065  0.10058  1.0000
  H   H1119     1.0  0.38403  0.26377  0.15895  1.0000
  N   N47       1.0  0.63615  0.05059  0.10791  1.0000
  H   H1120     1.0  0.60628  0.09671  0.09954  1.0000
  C   C656      1.0  0.65891  0.14673  0.11134  1.0000
  H   H1121     1.0  0.37303  0.32561  0.17599  1.0000
  H   H1122     1.0  0.37416  0.16049  0.04738  1.0000
  H   H1123     1.0  0.44151  0.11662  0.97797  1.0000
  H   H1124     1.0  0.66608  0.05082  0.98281  1.0000
  H   H1125     1.0  0.65833  0.28706  0.16281  1.0000
  H   H1126     1.0  0.53967  0.12631  0.01142  1.0000
  H   H1127     1.0  0.64449  0.08922  0.13184  1.0000
  H   H1128     1.0  0.64482  0.08285  0.09326  1.0000
  H   H1129     1.0  0.55653  0.12002  0.97306  1.0000
  C   C657      1.0  0.35440  0.15673  0.01344  1.0000
  H   H1130     1.0  0.63000  0.01184  0.13042  1.0000
  H   H1131     1.0  0.42140  0.16551  0.02561  1.0000
  C   C658      1.0  0.59686  0.16027  0.21007  1.0000
  H   H1132     1.0  0.60107  0.01862  0.03131  1.0000
  C   C659      1.0  0.65430  0.99884  0.00053  1.0000
  C   C660      1.0  0.64238  0.10650  0.99339  1.0000
  H   H1133     1.0  0.36734  0.00065  0.98884  1.0000
  H   H1134     1.0  0.35610  0.30044  0.17560  1.0000
  N   N48       1.0  0.55845  0.10385  0.99511  1.0000
  H   H1135     1.0  0.38922  0.21211  0.03554  1.0000
  S   S177      1.0  0.34072  0.24853  0.17839  1.0000
  H   H1136     1.0  0.36542  0.30559  0.19191  1.0000
  H   H1137     1.0  0.39808  0.20682  0.01731  1.0000
  S   S178      1.0  0.66219  0.06608  0.01082  1.0000
  C   C661      1.0  0.42602  0.10648  0.98049  1.0000
  C   C662      1.0  0.57006  0.10849  0.97978  1.0000
  H   H1138     1.0  0.51696  0.02656  0.04035  1.0000
  C   C663      1.0  0.65319  0.08191  0.99446  1.0000
  C   C664      1.0  0.58066  0.08585  0.97210  1.0000
  C   C665      1.0  0.52171  0.08563  0.01033  1.0000
  H   H1139     1.0  0.59488  0.09881  0.00178  1.0000
  H   H1140     1.0  0.60003  0.09095  0.11900  1.0000
  H   H1141     1.0  0.59879  0.04783  0.11797  1.0000
  H   H1142     1.0  0.43955  0.02961  0.01450  1.0000
  H   H1143     1.0  0.57439  0.05407  0.01572  1.0000
  H   H1144     1.0  0.54047  0.00238  0.03540  1.0000
  C   C666      1.0  0.64497  0.05680  0.12116  1.0000
  S   S179      1.0  0.66374  0.14215  0.19557  1.0000
  H   H1145     1.0  0.53336  0.07891  0.01907  1.0000
  C   C667      1.0  0.39242  0.19761  0.02825  1.0000
  Fe  Fe93      1.0  0.64521  0.08065  0.03164  1.0000
  H   H1146     1.0  0.63999  0.09733  0.11358  1.0000
  C   C668      1.0  0.65002  0.08345  0.12094  1.0000
  H   H1147     1.0  0.63354  0.24662  0.11046  1.0000
  C   C669      1.0  0.33536  0.16846  0.04717  1.0000
  H   H1148     1.0  0.36177  0.13986  0.00829  1.0000
  H   H1149     1.0  0.35528  0.04003  0.00708  1.0000
  C   C670      1.0  0.65442  0.13341  0.08839  1.0000
  C   C671      1.0  0.60858  0.05740  0.10829  1.0000
  H   H1150     1.0  0.33956  0.26957  0.14809  1.0000
  H   H1151     1.0  0.64096  0.05796  0.08477  1.0000
  C   C672      1.0  0.59814  0.08469  0.10865  1.0000
  C   C673      1.0  0.37771  0.00505  0.01431  1.0000
  H   H1152     1.0  0.57807  0.08713  0.10779  1.0000
  H   H1153     1.0  0.57312  0.15393  0.98826  1.0000
  H   H1154     1.0  0.38594  0.14931  0.02493  1.0000
  S   S180      1.0  0.65894  0.06637  0.05297  1.0000
  H   H1155     1.0  0.60678  0.01070  0.01334  1.0000
  S   S181      1.0  0.66638  0.18048  0.15692  1.0000
  H   H1156     1.0  0.35791  0.21314  0.01090  1.0000
  H   H1157     1.0  0.35381  0.03239  0.02601  1.0000
  H   H1158     1.0  0.65990  0.19464  0.11906  1.0000
  C   C674      1.0  0.66063  0.21467  0.11690  1.0000
  H   H1159     1.0  0.44646  0.99696  0.01401  1.0000
  H   H1160     1.0  0.65622  0.42318  0.15776  1.0000
  H   H1161     1.0  0.41575  0.01479  0.97145  1.0000
  H   H1162     1.0  0.66039  0.22034  0.12771  1.0000
  H   H1163     1.0  0.49024  0.99701  0.05391  1.0000
  C   C675      1.0  0.61069  0.00443  0.02451  1.0000
  H   H1164     1.0  0.66214  0.01690  0.10786  1.0000
  H   H1165     1.0  0.66262  0.04490  0.12322  1.0000
  H   H1166     1.0  0.33649  0.14856  0.04647  1.0000
  H   H1167     1.0  0.36227  0.19001  0.05128  1.0000
  C   C676      1.0  0.36109  0.17670  0.04373  1.0000
  C   C677      1.0  0.34203  0.22811  0.03053  1.0000
  H   H1168     1.0  0.56586  0.21968  0.21605  1.0000
  C   C678      1.0  0.39995  0.00428  0.97381  1.0000
  H   H1169     1.0  0.66611  0.25872  0.12320  1.0000
  C   C679      1.0  0.35056  0.20598  0.02200  1.0000
  H   H1170     1.0  0.35692  0.23940  0.03026  1.0000
  H   H1171     1.0  0.51804  0.99674  0.06085  1.0000
  H   H1172     1.0  0.33968  0.15187  0.02200  1.0000
  H   H1173     1.0  0.38501  0.99780  0.02457  1.0000
  H   H1174     1.0  0.33472  0.22246  0.04181  1.0000
  H   H1175     1.0  0.33363  0.19879  0.02059  1.0000
  H   H1176     1.0  0.63725  0.99648  0.99623  1.0000
  C   C680      1.0  0.55444  0.17248  0.22021  1.0000
  C   C681      1.0  0.37521  0.13892  0.23737  1.0000
  S   S182      1.0  0.63974  0.06027  0.40305  1.0000
  H   H1177     1.0  0.54533  0.00164  0.38010  1.0000
  Fe  Fe94      1.0  0.61852  0.08856  0.43854  1.0000
  S   S183      1.0  0.61288  0.05061  0.43573  1.0000
  S   S184      1.0  0.60056  0.09975  0.46014  1.0000
  Fe  Fe95      1.0  0.65149  0.04740  0.42478  1.0000
  H   H1178     1.0  0.51626  0.11265  0.43409  1.0000
  Fe  Fe96      1.0  0.60170  0.06713  0.41438  1.0000
  S   S185      1.0  0.57220  0.05278  0.40533  1.0000
  C   C682      1.0  0.34812  0.15455  0.32698  1.0000
  S   S186      1.0  0.60439  0.10564  0.41765  1.0000
  H   H1179     1.0  0.36015  0.13167  0.34662  1.0000
  H   H1180     1.0  0.38850  0.14647  0.24216  1.0000
  Fe  Fe97      1.0  0.44835  0.09260  0.39867  1.0000
  S   S187      1.0  0.41085  0.09425  0.41155  1.0000
  S   S188      1.0  0.47330  0.12149  0.39559  1.0000
  Fe  Fe98      1.0  0.45090  0.03966  0.39428  1.0000
  S   S189      1.0  0.41374  0.03675  0.40673  1.0000
  H   H1181     1.0  0.47981  0.06298  0.43905  1.0000
  Fe  Fe99      1.0  0.40240  0.07333  0.39430  1.0000
  S   S190      1.0  0.36643  0.07733  0.38455  1.0000
  Fe  Fe100     1.0  0.42566  0.05740  0.42274  1.0000
  S   S191      1.0  0.42884  0.04042  0.44591  1.0000
  S   S192      1.0  0.43899  0.07466  0.38077  1.0000
  S   S193      1.0  0.46353  0.05745  0.41094  1.0000
  H   H1182     1.0  0.35386  0.01774  0.34874  1.0000
  C   C683      1.0  0.58889  0.18942  0.22790  1.0000
  C   C684      1.0  0.36565  0.07913  0.36578  1.0000
  H   H1183     1.0  0.40014  0.08741  0.45234  1.0000
  C   C685      1.0  0.62215  0.04933  0.36803  1.0000
  H   H1184     1.0  0.60494  0.12320  0.35736  1.0000
  H   H1185     1.0  0.33578  0.02472  0.27026  1.0000
  H   H1186     1.0  0.35720  0.12419  0.25781  1.0000
  H   H1187     1.0  0.53888  0.20029  0.23488  1.0000
  C   C686      1.0  0.53825  0.99573  0.40343  1.0000
  H   H1188     1.0  0.35107  0.01969  0.36756  1.0000
  C   C687      1.0  0.60902  0.13820  0.24009  1.0000
  H   H1189     1.0  0.44449  0.13398  0.43509  1.0000
  H   H1190     1.0  0.37711  0.00720  0.43439  1.0000
  H   H1191     1.0  0.40147  0.08656  0.33356  1.0000
  H   H1192     1.0  0.54856  0.11302  0.44820  1.0000
  C   C688      1.0  0.34041  0.11628  0.24017  1.0000
  C   C689      1.0  0.54691  0.07413  0.40065  1.0000
  C   C690      1.0  0.53009  0.06690  0.39297  1.0000
  C   C691      1.0  0.50825  0.08240  0.39047  1.0000
  C   C692      1.0  0.50306  0.10516  0.39569  1.0000
  C   C693      1.0  0.52061  0.11317  0.40253  1.0000
  C   C694      1.0  0.54253  0.09755  0.40509  1.0000
  H   H1193     1.0  0.53352  0.04901  0.38929  1.0000
  H   H1194     1.0  0.49496  0.07634  0.38492  1.0000
  H   H1195     1.0  0.51665  0.13083  0.40653  1.0000
  H   H1196     1.0  0.55547  0.10326  0.41101  1.0000
  C   C695      1.0  0.56836  0.09776  0.35586  1.0000
  C   C696      1.0  0.34338  0.07781  0.36059  1.0000
  C   C697      1.0  0.38664  0.08188  0.35593  1.0000
  H   H1197     1.0  0.49473  0.08455  0.42654  1.0000
  H   H1198     1.0  0.62018  0.03206  0.37531  1.0000
  C   C698      1.0  0.36289  0.08299  0.33587  1.0000
  H   H1199     1.0  0.60231  0.07080  0.33640  1.0000
  C   C699      1.0  0.38523  0.08388  0.34108  1.0000
  C   C700      1.0  0.58284  0.14689  0.23576  1.0000
  S   S194      1.0  0.36177  0.08787  0.31705  1.0000
  H   H1200     1.0  0.60882  0.18570  0.22934  1.0000
  Fe  Fe101     1.0  0.64383  0.09759  0.40757  1.0000
  C   C701      1.0  0.35748  0.12633  0.24626  1.0000
  H   H1201     1.0  0.61337  0.14961  0.24787  1.0000
  H   H1202     1.0  0.62857  0.07754  0.34240  1.0000
  H   H1203     1.0  0.57093  0.00449  0.38870  1.0000
  H   H1204     1.0  0.38712  0.01151  0.45766  1.0000
  N   N49       1.0  0.49187  0.09118  0.44880  1.0000
  C   C702      1.0  0.46133  0.12033  0.43361  1.0000
  H   H1205     1.0  0.49745  0.00759  0.42222  1.0000
  H   H1206     1.0  0.62359  0.13840  0.23084  1.0000
  H   H1207     1.0  0.44299  0.00102  0.35849  1.0000
  H   H1208     1.0  0.60744  0.12024  0.38295  1.0000
  H   H1209     1.0  0.54020  0.99883  0.43123  1.0000
  C   C703      1.0  0.42684  0.01540  0.36007  1.0000
  H   H1210     1.0  0.36148  0.02832  0.25691  1.0000
  H   H1211     1.0  0.45739  0.10782  0.42635  1.0000
  C   C704      1.0  0.34207  0.07936  0.34572  1.0000
  H   H1212     1.0  0.66629  0.03202  0.45754  1.0000
  C   C705      1.0  0.59631  0.06219  0.36491  1.0000
  H   H1213     1.0  0.57930  0.19360  0.23859  1.0000
  C   C706      1.0  0.55462  0.08625  0.34605  1.0000
  C   C707      1.0  0.53530  0.10003  0.45266  1.0000
  H   H1214     1.0  0.65316  0.08826  0.46216  1.0000
  H   H1215     1.0  0.33609  0.02144  0.23790  1.0000
  H   H1216     1.0  0.59223  0.12216  0.33286  1.0000
  H   H1217     1.0  0.53548  0.06593  0.43239  1.0000
  H   H1218     1.0  0.47658  0.13038  0.42834  1.0000
  H   H1219     1.0  0.58444  0.06279  0.37536  1.0000
  H   H1220     1.0  0.62528  0.11775  0.33220  1.0000
  H   H1221     1.0  0.43418  0.03203  0.36187  1.0000
  S   S195      1.0  0.47396  0.00678  0.38563  1.0000
  C   C708      1.0  0.49195  0.07609  0.46333  1.0000
  H   H1222     1.0  0.63393  0.04417  0.35815  1.0000
  H   H1223     1.0  0.33514  0.17426  0.30016  1.0000
  H   H1224     1.0  0.36555  0.00092  0.38763  1.0000
  H   H1225     1.0  0.62725  0.09877  0.36265  1.0000
  C   C709      1.0  0.60880  0.08484  0.34166  1.0000
  H   H1226     1.0  0.57744  0.11504  0.38043  1.0000
  C   C710      1.0  0.60911  0.10880  0.33122  1.0000
  H   H1227     1.0  0.57477  0.13072  0.23383  1.0000
  H   H1228     1.0  0.66545  0.14928  0.36047  1.0000
  H   H1229     1.0  0.45615  0.00480  0.41541  1.0000
  H   H1230     1.0  0.61036  0.10451  0.32002  1.0000
  C   C711      1.0  0.36448  0.14812  0.33928  1.0000
  H   H1231     1.0  0.49841  0.00322  0.44116  1.0000
  N   N50       1.0  0.59514  0.08732  0.35642  1.0000
  N   N51       1.0  0.58077  0.16726  0.22351  1.0000
  H   H1232     1.0  0.59279  0.22783  0.22144  1.0000
  H   H1233     1.0  0.56178  0.09027  0.33456  1.0000
  H   H1234     1.0  0.39580  0.02448  0.37595  1.0000
  H   H1235     1.0  0.53487  0.09439  0.34727  1.0000
  C   C712      1.0  0.59722  0.10727  0.37912  1.0000
  H   H1236     1.0  0.36346  0.16372  0.34554  1.0000
  S   S196      1.0  0.65837  0.08430  0.42892  1.0000
  H   H1237     1.0  0.53344  0.16926  0.24188  1.0000
  H   H1238     1.0  0.38399  0.14380  0.33457  1.0000
  C   C713      1.0  0.51107  0.10838  0.44586  1.0000
  H   H1239     1.0  0.61044  0.11876  0.24499  1.0000
  C   C714      1.0  0.46665  0.10615  0.44830  1.0000
  S   S197      1.0  0.66032  0.12321  0.38904  1.0000
  H   H1240     1.0  0.55781  0.09567  0.36678  1.0000
  H   H1241     1.0  0.60024  0.08975  0.38620  1.0000
  H   H1242     1.0  0.58340  0.99753  0.41226  1.0000
  C   C715      1.0  0.49528  0.07409  0.43742  1.0000
  H   H1243     1.0  0.53245  0.10049  0.46444  1.0000
  H   H1244     1.0  0.56598  0.11792  0.35256  1.0000
  H   H1245     1.0  0.62695  0.04500  0.46480  1.0000
  H   H1246     1.0  0.50354  0.12652  0.44959  1.0000
  C   C716      1.0  0.34426  0.01989  0.25957  1.0000
  C   C717      1.0  0.51945  0.05615  0.43628  1.0000
  C   C718      1.0  0.42272  0.05554  0.46153  1.0000
  H   H1247     1.0  0.61564  0.01570  0.46731  1.0000
  H   H1248     1.0  0.57151  0.15273  0.24566  1.0000
  H   H1249     1.0  0.54451  0.08162  0.45040  1.0000
  C   C719      1.0  0.40798  0.07836  0.46187  1.0000
  H   H1250     1.0  0.54172  0.01267  0.40735  1.0000
  C   C720      1.0  0.60707  0.10441  0.36333  1.0000
  H   H1251     1.0  0.34980  0.99973  0.26013  1.0000
  H   H1252     1.0  0.40389  0.08296  0.35971  1.0000
  H   H1253     1.0  0.55528  0.06619  0.34901  1.0000
  H   H1254     1.0  0.35218  0.13927  0.32018  1.0000
  H   H1255     1.0  0.52231  0.04404  0.44640  1.0000
  H   H1256     1.0  0.63171  0.06047  0.37360  1.0000
  H   H1257     1.0  0.37552  0.03218  0.35543  1.0000
  H   H1258     1.0  0.58866  0.04944  0.35927  1.0000
  H   H1259     1.0  0.45203  0.09423  0.45174  1.0000
  H   H1260     1.0  0.42033  0.00339  0.38243  1.0000
  H   H1261     1.0  0.34157  0.20244  0.33066  1.0000
  C   C721      1.0  0.53514  0.18266  0.23210  1.0000
  H   H1262     1.0  0.35537  0.17016  0.32003  1.0000
  H   H1263     1.0  0.51038  0.06557  0.46479  1.0000
  H   H1264     1.0  0.51902  0.99976  0.40064  1.0000
  H   H1265     1.0  0.41786  0.02014  0.35012  1.0000
  H   H1266     1.0  0.51877  0.04416  0.42796  1.0000
  C   C722      1.0  0.66554  0.16988  0.23313  1.0000
  H   H1267     1.0  0.65991  0.18715  0.23747  1.0000
  H   H1268     1.0  0.35242  0.20256  0.23301  1.0000
  H   H1269     1.0  0.46342  0.12009  0.45596  1.0000
  H   H1270     1.0  0.51683  0.18639  0.22808  1.0000
  C   C723      1.0  0.36455  0.01683  0.35793  1.0000
  C   C724      1.0  0.37582  0.14187  0.22235  1.0000
  H   H1271     1.0  0.47949  0.06189  0.46432  1.0000
  C   C725      1.0  0.34112  0.11907  0.22514  1.0000
  C   C726      1.0  0.66631  0.00047  0.40414  1.0000
  C   C727      1.0  0.40895  0.00786  0.37339  1.0000
  C   C728      1.0  0.35096  0.21342  0.22233  1.0000
  H   H1272     1.0  0.35987  0.22997  0.22222  1.0000
  H   H1273     1.0  0.60887  0.04252  0.51880  1.0000
  S   S198      1.0  0.61745  0.08974  0.57608  1.0000
  H   H1274     1.0  0.39612  0.18969  0.55460  1.0000
  C   C729      1.0  0.37362  0.01284  0.62118  1.0000
  S   S199      1.0  0.60584  0.08080  0.54379  1.0000
  H   H1275     1.0  0.41062  0.05342  0.71213  1.0000
  Fe  Fe102     1.0  0.60509  0.11237  0.55614  1.0000
  S   S200      1.0  0.57381  0.14355  0.55741  1.0000
  Fe  Fe103     1.0  0.65578  0.09461  0.56586  1.0000
  H   H1276     1.0  0.38472  0.12660  0.59614  1.0000
  S   S201      1.0  0.64323  0.11978  0.54668  1.0000
  Fe  Fe104     1.0  0.64490  0.08597  0.53593  1.0000
  S   S202      1.0  0.36483  0.07514  0.67268  1.0000
  Fe  Fe105     1.0  0.45177  0.09527  0.54477  1.0000
  S   S203      1.0  0.41133  0.10059  0.54253  1.0000
  S   S204      1.0  0.46572  0.12945  0.54853  1.0000
  Fe  Fe106     1.0  0.45743  0.04221  0.54062  1.0000
  S   S205      1.0  0.41756  0.04307  0.53822  1.0000
  C   C730      1.0  0.61790  0.09467  0.47485  1.0000
  Fe  Fe107     1.0  0.42213  0.07832  0.52397  1.0000
  S   S206      1.0  0.40565  0.09212  0.50313  1.0000
  Fe  Fe108     1.0  0.41052  0.06502  0.55700  1.0000
  S   S207      1.0  0.37946  0.05741  0.57485  1.0000
  S   S208      1.0  0.46265  0.07587  0.52511  1.0000
  S   S209      1.0  0.45024  0.06124  0.56051  1.0000
  C   C731      1.0  0.41282  0.07775  0.48723  1.0000
  H   H1277     1.0  0.34966  0.04582  0.63770  1.0000
  H   H1278     1.0  0.40661  0.00543  0.60621  1.0000
  C   C732      1.0  0.42781  0.05506  0.48683  1.0000
  H   H1279     1.0  0.43543  0.04595  0.49640  1.0000
  C   C733      1.0  0.37772  0.06792  0.59180  1.0000
  C   C734      1.0  0.39884  0.07175  0.59719  1.0000
  C   C735      1.0  0.39687  0.08062  0.61056  1.0000
  H   H1280     1.0  0.41669  0.06802  0.59100  1.0000
  H   H1281     1.0  0.41328  0.08382  0.61458  1.0000
  C   C736      1.0  0.62975  0.19569  0.58544  1.0000
  H   H1282     1.0  0.58421  0.03514  0.53949  1.0000
  H   H1283     1.0  0.55893  0.02832  0.56005  1.0000
  H   H1284     1.0  0.45348  0.01832  0.51655  1.0000
  C   C737      1.0  0.54422  0.13826  0.55491  1.0000
  C   C738      1.0  0.53789  0.11457  0.55607  1.0000
  C   C739      1.0  0.51377  0.11130  0.55424  1.0000
  C   C740      1.0  0.49624  0.13177  0.55096  1.0000
  C   C741      1.0  0.50264  0.15531  0.55004  1.0000
  C   C742      1.0  0.52642  0.15853  0.55205  1.0000
  H   H1285     1.0  0.55148  0.09897  0.55870  1.0000
  H   H1286     1.0  0.50861  0.09313  0.55558  1.0000
  H   H1287     1.0  0.48916  0.17120  0.54767  1.0000
  H   H1288     1.0  0.53110  0.17687  0.55123  1.0000
  C   C743      1.0  0.64480  0.08660  0.49871  1.0000
  C   C744      1.0  0.57675  0.02747  0.53106  1.0000
  H   H1289     1.0  0.60955  0.09337  0.51140  1.0000
  H   H1290     1.0  0.60278  0.03885  0.47861  1.0000
  C   C745      1.0  0.60570  0.09613  0.48881  1.0000
  H   H1291     1.0  0.54501  0.05985  0.55620  1.0000
  H   H1292     1.0  0.66653  0.01642  0.57982  1.0000
  H   H1293     1.0  0.41259  0.16441  0.61832  1.0000
  H   H1294     1.0  0.36205  0.12067  0.57745  1.0000
  C   C746      1.0  0.35270  0.08157  0.61343  1.0000
  H   H1295     1.0  0.61733  0.15620  0.56411  1.0000
  C   C747      1.0  0.63339  0.15110  0.58765  1.0000
  H   H1296     1.0  0.39141  0.10693  0.47491  1.0000
  C   C748      1.0  0.54530  0.00315  0.51676  1.0000
  H   H1297     1.0  0.40401  0.99856  0.47927  1.0000
  H   H1298     1.0  0.61242  0.18878  0.54394  1.0000
  C   C749      1.0  0.40287  0.02968  0.69801  1.0000
  C   C750      1.0  0.39374  0.04869  0.70871  1.0000
  S   S210      1.0  0.66099  0.06137  0.55424  1.0000
  H   H1299     1.0  0.59908  0.16276  0.60153  1.0000
  H   H1300     1.0  0.66256  0.02601  0.65156  1.0000
  C   C751      1.0  0.63376  0.22071  0.57698  1.0000
  N   N52       1.0  0.36323  0.00712  0.63665  1.0000
  H   H1301     1.0  0.40561  0.03242  0.63464  1.0000
  S   S211      1.0  0.60777  0.02294  0.57045  1.0000
  H   H1302     1.0  0.63266  0.20573  0.55030  1.0000
  C   C752      1.0  0.34296  0.02774  0.64027  1.0000
  H   H1303     1.0  0.64417  0.15002  0.59683  1.0000
  N   N53       1.0  0.55098  0.03996  0.52933  1.0000
  H   H1304     1.0  0.33676  0.02594  0.65203  1.0000
  H   H1305     1.0  0.58789  0.03646  0.50744  1.0000
  H   H1306     1.0  0.39381  0.11126  0.57183  1.0000
  C   C753      1.0  0.43261  0.04398  0.47406  1.0000
  H   H1307     1.0  0.60685  0.01155  0.51620  1.0000
  Fe  Fe109     1.0  0.62161  0.05866  0.56279  1.0000
  H   H1308     1.0  0.52037  0.07931  0.51336  1.0000
  H   H1309     1.0  0.60993  0.19759  0.58985  1.0000
  H   H1310     1.0  0.40907  0.02539  0.65328  1.0000
  H   H1311     1.0  0.37884  0.18505  0.57163  1.0000
  N   N54       1.0  0.41160  0.14822  0.58395  1.0000
  C   C754      1.0  0.43099  0.12585  0.58474  1.0000
  C   C755      1.0  0.38653  0.13993  0.58629  1.0000
  C   C756      1.0  0.41292  0.16418  0.59532  1.0000
  C   C757      1.0  0.41609  0.16275  0.56939  1.0000
  C   C758      1.0  0.45737  0.13035  0.58603  1.0000
  C   C759      1.0  0.38007  0.12743  0.57410  1.0000
  C   C760      1.0  0.40918  0.15177  0.61096  1.0000
  C   C761      1.0  0.39774  0.18630  0.56630  1.0000
  H   H1312     1.0  0.42597  0.11222  0.59395  1.0000
  H   H1313     1.0  0.43228  0.11613  0.57510  1.0000
  H   H1314     1.0  0.37155  0.15528  0.58846  1.0000
  C   C762      1.0  0.62021  0.03034  0.47284  1.0000
  H   H1315     1.0  0.43073  0.17166  0.59358  1.0000
  C   C763      1.0  0.60673  0.14846  0.59444  1.0000
  H   H1316     1.0  0.43458  0.16876  0.56779  1.0000
  H   H1317     1.0  0.41719  0.15123  0.56055  1.0000
  H   H1318     1.0  0.37814  0.14032  0.56414  1.0000
  H   H1319     1.0  0.59413  0.14840  0.58633  1.0000
  H   H1320     1.0  0.46404  0.14455  0.57766  1.0000
  C   C764      1.0  0.59593  0.02979  0.51755  1.0000
  H   H1321     1.0  0.62921  0.14357  0.71349  1.0000
  C   C765      1.0  0.62782  0.18718  0.55054  1.0000
  H   H1322     1.0  0.47025  0.11312  0.58467  1.0000
  H   H1323     1.0  0.38995  0.14795  0.61413  1.0000
  C   C766      1.0  0.54074  0.03114  0.51734  1.0000
  H   H1324     1.0  0.66230  0.04131  0.67301  1.0000
  H   H1325     1.0  0.54788  0.04007  0.50665  1.0000
  H   H1326     1.0  0.64046  0.02660  0.54383  1.0000
  H   H1327     1.0  0.38757  0.02349  0.69374  1.0000
  H   H1328     1.0  0.45891  0.13532  0.59676  1.0000
  C   C767      1.0  0.35471  0.07232  0.60013  1.0000
  C   C768      1.0  0.61652  0.00333  0.55713  1.0000
  H   H1329     1.0  0.57691  0.00768  0.53521  1.0000
  H   H1330     1.0  0.38257  0.04530  0.64813  1.0000
  S   S212      1.0  0.37393  0.11689  0.69971  1.0000
  S   S213      1.0  0.37224  0.10101  0.63406  1.0000
  H   H1331     1.0  0.38170  0.00671  0.55522  1.0000
  C   C769      1.0  0.55166  0.06719  0.52600  1.0000
  H   H1332     1.0  0.56478  0.07127  0.51624  1.0000
  C   C770      1.0  0.48375  0.09062  0.47634  1.0000
  H   H1333     1.0  0.60691  0.13051  0.60130  1.0000
  H   H1334     1.0  0.42197  0.13452  0.61291  1.0000
  C   C771      1.0  0.54217  0.04054  0.55693  1.0000
  C   C772      1.0  0.37380  0.08606  0.61860  1.0000
  S   S214      1.0  0.66244  0.08063  0.51330  1.0000
  H   H1335     1.0  0.42185  0.00914  0.57156  1.0000
  H   H1336     1.0  0.60081  0.18405  0.56930  1.0000
  H   H1337     1.0  0.58585  0.10062  0.49040  1.0000
  H   H1338     1.0  0.41418  0.03839  0.68864  1.0000
  C   C773      1.0  0.65695  0.08527  0.48476  1.0000
  H   H1339     1.0  0.55896  0.07442  0.53461  1.0000
  H   H1340     1.0  0.59609  0.18330  0.71840  1.0000
  H   H1341     1.0  0.52727  0.03754  0.56587  1.0000
  S   S215      1.0  0.48362  0.00726  0.53960  1.0000
  H   H1342     1.0  0.40863  0.13252  0.71497  1.0000
  H   H1343     1.0  0.65315  0.22119  0.57220  1.0000
  H   H1344     1.0  0.64117  0.03690  0.48871  1.0000
  N   N55       1.0  0.63662  0.17383  0.57720  1.0000
  H   H1345     1.0  0.37828  0.03181  0.61887  1.0000
  C   C774      1.0  0.61908  0.09205  0.50072  1.0000
  H   H1346     1.0  0.64056  0.13436  0.58229  1.0000
  C   C775      1.0  0.35408  0.03375  0.71584  1.0000
  H   H1347     1.0  0.49208  0.10774  0.47515  1.0000
  H   H1348     1.0  0.48922  0.07909  0.48625  1.0000
  H   H1349     1.0  0.44416  0.02642  0.47389  1.0000
  Fe  Fe110     1.0  0.34580  0.09723  0.65476  1.0000
  C   C776      1.0  0.53447  0.03410  0.54308  1.0000
  C   C777      1.0  0.52699  0.08317  0.52321  1.0000
  H   H1350     1.0  0.64950  0.10105  0.62702  1.0000
  Fe  Fe111     1.0  0.34748  0.10440  0.68654  1.0000
  H   H1351     1.0  0.62985  0.00845  0.49251  1.0000
  H   H1352     1.0  0.39856  0.18062  0.59461  1.0000
  H   H1353     1.0  0.52037  0.03667  0.51812  1.0000
  C   C778      1.0  0.61973  0.17500  0.56579  1.0000
  H   H1354     1.0  0.33478  0.08598  0.61943  1.0000
  H   H1355     1.0  0.51519  0.04295  0.54228  1.0000
  H   H1356     1.0  0.40422  0.20235  0.56958  1.0000
  H   H1357     1.0  0.52968  0.10279  0.52156  1.0000
  C   C779      1.0  0.39538  0.02871  0.64546  1.0000
  H   H1358     1.0  0.51252  0.08110  0.53241  1.0000
  C   C780      1.0  0.63881  0.02065  0.48369  1.0000
  C   C781      1.0  0.63357  0.00929  0.54529  1.0000
  H   H1359     1.0  0.35114  0.04443  0.70521  1.0000
  H   H1360     1.0  0.38529  0.06563  0.70246  1.0000
  H   H1361     1.0  0.62121  0.22609  0.56861  1.0000
  H   H1362     1.0  0.64929  0.09749  0.60121  1.0000
  C   C782      1.0  0.64358  0.08915  0.47287  1.0000
  C   C783      1.0  0.66322  0.17125  0.57060  1.0000
  H   H1363     1.0  0.64006  0.19311  0.59494  1.0000
  C   C784      1.0  0.38217  0.00592  0.64683  1.0000
  H   H1364     1.0  0.62928  0.23492  0.58446  1.0000
  H   H1365     1.0  0.37348  0.00271  0.65816  1.0000
  C   C785      1.0  0.45644  0.99866  0.51942  1.0000
  H   H1366     1.0  0.46335  0.09526  0.47802  1.0000
  H   H1367     1.0  0.53331  0.01413  0.54513  1.0000
  H   H1368     1.0  0.33826  0.06933  0.59606  1.0000
  H   H1369     1.0  0.64364  0.17554  0.54515  1.0000
  H   H1370     1.0  0.38300  0.00237  0.57371  1.0000
  S   S216      1.0  0.33950  0.01611  0.68444  1.0000
  C   C786      1.0  0.40305  0.08938  0.47468  1.0000
  H   H1371     1.0  0.41487  0.01359  0.70278  1.0000
  H   H1372     1.0  0.34053  0.00460  0.56298  1.0000
  H   H1373     1.0  0.35760  0.01418  0.71380  1.0000
  H   H1374     1.0  0.35942  0.01297  0.61396  1.0000
  C   C787      1.0  0.37016  0.12880  0.71650  1.0000
  N   N56       1.0  0.66339  0.00795  0.47762  1.0000
  H   H1375     1.0  0.53506  0.99886  0.50838  1.0000
  C   C788      1.0  0.66599  0.10034  0.60502  1.0000
  H   H1376     1.0  0.65639  0.99670  0.52668  1.0000
  H   H1377     1.0  0.63779  0.17142  0.71655  1.0000
  H   H1378     1.0  0.56506  0.99638  0.51381  1.0000
  C   C789      1.0  0.66617  0.10234  0.61965  1.0000
  H   H1379     1.0  0.66675  0.18665  0.56215  1.0000
  Fe  Fe112     1.0  0.60807  0.20378  0.79504  1.0000
  S   S217      1.0  0.62542  0.16485  0.80035  1.0000
  S   S218      1.0  0.56640  0.21592  0.79877  1.0000
  H   H1380     1.0  0.59955  0.26313  0.82952  1.0000
  C   C790      1.0  0.61692  0.14623  0.84634  1.0000
  C   C791      1.0  0.38420  0.21259  0.83995  1.0000
  H   H1381     1.0  0.39555  0.01770  0.87018  1.0000
  H   H1382     1.0  0.49629  0.11625  0.91946  1.0000
  Fe  Fe113     1.0  0.64980  0.18039  0.81264  1.0000
  H   H1383     1.0  0.58189  0.18919  0.83432  1.0000
  C   C792      1.0  0.56854  0.18921  0.74165  1.0000
  S   S219      1.0  0.63103  0.21909  0.80858  1.0000
  Fe  Fe114     1.0  0.60232  0.09827  0.90654  1.0000
  S   S220      1.0  0.59889  0.05817  0.91091  1.0000
  H   H1384     1.0  0.35250  0.23591  0.73779  1.0000
  Fe  Fe115     1.0  0.62107  0.09789  0.93559  1.0000
  S   S221      1.0  0.61979  0.05775  0.94174  1.0000
  H   H1385     1.0  0.49411  0.08383  0.92099  1.0000
  Fe  Fe116     1.0  0.63558  0.05396  0.91894  1.0000
  H   H1386     1.0  0.61256  0.05269  0.87758  1.0000
  Fe  Fe117     1.0  0.58339  0.06545  0.93327  1.0000
  S   S222      1.0  0.55159  0.05055  0.94726  1.0000
  S   S223      1.0  0.66488  0.02203  0.91440  1.0000
  S   S224      1.0  0.58329  0.10597  0.92836  1.0000
  Fe  Fe118     1.0  0.43839  0.17989  0.78264  1.0000
  S   S225      1.0  0.42380  0.14384  0.78359  1.0000
  S   S226      1.0  0.47928  0.17880  0.77386  1.0000
  Fe  Fe119     1.0  0.38848  0.20578  0.79485  1.0000
  S   S227      1.0  0.37155  0.17140  0.79670  1.0000
  S   S228      1.0  0.36190  0.23623  0.80498  1.0000
  Fe  Fe120     1.0  0.40580  0.15197  0.80553  1.0000
  S   S229      1.0  0.40130  0.12193  0.82427  1.0000
  Fe  Fe121     1.0  0.39062  0.16627  0.77456  1.0000
  S   S230      1.0  0.36324  0.15625  0.76092  1.0000
  S   S231      1.0  0.42198  0.18653  0.80515  1.0000
  S   S232      1.0  0.40598  0.20211  0.77213  1.0000
  Fe  Fe122     1.0  0.38851  0.04287  0.91202  1.0000
  H   H1387     1.0  0.34429  0.43870  0.78553  1.0000
  Fe  Fe123     1.0  0.44207  0.03954  0.91574  1.0000
  S   S233      1.0  0.43762  0.07671  0.92314  1.0000
  S   S234      1.0  0.47883  0.01703  0.91126  1.0000
  Fe  Fe124     1.0  0.40321  0.06555  0.93643  1.0000
  H   H1388     1.0  0.58889  0.15290  0.72258  1.0000
  Fe  Fe125     1.0  0.41441  0.08830  0.90490  1.0000
  S   S235      1.0  0.42091  0.12196  0.88896  1.0000
  S   S236      1.0  0.40986  0.02708  0.93033  1.0000
  S   S237      1.0  0.42149  0.05172  0.89678  1.0000
  H   H1389     1.0  0.36973  0.26186  0.77604  1.0000
  C   C793      1.0  0.35187  0.26934  0.78108  1.0000
  H   H1390     1.0  0.62982  0.04741  0.86077  1.0000
  C   C794      1.0  0.40801  0.12211  0.84199  1.0000
  C   C795      1.0  0.41914  0.14070  0.84588  1.0000
  C   C796      1.0  0.42329  0.14036  0.86028  1.0000
  C   C797      1.0  0.41631  0.12151  0.87086  1.0000
  C   C798      1.0  0.40543  0.10288  0.86690  1.0000
  C   C799      1.0  0.40140  0.10314  0.85255  1.0000
  H   H1391     1.0  0.42446  0.15533  0.83782  1.0000
  H   H1392     1.0  0.39962  0.08846  0.87493  1.0000
  H   H1393     1.0  0.39272  0.08874  0.84965  1.0000
  H   H1394     1.0  0.57044  0.27346  0.83991  1.0000
  S   S238      1.0  0.58828  0.11681  0.88567  1.0000
  H   H1395     1.0  0.61726  0.99913  0.93961  1.0000
  H   H1396     1.0  0.62725  0.02068  0.89643  1.0000
  C   C800      1.0  0.36664  0.14580  0.74374  1.0000
  C   C801      1.0  0.38928  0.14309  0.73507  1.0000
  H   H1397     1.0  0.55270  0.24075  0.82885  1.0000
  H   H1398     1.0  0.34331  0.29505  0.76257  1.0000
  H   H1399     1.0  0.40550  0.14738  0.73880  1.0000
  H   H1400     1.0  0.39374  0.00317  0.72410  1.0000
  C   C802      1.0  0.53144  0.04088  0.93734  1.0000
  C   C803      1.0  0.50694  0.03983  0.94318  1.0000
  C   C804      1.0  0.49059  0.03246  0.93517  1.0000
  C   C805      1.0  0.49907  0.02533  0.92157  1.0000
  C   C806      1.0  0.52368  0.02570  0.91591  1.0000
  C   C807      1.0  0.53973  0.03395  0.92368  1.0000
  H   H1401     1.0  0.50044  0.04529  0.95373  1.0000
  H   H1402     1.0  0.47148  0.03222  0.93954  1.0000
  H   H1403     1.0  0.53023  0.02009  0.90540  1.0000
  H   H1404     1.0  0.55862  0.03435  0.91919  1.0000
  H   H1405     1.0  0.34657  0.22588  0.83650  1.0000
  C   C808      1.0  0.34574  0.14016  0.73865  1.0000
  H   H1406     1.0  0.52791  0.20563  0.84676  1.0000
  H   H1407     1.0  0.53116  0.19778  0.73594  1.0000
  C   C809      1.0  0.50681  0.09774  0.91846  1.0000
  C   C810      1.0  0.33690  0.28822  0.77349  1.0000
  C   C811      1.0  0.54239  0.20399  0.79256  1.0000
  C   C812      1.0  0.51771  0.21339  0.79684  1.0000
  C   C813      1.0  0.49812  0.20518  0.79170  1.0000
  C   C814      1.0  0.50301  0.18767  0.78204  1.0000
  C   C815      1.0  0.52770  0.17792  0.77800  1.0000
  C   C816      1.0  0.54727  0.18588  0.78330  1.0000
  H   H1408     1.0  0.51370  0.22740  0.80400  1.0000
  H   H1409     1.0  0.47927  0.21294  0.79485  1.0000
  H   H1410     1.0  0.53161  0.16409  0.77074  1.0000
  H   H1411     1.0  0.56613  0.17827  0.78015  1.0000
  C   C817      1.0  0.63965  0.15168  0.84882  1.0000
  H   H1412     1.0  0.54893  0.22505  0.88050  1.0000
  C   C818      1.0  0.63129  0.13517  0.87404  1.0000
  H   H1413     1.0  0.37351  0.16733  0.83488  1.0000
  H   H1414     1.0  0.45967  0.00081  0.88877  1.0000
  H   H1415     1.0  0.39564  0.20279  0.84826  1.0000
  H   H1416     1.0  0.38951  0.20419  0.82984  1.0000
  H   H1417     1.0  0.63690  0.13117  0.88471  1.0000
  H   H1418     1.0  0.61146  0.15017  0.83564  1.0000
  H   H1419     1.0  0.53437  0.07847  0.90433  1.0000
  C   C819      1.0  0.54574  0.18157  0.73672  1.0000
  H   H1420     1.0  0.54064  0.20435  0.82818  1.0000
  S   S239      1.0  0.37938  0.08066  0.91884  1.0000
  H   H1421     1.0  0.40105  0.08084  0.72731  1.0000
  H   H1422     1.0  0.60267  0.22124  0.74314  1.0000
  C   C820      1.0  0.63519  0.00216  0.89969  1.0000
  H   H1423     1.0  0.35172  0.14768  0.87933  1.0000
  H   H1424     1.0  0.38885  0.23156  0.83758  1.0000
  C   C821      1.0  0.55687  0.23297  0.85723  1.0000
  C   C822      1.0  0.54255  0.19621  0.83942  1.0000
  H   H1425     1.0  0.58327  0.22906  0.82253  1.0000
  H   H1426     1.0  0.42860  0.09624  0.95903  1.0000
  C   C823      1.0  0.57924  0.26372  0.83068  1.0000
  H   H1427     1.0  0.34702  0.23661  0.76402  1.0000
  C   C824      1.0  0.34746  0.13166  0.72514  1.0000
  H   H1428     1.0  0.35700  0.18723  0.86997  1.0000
  H   H1429     1.0  0.33528  0.33127  0.79664  1.0000
  H   H1430     1.0  0.40701  0.02350  0.73250  1.0000
  H   H1431     1.0  0.57428  0.00055  0.93583  1.0000
  S   S240      1.0  0.35898  0.02625  0.90442  1.0000
  C   C825      1.0  0.60694  0.20413  0.86291  1.0000
  H   H1432     1.0  0.38832  0.01069  0.96498  1.0000
  H   H1433     1.0  0.39858  0.05813  0.74306  1.0000
  C   C826      1.0  0.59986  0.16597  0.72572  1.0000
  Fe  Fe126     1.0  0.65880  0.22289  0.78903  1.0000
  H   H1434     1.0  0.62722  0.20189  0.86308  1.0000
  H   H1435     1.0  0.56049  0.19788  0.87255  1.0000
  H   H1436     1.0  0.35849  0.00242  0.74308  1.0000
  H   H1437     1.0  0.35828  0.07809  0.72297  1.0000
  N   N57       1.0  0.57430  0.22138  0.84553  1.0000
  S   S241      1.0  0.62871  0.12122  0.95176  1.0000
  S   S242      1.0  0.64038  0.09375  0.91322  1.0000
  C   C827      1.0  0.35391  0.17598  0.83535  1.0000
  N   N58       1.0  0.59167  0.17062  0.74112  1.0000
  H   H1438     1.0  0.65293  0.07179  0.95976  1.0000
  C   C828      1.0  0.58552  0.14750  0.75037  1.0000
  H   H1439     1.0  0.43177  0.15484  0.86323  1.0000
  H   H1440     1.0  0.33692  0.14221  0.84330  1.0000
  C   C829      1.0  0.60657  0.12594  0.75174  1.0000
  H   H1441     1.0  0.61601  0.07788  0.86428  1.0000
  S   S243      1.0  0.63422  0.21087  0.77493  1.0000
  H   H1442     1.0  0.57179  0.20658  0.73475  1.0000
  H   H1443     1.0  0.59840  0.21417  0.87209  1.0000
  H   H1444     1.0  0.57804  0.15154  0.76147  1.0000
  H   H1445     1.0  0.57087  0.13993  0.74624  1.0000
  H   H1446     1.0  0.51961  0.09407  0.92680  1.0000
  H   H1447     1.0  0.62800  0.16843  0.74796  1.0000
  H   H1448     1.0  0.56299  0.19437  0.75272  1.0000
  H   H1449     1.0  0.62251  0.13072  0.75603  1.0000
  H   H1450     1.0  0.61246  0.11827  0.74141  1.0000
  H   H1451     1.0  0.59975  0.11091  0.75951  1.0000
  S   S244      1.0  0.38821  0.06727  0.96000  1.0000
  C   C830      1.0  0.64680  0.14596  0.86269  1.0000
  N   N59       1.0  0.37590  0.04085  0.72148  1.0000
  N   N60       1.0  0.34656  0.18954  0.84839  1.0000
  C   C831      1.0  0.62748  0.15628  0.72175  1.0000
  C   C832      1.0  0.61711  0.20601  0.74003  1.0000
  C   C833      1.0  0.60846  0.12995  0.87161  1.0000
  H   H1452     1.0  0.63446  0.20942  0.74350  1.0000
  C   C834      1.0  0.61052  0.18104  0.74759  1.0000
  H   H1453     1.0  0.60408  0.18330  0.75908  1.0000
  H   H1454     1.0  0.47842  0.15642  0.89821  1.0000
  H   H1455     1.0  0.37006  0.02442  0.75198  1.0000
  C   C835      1.0  0.39097  0.13468  0.72153  1.0000
  C   C836      1.0  0.35632  0.21384  0.84501  1.0000
  H   H1456     1.0  0.61332  0.20991  0.83982  1.0000
  H   H1457     1.0  0.63709  0.14599  0.73065  1.0000
  H   H1458     1.0  0.41522  0.00075  0.89175  1.0000
  C   C837      1.0  0.64856  0.06488  0.87561  1.0000
  H   H1459     1.0  0.58378  0.13135  0.85573  1.0000
  H   H1460     1.0  0.46359  0.99882  0.87036  1.0000
  H   H1461     1.0  0.57149  0.18274  0.85260  1.0000
  N   N61       1.0  0.50726  0.09877  0.89104  1.0000
  C   C838      1.0  0.49675  0.07525  0.89151  1.0000
  C   C839      1.0  0.52197  0.09630  0.90357  1.0000
  C   C840      1.0  0.52407  0.10376  0.87734  1.0000
  C   C841      1.0  0.48628  0.11961  0.89177  1.0000
  C   C842      1.0  0.48265  0.07328  0.87888  1.0000
  H   H1462     1.0  0.60661  0.23682  0.84860  1.0000
  C   C843      1.0  0.54504  0.08282  0.87391  1.0000
  C   C844      1.0  0.49353  0.14524  0.89197  1.0000
  H   H1463     1.0  0.51142  0.05914  0.89217  1.0000
  H   H1464     1.0  0.48368  0.07228  0.90141  1.0000
  H   H1465     1.0  0.53478  0.11022  0.90208  1.0000
  H   H1466     1.0  0.34481  0.39356  0.77826  1.0000
  H   H1467     1.0  0.51347  0.10858  0.86794  1.0000
  H   H1468     1.0  0.53308  0.12019  0.87764  1.0000
  H   H1469     1.0  0.47608  0.12150  0.88227  1.0000
  H   H1470     1.0  0.47190  0.11589  0.90097  1.0000
  H   H1471     1.0  0.46530  0.08635  0.87884  1.0000
  H   H1472     1.0  0.49400  0.07565  0.86832  1.0000
  H   H1473     1.0  0.47721  0.05464  0.88019  1.0000
  C   C845      1.0  0.56868  0.19666  0.84321  1.0000
  H   H1474     1.0  0.55697  0.07760  0.88263  1.0000
  H   H1475     1.0  0.55703  0.08922  0.86413  1.0000
  H   H1476     1.0  0.53794  0.06643  0.87160  1.0000
  H   H1477     1.0  0.49665  0.15469  0.88087  1.0000
  H   H1478     1.0  0.51018  0.14478  0.89726  1.0000
  C   C846      1.0  0.35363  0.21837  0.74500  1.0000
  Fe  Fe127     1.0  0.65334  0.17276  0.78107  1.0000
  C   C847      1.0  0.60135  0.13548  0.85772  1.0000
  H   H1479     1.0  0.42723  0.02139  0.86753  1.0000
  H   H1480     1.0  0.53952  0.24211  0.85293  1.0000
  H   H1481     1.0  0.35275  0.18904  0.82531  1.0000
  C   C848      1.0  0.54880  0.21580  0.87086  1.0000
  C   C849      1.0  0.33986  0.22154  0.76012  1.0000
  C   C850      1.0  0.38906  0.01927  0.73024  1.0000
  H   H1482     1.0  0.53759  0.16754  0.74465  1.0000
  H   H1483     1.0  0.37809  0.17048  0.85837  1.0000
  C   C851      1.0  0.57196  0.23786  0.83154  1.0000
  H   H1484     1.0  0.60188  0.18545  0.86449  1.0000
  C   C852      1.0  0.34381  0.26029  0.79518  1.0000
  H   H1485     1.0  0.64849  0.09870  0.85149  1.0000
  H   H1486     1.0  0.34634  0.20469  0.76714  1.0000
  H   H1487     1.0  0.52943  0.21274  0.87098  1.0000
  C   C853      1.0  0.35798  0.17556  0.86122  1.0000
  C   C854      1.0  0.62598  0.06026  0.86893  1.0000
  H   H1488     1.0  0.53933  0.17685  0.84014  1.0000
  H   H1489     1.0  0.64756  0.05535  0.88677  1.0000
  C   C855      1.0  0.34853  0.15137  0.86785  1.0000
  H   H1490     1.0  0.37954  0.08716  0.74252  1.0000
  H   H1491     1.0  0.64534  0.08474  0.87692  1.0000
  H   H1492     1.0  0.57307  0.27489  0.82081  1.0000
  H   H1493     1.0  0.56496  0.24787  0.86078  1.0000
  C   C856      1.0  0.41454  0.00745  0.86903  1.0000
  H   H1494     1.0  0.54981  0.17505  0.72600  1.0000
  C   C857      1.0  0.60074  0.21869  0.84851  1.0000
  C   C858      1.0  0.38822  0.07235  0.73591  1.0000
  H   H1495     1.0  0.34802  0.14557  0.82474  1.0000
  H   H1496     1.0  0.37351  0.21224  0.74597  1.0000
  S   S245      1.0  0.65978  0.16539  0.83500  1.0000
  H   H1497     1.0  0.62016  0.20672  0.72819  1.0000
  C   C859      1.0  0.41870  0.09503  0.96973  1.0000
  H   H1498     1.0  0.65088  0.01359  0.87031  1.0000
  C   C860      1.0  0.33866  0.15584  0.83369  1.0000
  H   H1499     1.0  0.66437  0.15011  0.86468  1.0000
  H   H1500     1.0  0.34603  0.35789  0.80059  1.0000
  H   H1501     1.0  0.35287  0.22404  0.85455  1.0000
  H   H1502     1.0  0.33561  0.43363  0.76907  1.0000
  H   H1503     1.0  0.34723  0.20403  0.74002  1.0000
  C   C861      1.0  0.36778  0.06252  0.72983  1.0000
  H   H1504     1.0  0.66273  0.05366  0.84697  1.0000
  H   H1505     1.0  0.34117  0.39992  0.79637  1.0000
  H   H1506     1.0  0.35866  0.13577  0.86234  1.0000
  H   H1507     1.0  0.58700  0.09227  0.96077  1.0000
  H   H1508     1.0  0.66493  0.09333  0.83438  1.0000
  C   C862      1.0  0.37504  0.01006  0.74466  1.0000
  C   C863      1.0  0.65411  0.99758  0.90845  1.0000
  H   H1509     1.0  0.35393  0.05840  0.73916  1.0000
  S   S246      1.0  0.66489  0.14252  0.76654  1.0000
  C   C864      1.0  0.64965  0.08145  0.96912  1.0000
  C   C865      1.0  0.63875  0.10599  0.96803  1.0000
  H   H1510     1.0  0.41651  0.99804  0.85930  1.0000
  C   C866      1.0  0.66662  0.09143  0.84604  1.0000
  Fe  Fe128     1.0  0.64526  0.78492  0.19627  1.0000
  S   S247      1.0  0.62070  0.75603  0.19620  1.0000
  Fe  Fe129     1.0  0.65104  0.79434  0.16323  1.0000
  S   S248      1.0  0.62776  0.76606  0.16107  1.0000
  H   H1511     1.0  0.44583  0.75126  0.13341  1.0000
  Fe  Fe130     1.0  0.60190  0.78171  0.17912  1.0000
  S   S249      1.0  0.56147  0.79606  0.17590  1.0000
  S   S250      1.0  0.62447  0.81158  0.18048  1.0000
  Fe  Fe131     1.0  0.59663  0.88578  0.06143  1.0000
  S   S251      1.0  0.55711  0.89376  0.07048  1.0000
  S   S252      1.0  0.62873  0.88289  0.07380  1.0000
  S   S253      1.0  0.61380  0.90609  0.04145  1.0000
  Fe  Fe132     1.0  0.42770  0.75645  0.17846  1.0000
  S   S254      1.0  0.41506  0.79571  0.17107  1.0000
  S   S255      1.0  0.46583  0.74198  0.18526  1.0000
  Fe  Fe133     1.0  0.37799  0.74077  0.17420  1.0000
  S   S256      1.0  0.36244  0.77963  0.16612  1.0000
  S   S257      1.0  0.35887  0.70634  0.18030  1.0000
  Fe  Fe134     1.0  0.40007  0.78174  0.15339  1.0000
  S   S258      1.0  0.41656  0.79906  0.13157  1.0000
  Fe  Fe135     1.0  0.37900  0.79021  0.18446  1.0000
  H   H1512     1.0  0.49035  0.90269  0.98359  1.0000
  S   S259      1.0  0.41448  0.74216  0.16032  1.0000
  S   S260      1.0  0.39267  0.75168  0.19310  1.0000
  Fe  Fe136     1.0  0.43169  0.90663  0.04614  1.0000
  S   S261      1.0  0.39546  0.89830  0.04170  1.0000
  S   S262      1.0  0.44182  0.93853  0.05492  1.0000
  Fe  Fe137     1.0  0.45945  0.85868  0.03712  1.0000
  S   S263      1.0  0.42563  0.84578  0.03187  1.0000
  S   S264      1.0  0.49906  0.84201  0.03340  1.0000
  Fe  Fe138     1.0  0.41653  0.88463  0.02148  1.0000
  S   S265      1.0  0.40602  0.89969  0.99920  1.0000
  Fe  Fe139     1.0  0.40757  0.86028  0.05261  1.0000
  S   S266      1.0  0.38173  0.84231  0.07046  1.0000
  S   S267      1.0  0.45178  0.89612  0.02535  1.0000
  S   S268      1.0  0.44219  0.87009  0.05832  1.0000
  C   C867      1.0  0.40603  0.81023  0.11471  1.0000
  C   C868      1.0  0.38137  0.81212  0.11237  1.0000
  C   C869      1.0  0.37417  0.82177  0.09874  1.0000
  C   C870      1.0  0.39150  0.82958  0.08736  1.0000
  C   C871      1.0  0.41613  0.82748  0.08974  1.0000
  C   C872      1.0  0.42331  0.81795  0.10332  1.0000
  H   H1513     1.0  0.36788  0.80624  0.12104  1.0000
  H   H1514     1.0  0.35507  0.82320  0.09701  1.0000
  H   H1515     1.0  0.42978  0.83292  0.08109  1.0000
  H   H1516     1.0  0.44243  0.81653  0.10499  1.0000
  C   C873      1.0  0.50228  0.95799  0.03970  1.0000
  H   H1517     1.0  0.49176  0.92876  0.02985  1.0000
  H   H1518     1.0  0.36073  0.98854  0.05180  1.0000
  H   H1519     1.0  0.49633  0.91971  0.04812  1.0000
  H   H1520     1.0  0.60490  0.80512  0.13591  1.0000
  H   H1521     1.0  0.51027  0.75458  0.10178  1.0000
  H   H1522     1.0  0.38262  0.96405  0.08702  1.0000
  C   C874      1.0  0.41079  0.95901  0.01625  1.0000
  H   H1523     1.0  0.50242  0.79226  0.13335  1.0000
  H   H1524     1.0  0.60767  0.78748  0.01029  1.0000
  H   H1525     1.0  0.57902  0.77217  0.13145  1.0000
  H   H1526     1.0  0.33877  0.89336  0.08379  1.0000
  C   C875      1.0  0.41410  0.85572  0.98758  1.0000
  C   C876      1.0  0.41245  0.88125  0.98501  1.0000
  Fe  Fe140     1.0  0.64747  0.89931  0.05292  1.0000
  C   C877      1.0  0.35053  0.90551  0.07661  1.0000
  H   H1527     1.0  0.48544  0.95025  0.06577  1.0000
  H   H1528     1.0  0.41183  0.84680  0.99850  1.0000
  C   C878      1.0  0.42366  0.82495  0.20343  1.0000
  H   H1529     1.0  0.52245  0.71016  0.14744  1.0000
  C   C879      1.0  0.42054  0.96526  0.05557  1.0000
  C   C880      1.0  0.39605  0.96587  0.05324  1.0000
  H   H1530     1.0  0.47358  0.79764  0.20583  1.0000
  C   C881      1.0  0.56092  0.96152  0.05691  1.0000
  H   H1531     1.0  0.40585  0.91282  0.07493  1.0000
  H   H1532     1.0  0.40930  0.79161  0.21121  1.0000
  H   H1533     1.0  0.38981  0.94951  0.05101  1.0000
  H   H1534     1.0  0.64327  0.95328  0.02845  1.0000
  H   H1535     1.0  0.43719  0.78758  0.19953  1.0000
  H   H1536     1.0  0.51993  0.81575  0.97202  1.0000
  C   C882      1.0  0.54080  0.87974  0.06011  1.0000
  C   C883      1.0  0.51849  0.87176  0.06604  1.0000
  C   C884      1.0  0.50610  0.85948  0.05798  1.0000
  C   C885      1.0  0.51560  0.85570  0.04385  1.0000
  C   C886      1.0  0.53795  0.86371  0.03791  1.0000
  C   C887      1.0  0.55048  0.87579  0.04602  1.0000
  H   H1537     1.0  0.51111  0.87444  0.07699  1.0000
  H   H1538     1.0  0.48961  0.85220  0.06289  1.0000
  H   H1539     1.0  0.54548  0.86081  0.02702  1.0000
  H   H1540     1.0  0.56757  0.88216  0.04127  1.0000
  C   C888      1.0  0.53508  0.78065  0.17890  1.0000
  C   C889      1.0  0.51214  0.79398  0.17591  1.0000
  C   C890      1.0  0.49076  0.78251  0.17786  1.0000
  C   C891      1.0  0.49204  0.75753  0.18290  1.0000
  C   C892      1.0  0.51489  0.74427  0.18603  1.0000
  C   C893      1.0  0.53632  0.75570  0.18399  1.0000
  H   H1541     1.0  0.51089  0.81334  0.17213  1.0000
  H   H1542     1.0  0.47329  0.79301  0.17552  1.0000
  H   H1543     1.0  0.51610  0.72495  0.18999  1.0000
  H   H1544     1.0  0.55377  0.74521  0.18639  1.0000
  H   H1545     1.0  0.46232  0.76889  0.11981  1.0000
  H   H1546     1.0  0.49799  0.75807  0.15199  1.0000
  C   C894      1.0  0.62898  0.95561  0.06465  1.0000
  H   H1547     1.0  0.62001  0.93971  0.06470  1.0000
  C   C895      1.0  0.47937  0.82722  0.99850  1.0000
  C   C896      1.0  0.46177  0.73235  0.11534  1.0000
  H   H1548     1.0  0.45520  0.71531  0.12102  1.0000
  H   H1549     1.0  0.47949  0.72771  0.10862  1.0000
  C   C897      1.0  0.48386  0.78968  0.13888  1.0000
  C   C898      1.0  0.50351  0.70998  0.15305  1.0000
  N   N62       1.0  0.48511  0.74447  0.13446  1.0000
  S   S269      1.0  0.35982  0.81967  0.19832  1.0000
  H   H1550     1.0  0.59685  0.78766  0.11657  1.0000
  H   H1551     1.0  0.46953  0.79709  0.13176  1.0000
  C   C899      1.0  0.58486  0.80839  0.13500  1.0000
  H   H1552     1.0  0.58430  0.82238  0.10179  1.0000
  H   H1553     1.0  0.50101  0.72018  0.16250  1.0000
  H   H1554     1.0  0.42216  0.96709  0.02250  1.0000
  H   H1555     1.0  0.52988  0.76889  0.11007  1.0000
  H   H1556     1.0  0.36226  0.99454  0.01409  1.0000
  H   H1557     1.0  0.56372  0.79531  0.11993  1.0000
  H   H1558     1.0  0.41304  0.94621  0.08623  1.0000
  H   H1559     1.0  0.50277  0.85382  0.00069  1.0000
  C   C900      1.0  0.64521  0.79653  0.00421  1.0000
  H   H1560     1.0  0.36529  0.89434  0.07025  1.0000
  H   H1561     1.0  0.41148  0.83551  0.21143  1.0000
  H   H1562     1.0  0.36586  0.87614  0.09882  1.0000
  H   H1563     1.0  0.48282  0.80805  0.99586  1.0000
  H   H1564     1.0  0.43577  0.87531  0.09047  1.0000
  H   H1565     1.0  0.63747  0.98751  0.11936  1.0000
  C   C901      1.0  0.65233  0.79623  0.12251  1.0000
  H   H1566     1.0  0.35163  0.89827  0.11043  1.0000
  S   S270      1.0  0.66271  0.86329  0.04445  1.0000
  H   H1567     1.0  0.47540  0.82683  0.01034  1.0000
  C   C902      1.0  0.52643  0.86535  0.97511  1.0000
  C   C903      1.0  0.50566  0.95024  0.06537  1.0000
  H   H1568     1.0  0.57916  0.96220  0.05039  1.0000
  H   H1569     1.0  0.64056  0.99307  0.03713  1.0000
  C   C904      1.0  0.33848  0.69201  0.17234  1.0000
  C   C905      1.0  0.51049  0.99107  0.05180  1.0000
  H   H1570     1.0  0.46226  0.83684  0.99443  1.0000
  C   C906      1.0  0.42759  0.89466  0.09147  1.0000
  H   H1571     1.0  0.54613  0.93437  0.04846  1.0000
  H   H1572     1.0  0.64844  0.78130  0.13067  1.0000
  H   H1573     1.0  0.42672  0.89701  0.10289  1.0000
  H   H1574     1.0  0.39950  0.88298  0.08147  1.0000
  H   H1575     1.0  0.47045  0.88369  0.99561  1.0000
  C   C907      1.0  0.66561  0.97550  0.05987  1.0000
  C   C908      1.0  0.50353  0.93051  0.03811  1.0000
  H   H1576     1.0  0.65488  0.80883  0.04649  1.0000
  C   C909      1.0  0.40668  0.97406  0.00162  1.0000
  H   H1577     1.0  0.56344  0.94750  0.06637  1.0000
  C   C910      1.0  0.42792  0.79724  0.20881  1.0000
  N   N63       1.0  0.57653  0.83527  0.13076  1.0000
  C   C911      1.0  0.57930  0.84892  0.14302  1.0000
  C   C912      1.0  0.54977  0.84054  0.12831  1.0000
  C   C913      1.0  0.59252  0.84509  0.11760  1.0000
  C   C914      1.0  0.60589  0.84854  0.14629  1.0000
  C   C915      1.0  0.53132  0.83141  0.14093  1.0000
  C   C916      1.0  0.58603  0.84153  0.10278  1.0000
  H   H1578     1.0  0.57110  0.86855  0.14105  1.0000
  H   H1579     1.0  0.56925  0.84129  0.15327  1.0000
  H   H1580     1.0  0.54629  0.83260  0.11883  1.0000
  H   H1581     1.0  0.54424  0.86067  0.12568  1.0000
  H   H1582     1.0  0.59221  0.86526  0.11725  1.0000
  H   H1583     1.0  0.61211  0.83694  0.11804  1.0000
  H   H1584     1.0  0.44790  0.74089  0.10802  1.0000
  H   H1585     1.0  0.61779  0.85681  0.13708  1.0000
  H   H1586     1.0  0.60545  0.85945  0.15530  1.0000
  H   H1587     1.0  0.51254  0.83502  0.13756  1.0000
  H   H1588     1.0  0.53549  0.81139  0.14419  1.0000
  H   H1589     1.0  0.53047  0.84135  0.15038  1.0000
  H   H1590     1.0  0.60108  0.84675  0.09442  1.0000
  H   H1591     1.0  0.56900  0.85379  0.10008  1.0000
  H   H1592     1.0  0.46529  0.71937  0.14973  1.0000
  C   C917      1.0  0.54284  0.95474  0.04765  1.0000
  H   H1593     1.0  0.48029  0.80106  0.14789  1.0000
  C   C918      1.0  0.58088  0.79021  0.12499  1.0000
  H   H1594     1.0  0.49783  0.77973  0.11198  1.0000
  H   H1595     1.0  0.50948  0.96668  0.02898  1.0000
  C   C919      1.0  0.47553  0.89122  0.98431  1.0000
  C   C920      1.0  0.65407  0.95490  0.05968  1.0000
  C   C921      1.0  0.61660  0.86123  0.98470  1.0000
  H   H1596     1.0  0.52449  0.74515  0.13150  1.0000
  H   H1597     1.0  0.65249  0.92407  0.01140  1.0000
  H   H1598     1.0  0.57670  0.80210  0.14605  1.0000
  H   H1599     1.0  0.46526  0.86218  0.97513  1.0000
  C   C922      1.0  0.40275  0.90027  0.08505  1.0000
  H   H1600     1.0  0.34078  0.66033  0.18833  1.0000
  C   C923      1.0  0.35543  0.81581  0.21737  1.0000
  C   C924      1.0  0.36087  0.92269  0.08495  1.0000
  Fe  Fe141     1.0  0.62729  0.86894  0.03441  1.0000
  C   C925      1.0  0.50957  0.74358  0.12506  1.0000
  H   H1601     1.0  0.51458  0.72537  0.12100  1.0000
  H   H1602     1.0  0.39297  0.95617  0.02279  1.0000
  H   H1603     1.0  0.48475  0.70522  0.13575  1.0000
  H   H1604     1.0  0.50176  0.69064  0.15742  1.0000
  C   C926      1.0  0.42847  0.98634  0.05864  1.0000
  H   H1605     1.0  0.36811  0.93685  0.07665  1.0000
  H   H1606     1.0  0.49653  0.97769  0.08062  1.0000
  H   H1607     1.0  0.61448  0.82973  0.14990  1.0000
  S   S271      1.0  0.60784  0.84902  0.05391  1.0000
  H   H1608     1.0  0.44726  0.98582  0.06073  1.0000
  H   H1609     1.0  0.59749  0.85875  0.98743  1.0000
  C   C927      1.0  0.46333  0.75043  0.12600  1.0000
  H   H1610     1.0  0.47222  0.81860  0.97259  1.0000
  C   C928      1.0  0.48349  0.71956  0.14299  1.0000
  Fe  Fe142     1.0  0.64863  0.74290  0.17819  1.0000
  C   C929      1.0  0.61539  0.97705  0.06947  1.0000
  H   H1611     1.0  0.46537  0.76214  0.15251  1.0000
  H   H1612     1.0  0.55572  0.97987  0.06051  1.0000
  Fe  Fe143     1.0  0.64145  0.84726  0.06483  1.0000
  H   H1613     1.0  0.64289  0.77910  0.10534  1.0000
  N   N64       1.0  0.65517  0.98550  0.01552  1.0000
  H   H1614     1.0  0.51822  0.82639  0.99508  1.0000
  H   H1615     1.0  0.54931  0.96038  0.03618  1.0000
  H   H1616     1.0  0.63144  0.79067  0.05366  1.0000
  H   H1617     1.0  0.36806  0.93810  0.10903  1.0000
  C   C930      1.0  0.48286  0.76273  0.14509  1.0000
  S   S272      1.0  0.65078  0.81195  0.07940  1.0000
  H   H1618     1.0  0.34479  0.93253  0.09132  1.0000
  C   C931      1.0  0.51138  0.76291  0.11161  1.0000
  C   C932      1.0  0.39628  0.95224  0.09343  1.0000
  H   H1619     1.0  0.62624  0.77949  0.03128  1.0000
  H   H1620     1.0  0.62706  0.96364  0.01329  1.0000
  N   N65       1.0  0.38035  0.91078  0.09444  1.0000
  H   H1621     1.0  0.48239  0.96577  0.04143  1.0000
  C   C933      1.0  0.46700  0.79904  0.21740  1.0000
  H   H1622     1.0  0.42447  0.97137  0.99451  1.0000
  H   H1623     1.0  0.42051  0.94050  0.01437  1.0000
  H   H1624     1.0  0.33866  0.91675  0.06889  1.0000
  C   C934      1.0  0.38535  0.93045  0.10265  1.0000
  H   H1625     1.0  0.39793  0.92323  0.11082  1.0000
  H   H1626     1.0  0.52245  0.92206  0.03440  1.0000
  H   H1627     1.0  0.59602  0.97757  0.07334  1.0000
  C   C935      1.0  0.38557  0.87713  0.11627  1.0000
  H   H1628     1.0  0.55427  0.83933  0.98625  1.0000
  C   C936      1.0  0.36967  0.89079  0.10473  1.0000
  C   C937      1.0  0.65500  0.86732  0.99206  1.0000
  H   H1629     1.0  0.62553  0.81183  0.02886  1.0000
  C   C938      1.0  0.64912  0.79506  0.10816  1.0000
  H   H1630     1.0  0.65673  0.73643  0.13704  1.0000
  C   C939      1.0  0.50196  0.84042  0.99313  1.0000
  H   H1631     1.0  0.51385  0.93056  0.06638  1.0000
  H   H1632     1.0  0.34746  0.88191  0.98207  1.0000
  C   C940      1.0  0.50883  0.96011  0.07931  1.0000
  H   H1633     1.0  0.45502  0.75422  0.21457  1.0000
  H   H1634     1.0  0.37510  0.86337  0.12309  1.0000
  H   H1635     1.0  0.38982  0.88927  0.12361  1.0000
  N   N66       1.0  0.51580  0.96368  0.05133  1.0000
  C   C941      1.0  0.63014  0.86449  0.99556  1.0000
  C   C942      1.0  0.63812  0.79412  0.03031  1.0000
  H   H1636     1.0  0.40169  0.96408  0.10062  1.0000
  C   C943      1.0  0.62511  0.78038  0.00392  1.0000
  H   H1637     1.0  0.50327  0.94678  0.08862  1.0000
  H   H1638     1.0  0.45910  0.90369  0.98089  1.0000
  S   S273      1.0  0.61557  0.86196  0.01347  1.0000
  C   C944      1.0  0.41812  0.84169  0.97600  1.0000
  S   S274      1.0  0.66219  0.70250  0.17627  1.0000
  N   N67       1.0  0.50422  0.85197  0.97771  1.0000
  H   H1639     1.0  0.44100  0.90616  0.08518  1.0000
  H   H1640     1.0  0.41387  0.82777  0.19375  1.0000
  H   H1641     1.0  0.40261  0.86649  0.11146  1.0000
  C   C945      1.0  0.66123  0.81641  0.12617  1.0000
  H   H1642     1.0  0.52557  0.87812  0.98326  1.0000
  H   H1643     1.0  0.52804  0.96240  0.08000  1.0000
  H   H1644     1.0  0.39381  0.96447  0.99711  1.0000
  H   H1645     1.0  0.63075  0.76092  0.00802  1.0000
  S   S275      1.0  0.65446  0.78915  0.21864  1.0000
  H   H1646     1.0  0.66564  0.86986  0.00033  1.0000
  C   C946      1.0  0.64731  0.79213  0.04514  1.0000
  C   C947      1.0  0.48218  0.87069  0.97447  1.0000
  C   C948      1.0  0.37963  0.98786  0.05375  1.0000
  C   C949      1.0  0.66224  0.83487  0.10116  1.0000
  H   H1647     1.0  0.41904  0.82195  0.97808  1.0000
  H   H1648     1.0  0.63620  0.81583  0.00260  1.0000
  N   N68       1.0  0.65788  0.79202  0.01762  1.0000
  H   H1649     1.0  0.44109  0.83275  0.20023  1.0000
  C   C950      1.0  0.64561  0.96122  0.01693  1.0000
  H   H1650     1.0  0.46539  0.81886  0.21863  1.0000
  C   C951      1.0  0.65405  0.81438  0.09742  1.0000
  H   H1651     1.0  0.62104  0.78117  0.99270  1.0000
  H   H1652     1.0  0.34135  0.85397  0.21864  1.0000
  H   H1653     1.0  0.60267  0.98739  0.02865  1.0000
  C   C952      1.0  0.66113  0.94111  0.00857  1.0000
  H   H1654     1.0  0.40642  0.98450  0.97325  1.0000
  C   C953      1.0  0.55181  0.84918  0.97541  1.0000
  C   C954      1.0  0.41533  0.89256  0.97077  1.0000
  H   H1655     1.0  0.36788  0.77700  0.21986  1.0000
  H   H1656     1.0  0.56631  0.86128  0.97254  1.0000
  H   H1657     1.0  0.66113  0.94597  0.99683  1.0000
  C   C955      1.0  0.66614  0.83570  0.11543  1.0000
  H   H1658     1.0  0.66150  0.83016  0.01761  1.0000
  H   H1659     1.0  0.34067  0.85893  0.97204  1.0000
  H   H1660     1.0  0.65847  0.79435  0.99439  1.0000
  H   H1661     1.0  0.66114  0.77571  0.04720  1.0000
  H   H1662     1.0  0.66187  0.75302  0.02532  1.0000
  H   H1663     1.0  0.66634  0.84976  0.09296  1.0000
  C   C956      1.0  0.66633  0.86598  0.97784  1.0000
  Fe  Fe144     1.0  0.58931  0.88233  0.42107  1.0000
  S   S276      1.0  0.54876  0.88927  0.42854  1.0000
  S   S277      1.0  0.61029  0.90905  0.42779  1.0000
  S   S278      1.0  0.60418  0.88874  0.39784  1.0000
  H   H1664     1.0  0.42711  0.73051  0.23184  1.0000
  H   H1665     1.0  0.41183  0.75742  0.23932  1.0000
  C   C957      1.0  0.66517  0.81235  0.22631  1.0000
  H   H1666     1.0  0.51818  0.80282  0.45135  1.0000
  H   H1667     1.0  0.36894  0.97775  0.35983  1.0000
  C   C958      1.0  0.36115  0.79295  0.22534  1.0000
  Fe  Fe145     1.0  0.39163  0.85164  0.42702  1.0000
  S   S279      1.0  0.42838  0.86046  0.42938  1.0000
  S   S280      1.0  0.36939  0.83355  0.44610  1.0000
  Fe  Fe146     1.0  0.39351  0.87437  0.39571  1.0000
  S   S281      1.0  0.43071  0.88580  0.39563  1.0000
  H   H1668     1.0  0.48975  0.87588  0.45649  1.0000
  Fe  Fe147     1.0  0.44044  0.84862  0.40765  1.0000
  S   S282      1.0  0.47921  0.82876  0.40488  1.0000
  Fe  Fe148     1.0  0.41629  0.89671  0.41745  1.0000
  S   S283      1.0  0.42389  0.92793  0.42782  1.0000
  S   S284      1.0  0.40434  0.83584  0.40609  1.0000
  S   S285      1.0  0.37812  0.88905  0.41664  1.0000
  H   H1669     1.0  0.63633  0.83551  0.46380  1.0000
  H   H1670     1.0  0.38413  0.97466  0.43663  1.0000
  C   C959      1.0  0.37235  0.84603  0.36464  1.0000
  C   C960      1.0  0.52578  0.95496  0.41318  1.0000
  H   H1671     1.0  0.41857  0.92489  0.36931  1.0000
  C   C961      1.0  0.58420  0.98020  0.41964  1.0000
  C   C962      1.0  0.65657  0.98644  0.39576  1.0000
  H   H1672     1.0  0.38445  0.83692  0.37238  1.0000
  H   H1673     1.0  0.35734  0.81525  0.41894  1.0000
  Fe  Fe149     1.0  0.62801  0.91224  0.40507  1.0000
  H   H1674     1.0  0.56758  0.94707  0.42495  1.0000
  N   N69       1.0  0.44230  0.78998  0.22153  1.0000
  C   C963      1.0  0.50019  0.80268  0.44750  1.0000
  H   H1675     1.0  0.63671  0.89319  0.34567  1.0000
  H   H1676     1.0  0.65763  0.93999  0.34988  1.0000
  H   H1677     1.0  0.37001  0.81287  0.35578  1.0000
  H   H1678     1.0  0.42648  0.96112  0.37915  1.0000
  N   N70       1.0  0.54065  0.97444  0.41518  1.0000
  H   H1679     1.0  0.49503  0.76719  0.22205  1.0000
  H   H1680     1.0  0.41170  0.99328  0.44851  1.0000
  C   C964      1.0  0.43738  0.79460  0.24879  1.0000
  Fe  Fe150     1.0  0.63935  0.87681  0.43166  1.0000
  H   H1681     1.0  0.60348  0.97086  0.41831  1.0000
  C   C965      1.0  0.44283  0.94712  0.41689  1.0000
  C   C966      1.0  0.45443  0.94154  0.40340  1.0000
  C   C967      1.0  0.46595  0.95927  0.39397  1.0000
  C   C968      1.0  0.65041  0.96343  0.40162  1.0000
  C   C969      1.0  0.66455  0.96822  0.42407  1.0000
  H   H1682     1.0  0.45390  0.92397  0.40005  1.0000
  H   H1683     1.0  0.47386  0.95548  0.38327  1.0000
  C   C970      1.0  0.42200  0.75065  0.22938  1.0000
  H   H1684     1.0  0.55011  0.82560  0.36018  1.0000
  C   C971      1.0  0.53027  0.87251  0.42132  1.0000
  C   C972      1.0  0.50576  0.88248  0.42001  1.0000
  C   C973      1.0  0.49031  0.86927  0.41466  1.0000
  C   C974      1.0  0.49907  0.84575  0.41090  1.0000
  C   C975      1.0  0.52367  0.83574  0.41219  1.0000
  C   C976      1.0  0.53935  0.84920  0.41730  1.0000
  H   H1685     1.0  0.49866  0.90054  0.42306  1.0000
  H   H1686     1.0  0.47159  0.87742  0.41347  1.0000
  H   H1687     1.0  0.53051  0.81752  0.40934  1.0000
  H   H1688     1.0  0.55826  0.84136  0.41843  1.0000
  C   C977      1.0  0.42789  0.80199  0.23404  1.0000
  H   H1689     1.0  0.50405  0.79996  0.43596  1.0000
  C   C978      1.0  0.34063  0.86923  0.34457  1.0000
  C   C979      1.0  0.46953  0.87882  0.45652  1.0000
  H   H1690     1.0  0.60750  0.83389  0.33387  1.0000
  H   H1691     1.0  0.53382  0.96888  0.43847  1.0000
  C   C980      1.0  0.38792  0.85325  0.46736  1.0000
  H   H1692     1.0  0.36245  0.77293  0.24652  1.0000
  H   H1693     1.0  0.50615  0.96273  0.41267  1.0000
  H   H1694     1.0  0.39965  0.95544  0.39972  1.0000
  C   C981      1.0  0.34852  0.81111  0.24779  1.0000
  H   H1695     1.0  0.42580  0.79479  0.46891  1.0000
  H   H1696     1.0  0.39325  0.86766  0.45916  1.0000
  S   S286      1.0  0.37144  0.88867  0.37699  1.0000
  C   C982      1.0  0.53342  0.94199  0.39960  1.0000
  C   C983      1.0  0.41400  0.96411  0.37068  1.0000
  C   C984      1.0  0.44570  0.76233  0.22437  1.0000
  C   C985      1.0  0.55571  0.99343  0.38925  1.0000
  H   H1697     1.0  0.50844  0.84150  0.46667  1.0000
  H   H1698     1.0  0.33510  0.84975  0.24536  1.0000
  H   H1699     1.0  0.44102  0.85662  0.45762  1.0000
  H   H1700     1.0  0.41794  0.91175  0.46853  1.0000
  C   C986      1.0  0.55576  0.89382  0.37276  1.0000
  C   C987      1.0  0.57913  0.81248  0.38532  1.0000
  H   H1701     1.0  0.49171  0.78675  0.45322  1.0000
  S   S287      1.0  0.65908  0.88237  0.40923  1.0000
  C   C988      1.0  0.36422  0.87120  0.36428  1.0000
  H   H1702     1.0  0.53678  0.89491  0.36999  1.0000
  H   H1703     1.0  0.48415  0.78424  0.23724  1.0000
  C   C989      1.0  0.46545  0.98252  0.39808  1.0000
  H   H1704     1.0  0.45814  0.75518  0.23265  1.0000
  H   H1705     1.0  0.39233  0.93490  0.38131  1.0000
  H   H1706     1.0  0.39168  0.94099  0.36214  1.0000
  H   H1707     1.0  0.34519  0.80265  0.40565  1.0000
  H   H1708     1.0  0.44871  0.79410  0.45363  1.0000
  H   H1709     1.0  0.59312  0.88040  0.36483  1.0000
  H   H1710     1.0  0.56353  0.97458  0.38715  1.0000
  C   C990      1.0  0.40321  0.94012  0.37090  1.0000
  H   H1711     1.0  0.42722  0.82225  0.23197  1.0000
  C   C991      1.0  0.56700  0.96298  0.41636  1.0000
  H   H1712     1.0  0.52162  0.92745  0.40002  1.0000
  C   C992      1.0  0.44465  0.96945  0.42140  1.0000
  H   H1713     1.0  0.41848  0.94885  0.45421  1.0000
  C   C993      1.0  0.64698  0.86875  0.46853  1.0000
  H   H1714     1.0  0.46553  0.88384  0.44522  1.0000
  H   H1715     1.0  0.40095  0.98673  0.40235  1.0000
  C   C994      1.0  0.35793  0.79068  0.24045  1.0000
  H   H1716     1.0  0.52284  0.82894  0.38031  1.0000
  H   H1717     1.0  0.59656  0.80260  0.38033  1.0000
  H   H1718     1.0  0.40967  0.75338  0.22091  1.0000
  H   H1719     1.0  0.52764  0.85932  0.38283  1.0000
  H   H1720     1.0  0.65131  0.93584  0.42005  1.0000
  H   H1721     1.0  0.50919  0.85497  0.36983  1.0000
  C   C995      1.0  0.65857  0.86000  0.33920  1.0000
  C   C996      1.0  0.43906  0.80566  0.46191  1.0000
  H   H1722     1.0  0.65743  0.79472  0.24788  1.0000
  H   H1723     1.0  0.56052  0.91275  0.37041  1.0000
  H   H1724     1.0  0.57594  0.84776  0.33602  1.0000
  H   H1725     1.0  0.42812  0.82182  0.45653  1.0000
  C   C997      1.0  0.65499  0.84335  0.36895  1.0000
  S   S288      1.0  0.65942  0.87791  0.45080  1.0000
  H   H1726     1.0  0.65335  0.99363  0.38487  1.0000
  H   H1727     1.0  0.42621  0.96629  0.36035  1.0000
  H   H1728     1.0  0.63522  0.87922  0.37171  1.0000
  H   H1729     1.0  0.57918  0.80814  0.39713  1.0000
  C   C998      1.0  0.36412  0.83244  0.35523  1.0000
  S   S289      1.0  0.61720  0.84932  0.42636  1.0000
  H   H1730     1.0  0.56413  0.84907  0.38934  1.0000
  H   H1731     1.0  0.36473  0.97041  0.38461  1.0000
  C   C999      1.0  0.57785  0.84044  0.38126  1.0000
  C   C1000     1.0  0.54829  0.84476  0.36279  1.0000
  H   H1732     1.0  0.46838  0.82853  0.44202  1.0000
  H   H1733     1.0  0.52596  0.94046  0.42259  1.0000
  H   H1734     1.0  0.46242  0.89480  0.46248  1.0000
  C   C1001     1.0  0.45687  0.85648  0.46359  1.0000
  H   H1735     1.0  0.55627  0.88853  0.38444  1.0000
  C   C1002     1.0  0.34863  0.88276  0.35407  1.0000
  H   H1736     1.0  0.61143  0.83814  0.35935  1.0000
  H   H1737     1.0  0.55268  0.93262  0.39888  1.0000
  H   H1738     1.0  0.42155  0.79707  0.25735  1.0000
  S   S290      1.0  0.65794  0.87031  0.32070  1.0000
  C   C1003     1.0  0.57434  0.87709  0.36344  1.0000
  H   H1739     1.0  0.59181  0.81728  0.35706  1.0000
  Fe  Fe151     1.0  0.63426  0.85821  0.40335  1.0000
  C   C1004     1.0  0.65531  0.95391  0.41559  1.0000
  H   H1740     1.0  0.57596  0.95497  0.40655  1.0000
  C   C1005     1.0  0.52626  0.84727  0.37477  1.0000
  H   H1741     1.0  0.49444  0.84178  0.44372  1.0000
  H   H1742     1.0  0.44523  0.77508  0.25078  1.0000
  C   C1006     1.0  0.40103  0.94875  0.46163  1.0000
  C   C1007     1.0  0.34592  0.83622  0.22470  1.0000
  H   H1743     1.0  0.60073  0.86476  0.33757  1.0000
  H   H1744     1.0  0.40808  0.79962  0.23528  1.0000
  H   H1745     1.0  0.56316  0.80535  0.38243  1.0000
  C   C1008     1.0  0.48327  0.82729  0.44893  1.0000
  C   C1009     1.0  0.59396  0.84671  0.34004  1.0000
  C   C1010     1.0  0.66491  0.80999  0.24133  1.0000
  H   H1746     1.0  0.53001  0.95478  0.38977  1.0000
  C   C1011     1.0  0.64479  0.86721  0.36409  1.0000
  C   C1012     1.0  0.34805  0.84391  0.34524  1.0000
  C   C1013     1.0  0.37592  0.83487  0.46374  1.0000
  S   S291      1.0  0.63505  0.94747  0.39183  1.0000
  N   N71       1.0  0.47287  0.83184  0.46405  1.0000
  H   H1747     1.0  0.57149  0.88456  0.35219  1.0000
  C   C1014     1.0  0.59306  0.83721  0.35619  1.0000
  H   H1748     1.0  0.43648  0.97351  0.43193  1.0000
  N   N72       1.0  0.57273  0.84997  0.36610  1.0000
  H   H1749     1.0  0.54271  0.85673  0.35300  1.0000
  H   H1750     1.0  0.59572  0.84538  0.38323  1.0000
  H   H1751     1.0  0.33529  0.96564  0.28659  1.0000
  C   C1015     1.0  0.64588  0.87518  0.34930  1.0000
  H   H1752     1.0  0.44422  0.95650  0.46952  1.0000
  S   S292      1.0  0.34450  0.80691  0.26680  1.0000
  H   H1753     1.0  0.44181  0.98823  0.46140  1.0000
  S   S293      1.0  0.33984  0.85732  0.29432  1.0000
  C   C1016     1.0  0.34237  0.83390  0.23984  1.0000
  N   N73       1.0  0.39249  0.97336  0.46693  1.0000
  H   H1754     1.0  0.38783  0.94453  0.45482  1.0000
  H   H1755     1.0  0.49123  0.97893  0.43289  1.0000
  C   C1017     1.0  0.34068  0.81627  0.41346  1.0000
  H   H1756     1.0  0.45110  0.80630  0.25026  1.0000
  S   S294      1.0  0.64984  0.83142  0.38727  1.0000
  H   H1757     1.0  0.65833  0.95249  0.25379  1.0000
  H   H1758     1.0  0.35041  0.84662  0.39795  1.0000
  H   H1759     1.0  0.50450  0.79613  0.22252  1.0000
  C   C1018     1.0  0.38122  0.99187  0.35951  1.0000
  C   C1019     1.0  0.53053  0.98368  0.42941  1.0000
  H   H1760     1.0  0.66661  0.95941  0.36104  1.0000
  H   H1761     1.0  0.65249  0.99404  0.45949  1.0000
  C   C1020     1.0  0.66034  0.98708  0.46974  1.0000
  H   H1762     1.0  0.58033  0.98430  0.43092  1.0000
  C   C1021     1.0  0.38907  0.97409  0.39982  1.0000
  C   C1022     1.0  0.50280  0.99386  0.43132  1.0000
  H   H1763     1.0  0.66407  0.92226  0.24868  1.0000
  C   C1023     1.0  0.48862  0.78571  0.22544  1.0000
  C   C1024     1.0  0.45577  0.98719  0.41198  1.0000
  C   C1025     1.0  0.37671  0.99070  0.44249  1.0000
  C   C1026     1.0  0.39284  0.99291  0.45414  1.0000
  H   H1764     1.0  0.35718  0.98992  0.44687  1.0000
  C   C1027     1.0  0.37755  0.98333  0.38575  1.0000
  H   H1765     1.0  0.37407  0.97289  0.40888  1.0000
  H   H1766     1.0  0.34232  0.90225  0.35366  1.0000
  N   N74       1.0  0.39546  0.98680  0.37232  1.0000
  H   H1767     1.0  0.35521  0.96477  0.46865  1.0000
  H   H1768     1.0  0.39381  0.99051  0.34931  1.0000
  S   S295      1.0  0.33628  0.82570  0.33463  1.0000
  H   H1769     1.0  0.33427  0.85494  0.41423  1.0000
  C   C1028     1.0  0.33440  0.84259  0.40601  1.0000
  Fe  Fe152     1.0  0.60215  0.88307  0.55664  1.0000
  S   S296      1.0  0.56299  0.89026  0.56694  1.0000
  C   C1029     1.0  0.64978  0.86212  0.67277  1.0000
  S   S297      1.0  0.60884  0.89404  0.53296  1.0000
  Fe  Fe153     1.0  0.45157  0.85802  0.53790  1.0000
  S   S298      1.0  0.41612  0.84245  0.54513  1.0000
  S   S299      1.0  0.48969  0.83771  0.54047  1.0000
  Fe  Fe154     1.0  0.42609  0.90448  0.52289  1.0000
  S   S300      1.0  0.38853  0.89323  0.52872  1.0000
  S   S301      1.0  0.43144  0.93996  0.50914  1.0000
  Fe  Fe155     1.0  0.40046  0.88034  0.55068  1.0000
  S   S302      1.0  0.37371  0.89308  0.56971  1.0000
  Fe  Fe156     1.0  0.40705  0.85659  0.52266  1.0000
  S   S303      1.0  0.39095  0.83193  0.51053  1.0000
  S   S304      1.0  0.43673  0.89475  0.54511  1.0000
  S   S305      1.0  0.44362  0.86897  0.51512  1.0000
  Fe  Fe157     1.0  0.63998  0.91094  0.53798  1.0000
  H   H1770     1.0  0.59581  0.88965  0.47965  1.0000
  C   C1030     1.0  0.35203  0.98358  0.63892  1.0000
  S   S306      1.0  0.36678  0.83827  0.63373  1.0000
  C   C1031     1.0  0.34200  0.81649  0.59276  1.0000
  H   H1771     1.0  0.36791  0.97783  0.49695  1.0000
  C   C1032     1.0  0.38550  0.83438  0.49236  1.0000
  C   C1033     1.0  0.37359  0.81628  0.48859  1.0000
  C   C1034     1.0  0.48684  0.84032  0.48752  1.0000
  H   H1772     1.0  0.64874  0.90000  0.67600  1.0000
  H   H1773     1.0  0.65914  0.97979  0.59433  1.0000
  H   H1774     1.0  0.36796  0.80185  0.49671  1.0000
  H   H1775     1.0  0.37843  0.94492  0.55513  1.0000
  H   H1776     1.0  0.40166  0.86722  0.48456  1.0000
  C   C1035     1.0  0.37251  0.87791  0.58751  1.0000
  H   H1777     1.0  0.47203  0.83101  0.49411  1.0000
  H   H1778     1.0  0.56088  0.88445  0.52824  1.0000
  C   C1036     1.0  0.36908  0.85453  0.61617  1.0000
  C   C1037     1.0  0.38797  0.84606  0.60572  1.0000
  C   C1038     1.0  0.38965  0.85761  0.59146  1.0000
  C   C1039     1.0  0.54207  0.92071  0.52353  1.0000
  C   C1040     1.0  0.39267  0.85304  0.48171  1.0000
  H   H1779     1.0  0.40129  0.83033  0.60865  1.0000
  H   H1780     1.0  0.40421  0.85080  0.58352  1.0000
  C   C1041     1.0  0.57770  0.88413  0.48435  1.0000
  C   C1042     1.0  0.47573  0.96287  0.53348  1.0000
  C   C1043     1.0  0.46361  0.94788  0.52700  1.0000
  C   C1044     1.0  0.44793  0.95824  0.51671  1.0000
  C   C1045     1.0  0.41588  0.93086  0.57883  1.0000
  C   C1046     1.0  0.35201  0.87492  0.61224  1.0000
  H   H1781     1.0  0.48746  0.95482  0.54165  1.0000
  H   H1782     1.0  0.46633  0.92835  0.53004  1.0000
  H   H1783     1.0  0.49991  0.75807  0.71550  1.0000
  C   C1047     1.0  0.64233  0.99249  0.53541  1.0000
  C   C1048     1.0  0.54243  0.87452  0.56056  1.0000
  C   C1049     1.0  0.51730  0.88392  0.56157  1.0000
  C   C1050     1.0  0.50079  0.87239  0.55580  1.0000
  C   C1051     1.0  0.50928  0.85118  0.54917  1.0000
  C   C1052     1.0  0.53426  0.84125  0.54868  1.0000
  C   C1053     1.0  0.55088  0.85307  0.55417  1.0000
  H   H1784     1.0  0.51066  0.90040  0.56660  1.0000
  H   H1785     1.0  0.48157  0.87993  0.55651  1.0000
  H   H1786     1.0  0.54082  0.82457  0.54386  1.0000
  H   H1787     1.0  0.57020  0.84554  0.55350  1.0000
  H   H1788     1.0  0.35885  0.94375  0.64217  1.0000
  H   H1789     1.0  0.58434  0.84471  0.69823  1.0000
  H   H1790     1.0  0.53848  0.99272  0.52700  1.0000
  H   H1791     1.0  0.34758  0.75563  0.64377  1.0000
  H   H1792     1.0  0.34841  0.97232  0.56391  1.0000
  C   C1054     1.0  0.39608  0.99530  0.61538  1.0000
  H   H1793     1.0  0.64679  0.88360  0.50236  1.0000
  H   H1794     1.0  0.49721  0.87568  0.50924  1.0000
  H   H1795     1.0  0.38650  0.91880  0.47642  1.0000
  H   H1796     1.0  0.44584  0.81860  0.48106  1.0000
  H   H1797     1.0  0.64755  0.87920  0.62094  1.0000
  H   H1798     1.0  0.58345  0.83571  0.50513  1.0000
  H   H1799     1.0  0.59339  0.97672  0.56752  1.0000
  C   C1055     1.0  0.34923  0.81485  0.71891  1.0000
  C   C1056     1.0  0.40937  0.97930  0.47676  1.0000
  H   H1800     1.0  0.64351  0.98127  0.57911  1.0000
  C   C1057     1.0  0.63357  0.96995  0.53718  1.0000
  H   H1801     1.0  0.62420  0.82661  0.65554  1.0000
  H   H1802     1.0  0.61008  0.82887  0.70667  1.0000
  C   C1058     1.0  0.36623  0.97478  0.47419  1.0000
  H   H1803     1.0  0.55870  0.92871  0.51839  1.0000
  H   H1804     1.0  0.57094  0.91232  0.49810  1.0000
  H   H1805     1.0  0.52739  0.91807  0.49713  1.0000
  C   C1059     1.0  0.64084  0.88361  0.68168  1.0000
  C   C1060     1.0  0.61522  0.96471  0.54843  1.0000
  N   N75       1.0  0.64439  0.83706  0.67964  1.0000
  C   C1061     1.0  0.39350  0.95630  0.55158  1.0000
  C   C1062     1.0  0.35231  0.98866  0.56814  1.0000
  C   C1063     1.0  0.36230  0.96518  0.49034  1.0000
  H   H1806     1.0  0.52883  0.88598  0.52939  1.0000
  C   C1064     1.0  0.64735  0.93489  0.60233  1.0000
  H   H1807     1.0  0.39577  0.96380  0.58668  1.0000
  N   N76       1.0  0.39808  0.96997  0.56341  1.0000
  H   H1808     1.0  0.43757  0.96107  0.55771  1.0000
  H   H1809     1.0  0.60694  0.84896  0.67479  1.0000
  C   C1065     1.0  0.44481  0.98361  0.51268  1.0000
  H   H1810     1.0  0.48631  0.90539  0.50069  1.0000
  H   H1811     1.0  0.50351  0.81193  0.47470  1.0000
  H   H1812     1.0  0.49665  0.90266  0.51786  1.0000
  H   H1813     1.0  0.44744  0.98013  0.47961  1.0000
  H   H1814     1.0  0.37206  0.94649  0.49299  1.0000
  H   H1815     1.0  0.60755  0.94780  0.54946  1.0000
  H   H1816     1.0  0.33770  0.79834  0.63642  1.0000
  S   S307      1.0  0.63449  0.83596  0.51553  1.0000
  C   C1066     1.0  0.50031  0.89511  0.50746  1.0000
  H   H1817     1.0  0.62054  0.88854  0.68243  1.0000
  H   H1818     1.0  0.66295  0.80130  0.71076  1.0000
  C   C1067     1.0  0.63801  0.84629  0.47217  1.0000
  H   H1819     1.0  0.57957  0.86401  0.48442  1.0000
  H   H1820     1.0  0.41117  0.91909  0.58902  1.0000
  C   C1068     1.0  0.61697  0.83653  0.68301  1.0000
  H   H1821     1.0  0.37786  0.94630  0.57931  1.0000
  H   H1822     1.0  0.44768  0.86021  0.47444  1.0000
  S   S308      1.0  0.34348  0.86977  0.66958  1.0000
  H   H1823     1.0  0.42477  0.98969  0.54949  1.0000
  H   H1824     1.0  0.66271  0.95728  0.55906  1.0000
  H   H1825     1.0  0.60856  0.86101  0.70031  1.0000
  S   S309      1.0  0.64732  0.94751  0.52625  1.0000
  H   H1826     1.0  0.34235  0.96447  0.49368  1.0000
  H   H1827     1.0  0.40988  0.94279  0.54864  1.0000
  H   H1828     1.0  0.48116  0.86048  0.48647  1.0000
  C   C1069     1.0  0.65792  0.80299  0.69967  1.0000
  S   S310      1.0  0.63110  0.90332  0.56190  1.0000
  H   H1829     1.0  0.37492  0.95761  0.65308  1.0000
  C   C1070     1.0  0.35379  0.88658  0.59799  1.0000
  H   H1830     1.0  0.65179  0.80022  0.67341  1.0000
  H   H1831     1.0  0.40772  0.96797  0.48729  1.0000
  H   H1832     1.0  0.64135  0.86763  0.66262  1.0000
  H   H1833     1.0  0.63976  0.79671  0.70031  1.0000
  H   H1834     1.0  0.61240  0.81796  0.68234  1.0000
  H   H1835     1.0  0.33912  0.83629  0.59413  1.0000
  H   H1836     1.0  0.56428  0.89339  0.47698  1.0000
  C   C1071     1.0  0.49392  0.83105  0.47270  1.0000
  H   H1837     1.0  0.43432  0.93597  0.57918  1.0000
  C   C1072     1.0  0.64402  0.87328  0.49401  1.0000
  H   H1838     1.0  0.57976  0.84999  0.52154  1.0000
  H   H1839     1.0  0.35935  0.81324  0.58538  1.0000
  H   H1840     1.0  0.62751  0.81886  0.48943  1.0000
  H   H1841     1.0  0.65126  0.80801  0.64836  1.0000
  H   H1842     1.0  0.38718  0.96002  0.52920  1.0000
  C   C1073     1.0  0.63315  0.83685  0.48669  1.0000
  H   H1843     1.0  0.63617  0.91975  0.60581  1.0000
  H   H1844     1.0  0.63496  0.95201  0.60456  1.0000
  H   H1845     1.0  0.41152  0.80820  0.71884  1.0000
  H   H1846     1.0  0.65144  0.83998  0.64749  1.0000
  H   H1847     1.0  0.41678  0.91946  0.57006  1.0000
  H   H1848     1.0  0.38564  0.95688  0.63414  1.0000
  H   H1849     1.0  0.35772  0.80827  0.61269  1.0000
  H   H1850     1.0  0.37903  0.82328  0.70274  1.0000
  H   H1851     1.0  0.33731  0.98377  0.64819  1.0000
  C   C1074     1.0  0.63667  0.85006  0.49763  1.0000
  S   S311      1.0  0.62686  0.84690  0.55650  1.0000
  H   H1852     1.0  0.50312  0.83634  0.49355  1.0000
  Fe  Fe158     1.0  0.63565  0.85956  0.53291  1.0000
  C   C1075     1.0  0.60465  0.84327  0.69789  1.0000
  N   N77       1.0  0.54742  0.88530  0.50774  1.0000
  H   H1853     1.0  0.35332  0.96399  0.68656  1.0000
  C   C1076     1.0  0.57124  0.89211  0.49955  1.0000
  C   C1077     1.0  0.54483  0.89292  0.52259  1.0000
  C   C1078     1.0  0.54712  0.85799  0.50914  1.0000
  H   H1854     1.0  0.56483  0.82444  0.52046  1.0000
  H   H1855     1.0  0.41159  0.92998  0.48268  1.0000
  Fe  Fe159     1.0  0.33723  0.84856  0.65203  1.0000
  C   C1079     1.0  0.57027  0.84168  0.51434  1.0000
  C   C1080     1.0  0.38749  0.97222  0.53748  1.0000
  H   H1856     1.0  0.65051  0.84168  0.70125  1.0000
  H   H1857     1.0  0.58711  0.88461  0.50566  1.0000
  C   C1081     1.0  0.37404  0.81584  0.71375  1.0000
  C   C1082     1.0  0.60698  0.98122  0.55855  1.0000
  C   C1083     1.0  0.39588  0.95347  0.57745  1.0000
  H   H1858     1.0  0.53103  0.85272  0.51673  1.0000
  H   H1859     1.0  0.54486  0.85248  0.49861  1.0000
  C   C1084     1.0  0.65501  0.81920  0.66896  1.0000
  C   C1085     1.0  0.42351  0.97727  0.55975  1.0000
  H   H1860     1.0  0.35962  0.75936  0.62533  1.0000
  C   C1086     1.0  0.52632  0.89810  0.49977  1.0000
  H   H1861     1.0  0.52728  0.89113  0.48924  1.0000
  H   H1862     1.0  0.63983  0.93937  0.58041  1.0000
  H   H1863     1.0  0.50243  0.73005  0.70803  1.0000
  C   C1087     1.0  0.64959  0.88238  0.47949  1.0000
  H   H1864     1.0  0.39017  0.97943  0.61158  1.0000
  H   H1865     1.0  0.35687  0.99414  0.47338  1.0000
  C   C1088     1.0  0.37959  0.99276  0.56481  1.0000
  H   H1866     1.0  0.64771  0.87223  0.59558  1.0000
  H   H1867     1.0  0.52542  0.93096  0.51908  1.0000
  C   C1089     1.0  0.36868  0.81663  0.47447  1.0000
  H   H1868     1.0  0.34275  0.98180  0.62950  1.0000
  C   C1090     1.0  0.66220  0.97781  0.58267  1.0000
  C   C1091     1.0  0.65784  0.82981  0.69271  1.0000
  H   H1869     1.0  0.53991  0.92352  0.53506  1.0000
  C   C1092     1.0  0.36921  0.95931  0.64216  1.0000
  H   H1870     1.0  0.35936  0.80246  0.47185  1.0000
  H   H1871     1.0  0.34655  0.98671  0.57992  1.0000
  H   H1872     1.0  0.40943  0.98870  0.62319  1.0000
  H   H1873     1.0  0.35488  0.78235  0.60484  1.0000
  H   H1874     1.0  0.36901  0.98335  0.53879  1.0000
  H   H1875     1.0  0.43162  0.97981  0.58172  1.0000
  C   C1093     1.0  0.34475  0.80043  0.60728  1.0000
  C   C1094     1.0  0.43231  0.99049  0.57093  1.0000
  C   C1095     1.0  0.47159  0.98832  0.52996  1.0000
  H   H1876     1.0  0.65678  0.89964  0.47673  1.0000
  H   H1877     1.0  0.33738  0.88165  0.62014  1.0000
  C   C1096     1.0  0.49274  0.74032  0.71692  1.0000
  H   H1878     1.0  0.39694  0.99013  0.64567  1.0000
  Fe  Fe160     1.0  0.65667  0.86814  0.55995  1.0000
  H   H1879     1.0  0.64712  0.88033  0.69246  1.0000
  H   H1880     1.0  0.34045  0.90227  0.59505  1.0000
  H   H1881     1.0  0.66273  0.93181  0.60900  1.0000
  H   H1882     1.0  0.40148  0.98442  0.53325  1.0000
  C   C1097     1.0  0.64461  0.82405  0.65436  1.0000
  H   H1883     1.0  0.47287  0.74328  0.71560  1.0000
  C   C1098     1.0  0.65650  0.93495  0.58619  1.0000
  C   C1099     1.0  0.34224  0.76054  0.63274  1.0000
  C   C1100     1.0  0.66475  0.86884  0.60037  1.0000
  C   C1101     1.0  0.66472  0.87279  0.61475  1.0000
  C   C1102     1.0  0.40416  0.92628  0.47311  1.0000
  C   C1103     1.0  0.45716  0.81259  0.47115  1.0000
  H   H1884     1.0  0.62515  0.97626  0.48106  1.0000
  H   H1885     1.0  0.33568  0.93056  0.67856  1.0000
  H   H1886     1.0  0.43270  0.99177  0.50475  1.0000
  H   H1887     1.0  0.66377  0.91576  0.58450  1.0000
  C   C1104     1.0  0.33686  0.96837  0.68121  1.0000
  H   H1888     1.0  0.65239  0.95868  0.48797  1.0000
  C   C1105     1.0  0.64450  0.96809  0.47818  1.0000
  H   H1889     1.0  0.46870  0.79522  0.47491  1.0000
  C   C1106     1.0  0.43717  0.97577  0.47126  1.0000
  H   H1890     1.0  0.45187  0.99299  0.56748  1.0000
  H   H1891     1.0  0.64402  0.95367  0.47125  1.0000
  Fe  Fe161     1.0  0.64503  0.77835  0.80957  1.0000
  S   S312      1.0  0.62246  0.74717  0.81314  1.0000
  C   C1107     1.0  0.58256  0.98438  0.94266  1.0000
  H   H1892     1.0  0.55000  0.97548  0.91448  1.0000
  S   S313      1.0  0.64137  0.73890  0.77924  1.0000
  H   H1893     1.0  0.45247  0.79813  0.84552  1.0000
  Fe  Fe162     1.0  0.61025  0.76172  0.79144  1.0000
  S   S314      1.0  0.57102  0.77248  0.78534  1.0000
  C   C1108     1.0  0.63938  0.83173  0.86312  1.0000
  S   S315      1.0  0.63114  0.79409  0.78846  1.0000
  Fe  Fe163     1.0  0.59168  0.86976  0.92520  1.0000
  S   S316      1.0  0.55301  0.87131  0.93644  1.0000
  S   S317      1.0  0.61606  0.89553  0.92938  1.0000
  S   S318      1.0  0.60129  0.87486  0.90136  1.0000
  Fe  Fe164     1.0  0.43616  0.73891  0.79358  1.0000
  S   S319      1.0  0.43120  0.77894  0.78583  1.0000
  S   S320      1.0  0.47460  0.71950  0.79758  1.0000
  Fe  Fe165     1.0  0.38026  0.73640  0.79606  1.0000
  S   S321      1.0  0.37235  0.77708  0.78864  1.0000
  H   H1894     1.0  0.36178  0.77552  0.82462  1.0000
  Fe  Fe166     1.0  0.40469  0.77054  0.77186  1.0000
  S   S322      1.0  0.40999  0.78715  0.74839  1.0000
  Fe  Fe167     1.0  0.39950  0.78157  0.80334  1.0000
  S   S323      1.0  0.39471  0.81319  0.81680  1.0000
  S   S324      1.0  0.41170  0.72969  0.77845  1.0000
  S   S325      1.0  0.40540  0.74176  0.81191  1.0000
  C   C1109     1.0  0.34159  0.98645  0.89844  1.0000
  Fe  Fe168     1.0  0.44755  0.87738  0.89752  1.0000
  S   S326      1.0  0.45024  0.83747  0.90595  1.0000
  S   S327      1.0  0.48125  0.89495  0.88902  1.0000
  Fe  Fe169     1.0  0.39260  0.88619  0.90422  1.0000
  S   S328      1.0  0.39061  0.84684  0.91302  1.0000
  S   S329      1.0  0.35759  0.91282  0.90420  1.0000
  Fe  Fe170     1.0  0.42283  0.85039  0.92422  1.0000
  S   S330      1.0  0.42520  0.83463  0.94755  1.0000
  Fe  Fe171     1.0  0.41789  0.83783  0.89387  1.0000
  S   S331      1.0  0.41677  0.80554  0.88166  1.0000
  S   S332      1.0  0.42282  0.89036  0.91662  1.0000
  S   S333      1.0  0.41727  0.87709  0.88415  1.0000
  C   C1110     1.0  0.40018  0.81061  0.83499  1.0000
  C   C1111     1.0  0.40072  0.83205  0.84112  1.0000
  C   C1112     1.0  0.40532  0.83086  0.85548  1.0000
  C   C1113     1.0  0.40914  0.80816  0.86390  1.0000
  C   C1114     1.0  0.40805  0.78672  0.85785  1.0000
  C   C1115     1.0  0.40378  0.78790  0.84344  1.0000
  H   H1895     1.0  0.39778  0.84972  0.83471  1.0000
  H   H1896     1.0  0.40604  0.84749  0.85999  1.0000
  H   H1897     1.0  0.41101  0.76907  0.86430  1.0000
  H   H1898     1.0  0.40334  0.77125  0.83888  1.0000
  C   C1116     1.0  0.38620  0.79761  0.73728  1.0000
  C   C1117     1.0  0.36142  0.79653  0.74241  1.0000
  H   H1899     1.0  0.35772  0.63236  0.79295  1.0000
  H   H1900     1.0  0.33973  0.81052  0.81212  1.0000
  C   C1118     1.0  0.41789  0.98938  0.88276  1.0000
  H   H1901     1.0  0.63585  0.77159  0.87444  1.0000
  H   H1902     1.0  0.35636  0.78913  0.75342  1.0000
  N   N78       1.0  0.57060  0.96211  0.94195  1.0000
  H   H1903     1.0  0.48912  0.95407  0.88771  1.0000
  H   H1904     1.0  0.56867  0.93647  0.92698  1.0000
  H   H1905     1.0  0.51511  0.75840  0.74167  1.0000
  H   H1906     1.0  0.53319  0.95431  0.94234  1.0000
  C   C1119     1.0  0.42058  0.85301  0.96175  1.0000
  H   H1907     1.0  0.59751  0.94663  0.92545  1.0000
  H   H1908     1.0  0.44932  0.74859  0.75488  1.0000
  H   H1909     1.0  0.61718  0.85749  0.96223  1.0000
  H   H1910     1.0  0.51887  0.83903  0.95719  1.0000
  Fe  Fe172     1.0  0.66298  0.77019  0.77786  1.0000
  H   H1911     1.0  0.36686  0.91038  0.96831  1.0000
  H   H1912     1.0  0.34737  0.82489  0.83573  1.0000
  C   C1120     1.0  0.35904  0.94406  0.90458  1.0000
  C   C1121     1.0  0.37641  0.95190  0.91167  1.0000
  C   C1122     1.0  0.37635  0.97715  0.91211  1.0000
  H   H1913     1.0  0.45498  0.93896  0.89620  1.0000
  H   H1914     1.0  0.38958  0.93851  0.91698  1.0000
  C   C1123     1.0  0.53163  0.88129  0.92415  1.0000
  C   C1124     1.0  0.50890  0.87263  0.92659  1.0000
  C   C1125     1.0  0.49297  0.87769  0.91600  1.0000
  C   C1126     1.0  0.49966  0.89154  0.90295  1.0000
  C   C1127     1.0  0.52174  0.90148  0.90083  1.0000
  C   C1128     1.0  0.53774  0.89636  0.91145  1.0000
  H   H1915     1.0  0.50395  0.86113  0.93639  1.0000
  H   H1916     1.0  0.47585  0.87018  0.91783  1.0000
  H   H1917     1.0  0.52683  0.91250  0.89082  1.0000
  H   H1918     1.0  0.55498  0.90373  0.90967  1.0000
  C   C1129     1.0  0.54488  0.75681  0.78870  1.0000
  C   C1130     1.0  0.54531  0.73317  0.79612  1.0000
  C   C1131     1.0  0.52374  0.72188  0.79868  1.0000
  C   C1132     1.0  0.50149  0.73417  0.79403  1.0000
  C   C1133     1.0  0.50115  0.75777  0.78660  1.0000
  C   C1134     1.0  0.52272  0.76889  0.78385  1.0000
  H   H1919     1.0  0.56225  0.72361  0.79988  1.0000
  H   H1920     1.0  0.52428  0.70357  0.80440  1.0000
  H   H1921     1.0  0.48427  0.76750  0.78295  1.0000
  H   H1922     1.0  0.52219  0.78715  0.77808  1.0000
  C   C1135     1.0  0.64235  0.80850  0.84258  1.0000
  C   C1136     1.0  0.65280  0.86236  0.96700  1.0000
  H   H1923     1.0  0.65637  0.85483  0.73104  1.0000
  C   C1137     1.0  0.46281  0.98721  0.88093  1.0000
  H   H1924     1.0  0.47600  0.77410  0.84961  1.0000
  H   H1925     1.0  0.52693  0.87694  0.96451  1.0000
  C   C1138     1.0  0.35915  0.99446  0.90522  1.0000
  C   C1139     1.0  0.54302  0.96913  0.94445  1.0000
  H   H1926     1.0  0.35915  0.84908  0.94221  1.0000
  C   C1140     1.0  0.64201  0.83073  0.84816  1.0000
  H   H1927     1.0  0.43016  0.92995  0.86134  1.0000
  H   H1928     1.0  0.34296  0.93522  0.96675  1.0000
  H   H1929     1.0  0.45190  0.71019  0.73375  1.0000
  H   H1930     1.0  0.57833  0.98854  0.91370  1.0000
  N   N79       1.0  0.44195  0.97228  0.88276  1.0000
  H   H1931     1.0  0.37210  0.67137  0.79572  1.0000
  C   C1141     1.0  0.42436  0.94255  0.86969  1.0000
  C   C1142     1.0  0.41951  0.87852  0.95919  1.0000
  H   H1932     1.0  0.51213  0.98074  0.95994  1.0000
  C   C1143     1.0  0.48890  0.97243  0.88146  1.0000
  H   H1933     1.0  0.35327  0.78523  0.84164  1.0000
  H   H1934     1.0  0.34553  0.87327  0.92959  1.0000
  H   H1935     1.0  0.33412  0.84772  0.82295  1.0000
  H   H1936     1.0  0.59948  0.93515  0.95029  1.0000
  H   H1937     1.0  0.52602  0.72824  0.76185  1.0000
  H   H1938     1.0  0.51846  0.72263  0.73117  1.0000
  H   H1939     1.0  0.51948  0.69907  0.77046  1.0000
  H   H1940     1.0  0.43962  0.95484  0.91993  1.0000
  H   H1941     1.0  0.53008  0.70222  0.75174  1.0000
  C   C1144     1.0  0.63727  0.81041  0.87271  1.0000
  C   C1145     1.0  0.57026  0.97136  0.91445  1.0000
  H   H1942     1.0  0.57923  0.98985  0.95369  1.0000
  H   H1943     1.0  0.49329  0.70661  0.73121  1.0000
  H   H1944     1.0  0.44622  0.70475  0.75326  1.0000
  C   C1146     1.0  0.62708  0.98272  0.89465  1.0000
  C   C1147     1.0  0.57964  0.94204  0.95323  1.0000
  H   H1945     1.0  0.34136  0.92707  0.93274  1.0000
  H   H1946     1.0  0.48123  0.82942  0.82184  1.0000
  C   C1148     1.0  0.48585  0.80971  0.84933  1.0000
  H   H1947     1.0  0.40777  0.95500  0.86649  1.0000
  H   H1948     1.0  0.42183  0.88741  0.94829  1.0000
  Fe  Fe173     1.0  0.63108  0.84303  0.90458  1.0000
  C   C1149     1.0  0.63986  0.78725  0.85217  1.0000
  N   N80       1.0  0.48552  0.73596  0.74465  1.0000
  C   C1150     1.0  0.35896  0.88590  0.94764  1.0000
  H   H1949     1.0  0.48495  0.87950  0.96315  1.0000
  C   C1151     1.0  0.63715  0.95846  0.89878  1.0000
  H   H1950     1.0  0.49262  0.79875  0.74033  1.0000
  H   H1951     1.0  0.53670  0.96170  0.96817  1.0000
  H   H1952     1.0  0.65299  0.87294  0.76842  1.0000
  H   H1953     1.0  0.53900  0.99355  0.96133  1.0000
  H   H1954     1.0  0.41441  0.91227  0.96870  1.0000
  C   C1152     1.0  0.50832  0.83258  0.96756  1.0000
  C   C1153     1.0  0.39241  0.80727  0.72291  1.0000
  C   C1154     1.0  0.51830  0.71172  0.76031  1.0000
  H   H1955     1.0  0.34702  0.62653  0.83934  1.0000
  H   H1956     1.0  0.49513  0.76120  0.75781  1.0000
  H   H1957     1.0  0.42336  0.94834  0.89928  1.0000
  H   H1958     1.0  0.46372  0.78858  0.74683  1.0000
  C   C1155     1.0  0.33558  0.69134  0.79899  1.0000
  H   H1959     1.0  0.42503  0.72529  0.74329  1.0000
  C   C1156     1.0  0.56584  0.91938  0.95614  1.0000
  H   H1960     1.0  0.38759  0.92472  0.94371  1.0000
  H   H1961     1.0  0.57945  0.90238  0.95686  1.0000
  C   C1157     1.0  0.61065  0.98178  0.93840  1.0000
  H   H1962     1.0  0.48005  0.72361  0.76740  1.0000
  S   S334      1.0  0.62631  0.93474  0.89221  1.0000
  C   C1158     1.0  0.66459  0.97331  0.91237  1.0000
  H   H1963     1.0  0.55434  0.91776  0.94779  1.0000
  H   H1964     1.0  0.36571  0.74284  0.84612  1.0000
  C   C1159     1.0  0.34715  0.77493  0.83397  1.0000
  H   H1965     1.0  0.57759  0.96292  0.90448  1.0000
  H   H1966     1.0  0.37210  0.89340  0.93876  1.0000
  S   S335      1.0  0.63397  0.81052  0.89169  1.0000
  H   H1967     1.0  0.66374  0.93498  0.91093  1.0000
  S   S336      1.0  0.34471  0.71893  0.80276  1.0000
  H   H1968     1.0  0.53692  0.98508  0.93670  1.0000
  H   H1969     1.0  0.43361  0.98529  0.91090  1.0000
  C   C1160     1.0  0.49103  0.71742  0.75746  1.0000
  H   H1970     1.0  0.61556  0.97892  0.92700  1.0000
  H   H1971     1.0  0.37111  0.87573  0.95556  1.0000
  H   H1972     1.0  0.63927  0.84894  0.86722  1.0000
  C   C1161     1.0  0.49810  0.72525  0.73132  1.0000
  C   C1162     1.0  0.34436  0.64843  0.79470  1.0000
  H   H1973     1.0  0.65481  0.82058  0.75098  1.0000
  C   C1163     1.0  0.35555  0.92191  0.96041  1.0000
  H   H1974     1.0  0.33845  0.60137  0.83247  1.0000
  H   H1975     1.0  0.40199  0.97892  0.88476  1.0000
  C   C1164     1.0  0.63744  0.78822  0.86713  1.0000
  H   H1976     1.0  0.47785  0.78437  0.72887  1.0000
  H   H1977     1.0  0.64392  0.84730  0.84088  1.0000
  N   N81       1.0  0.47884  0.79047  0.82719  1.0000
  C   C1165     1.0  0.47055  0.81547  0.81947  1.0000
  C   C1166     1.0  0.46459  0.77242  0.82263  1.0000
  C   C1167     1.0  0.50613  0.78403  0.82290  1.0000
  C   C1168     1.0  0.47290  0.81741  0.80293  1.0000
  C   C1169     1.0  0.46221  0.74832  0.83266  1.0000
  C   C1170     1.0  0.51943  0.76062  0.83082  1.0000
  C   C1171     1.0  0.34139  0.96140  0.89823  1.0000
  H   H1978     1.0  0.38955  0.98326  0.91768  1.0000
  H   H1979     1.0  0.44531  0.78101  0.82130  1.0000
  H   H1980     1.0  0.47265  0.76718  0.81192  1.0000
  H   H1981     1.0  0.50985  0.78139  0.81137  1.0000
  H   H1982     1.0  0.51629  0.79952  0.82351  1.0000
  H   H1983     1.0  0.46562  0.83642  0.79866  1.0000
  H   H1984     1.0  0.49234  0.81379  0.79806  1.0000
  H   H1985     1.0  0.46180  0.80519  0.79923  1.0000
  H   H1986     1.0  0.45358  0.73610  0.82718  1.0000
  H   H1987     1.0  0.44986  0.75160  0.84269  1.0000
  H   H1988     1.0  0.48010  0.73809  0.83526  1.0000
  H   H1989     1.0  0.51888  0.74439  0.82532  1.0000
  H   H1990     1.0  0.51230  0.75697  0.84227  1.0000
  H   H1991     1.0  0.53907  0.76273  0.83074  1.0000
  N   N82       1.0  0.55585  0.82130  0.89030  1.0000
  C   C1172     1.0  0.56358  0.82888  0.90349  1.0000
  C   C1173     1.0  0.56688  0.83708  0.87748  1.0000
  C   C1174     1.0  0.56639  0.79462  0.88964  1.0000
  C   C1175     1.0  0.52807  0.82490  0.89189  1.0000
  C   C1176     1.0  0.55565  0.81403  0.91797  1.0000
  C   C1177     1.0  0.55648  0.86461  0.87618  1.0000
  C   C1178     1.0  0.56941  0.78494  0.87492  1.0000
  C   C1179     1.0  0.51574  0.82185  0.87879  1.0000
  H   H1992     1.0  0.58399  0.82770  0.90251  1.0000
  H   H1993     1.0  0.55613  0.84828  0.90472  1.0000
  H   H1994     1.0  0.56467  0.83095  0.86718  1.0000
  H   H1995     1.0  0.58720  0.83545  0.87748  1.0000
  H   H1996     1.0  0.58521  0.79073  0.89314  1.0000
  H   H1997     1.0  0.55504  0.78251  0.89725  1.0000
  H   H1998     1.0  0.52075  0.81172  0.90079  1.0000
  H   H1999     1.0  0.52017  0.84310  0.89542  1.0000
  H   H2000     1.0  0.56275  0.79422  0.91823  1.0000
  H   H2001     1.0  0.56360  0.82072  0.92657  1.0000
  H   H2002     1.0  0.53537  0.81687  0.92084  1.0000
  H   H2003     1.0  0.56517  0.87386  0.86602  1.0000
  H   H2004     1.0  0.53629  0.86793  0.87577  1.0000
  H   H2005     1.0  0.56101  0.87368  0.88492  1.0000
  H   H2006     1.0  0.57485  0.76473  0.87644  1.0000
  H   H2007     1.0  0.58458  0.79245  0.86754  1.0000
  H   H2008     1.0  0.55231  0.78862  0.86977  1.0000
  H   H2009     1.0  0.51223  0.80264  0.87920  1.0000
  H   H2010     1.0  0.52615  0.82745  0.86835  1.0000
  H   H2011     1.0  0.49777  0.83410  0.87892  1.0000
  Fe  Fe174     1.0  0.64476  0.86244  0.93105  1.0000
  C   C1180     1.0  0.47252  0.79214  0.84306  1.0000
  H   H2012     1.0  0.47557  0.83903  0.95605  1.0000
  H   H2013     1.0  0.50616  0.80482  0.84760  1.0000
  Fe  Fe175     1.0  0.62831  0.89804  0.90577  1.0000
  S   S337      1.0  0.61932  0.83610  0.92850  1.0000
  H   H2014     1.0  0.46457  0.96894  0.91001  1.0000
  H   H2015     1.0  0.48034  0.82915  0.84514  1.0000
  C   C1181     1.0  0.44500  0.71870  0.74371  1.0000
  H   H2016     1.0  0.45086  0.82192  0.82322  1.0000
  H   H2017     1.0  0.48021  0.80828  0.86111  1.0000
  S   S338      1.0  0.64642  0.80841  0.82358  1.0000
  C   C1182     1.0  0.34730  0.86720  0.94113  1.0000
  H   H2018     1.0  0.64018  0.76999  0.84808  1.0000
  H   H2019     1.0  0.49110  0.80841  0.95713  1.0000
  H   H2020     1.0  0.38298  0.94674  0.95610  1.0000
  H   H2021     1.0  0.46251  0.94288  0.87142  1.0000
  C   C1183     1.0  0.44572  0.95677  0.87061  1.0000
  C   C1184     1.0  0.44115  0.95564  0.89680  1.0000
  H   H2022     1.0  0.48548  0.69945  0.75647  1.0000
  Fe  Fe176     1.0  0.65553  0.72654  0.80062  1.0000
  H   H2023     1.0  0.55543  0.83603  0.96734  1.0000
  C   C1185     1.0  0.34863  0.74796  0.84082  1.0000
  C   C1186     1.0  0.35260  0.67058  0.79625  1.0000
  H   H2024     1.0  0.41937  0.93111  0.87991  1.0000
  C   C1187     1.0  0.37323  0.93667  0.94987  1.0000
  C   C1188     1.0  0.44490  0.96714  0.91007  1.0000
  C   C1189     1.0  0.49539  0.75920  0.74627  1.0000
  H   H2025     1.0  0.44941  0.96799  0.86006  1.0000
  H   H2026     1.0  0.36327  0.95069  0.94242  1.0000
  C   C1190     1.0  0.45789  0.74085  0.74483  1.0000
  C   C1191     1.0  0.65577  0.95370  0.90778  1.0000
  C   C1192     1.0  0.57739  0.95295  0.92746  1.0000
  C   C1193     1.0  0.34308  0.80513  0.73327  1.0000
  N   N83       1.0  0.34125  0.90632  0.95385  1.0000
  H   H2027     1.0  0.45226  0.75496  0.73596  1.0000
  H   H2028     1.0  0.49805  0.96995  0.87045  1.0000
  H   H2029     1.0  0.64927  0.84598  0.79925  1.0000
  C   C1194     1.0  0.48151  0.78391  0.74007  1.0000
  H   H2030     1.0  0.50021  0.98243  0.88679  1.0000
  H   H2031     1.0  0.55433  0.91906  0.96673  1.0000
  H   H2032     1.0  0.62649  0.86462  0.77981  1.0000
  S   S339      1.0  0.65936  0.86666  0.90737  1.0000
  H   H2033     1.0  0.65616  0.87619  0.79338  1.0000
  H   H2034     1.0  0.38715  0.99484  0.75019  1.0000
  C   C1195     1.0  0.64652  0.85880  0.77695  1.0000
  C   C1196     1.0  0.48530  0.82436  0.96329  1.0000
  H   H2035     1.0  0.57878  0.94941  0.96365  1.0000
  H   H2036     1.0  0.64820  0.84094  0.77278  1.0000
  C   C1197     1.0  0.65954  0.85720  0.79044  1.0000
  H   H2037     1.0  0.34998  0.73542  0.83251  1.0000
  C   C1198     1.0  0.53251  0.97656  0.95942  1.0000
  H   H2038     1.0  0.62078  0.96687  0.94525  1.0000
  H   H2039     1.0  0.61282  0.98646  0.88760  1.0000
  C   C1199     1.0  0.62774  0.86041  0.97046  1.0000
  Fe  Fe177     1.0  0.75942  0.34917  0.15921  1.0000
  S   S340      1.0  0.79001  0.31853  0.16350  1.0000
  S   S341      1.0  0.71966  0.34405  0.15799  1.0000
  Fe  Fe178     1.0  0.79203  0.38907  0.16062  1.0000
  S   S342      1.0  0.82436  0.36061  0.16573  1.0000
  S   S343      1.0  0.79799  0.42899  0.15357  1.0000
  Fe  Fe179     1.0  0.81452  0.34180  0.14824  1.0000
  S   S344      1.0  0.84751  0.32939  0.13252  1.0000
  Fe  Fe180     1.0  0.79716  0.34009  0.18050  1.0000
  S   S345      1.0  0.79899  0.31869  0.20271  1.0000
  S   S346      1.0  0.78341  0.37079  0.14249  1.0000
  S   S347      1.0  0.76535  0.37004  0.17689  1.0000
  H   H2040     1.0  0.67731  0.45091  0.16435  1.0000
  H   H2041     1.0  0.68441  0.40803  0.18157  1.0000
  C   C1200     1.0  0.69419  0.26997  0.15458  1.0000
  H   H2042     1.0  0.71142  0.99957  0.02279  1.0000
  H   H2043     1.0  0.84672  0.33657  0.19951  1.0000
  Fe  Fe181     1.0  0.89349  0.40308  0.04697  1.0000
  S   S348      1.0  0.86209  0.39158  0.03849  1.0000
  S   S349      1.0  0.88403  0.43694  0.05803  1.0000
  Fe  Fe182     1.0  0.92858  0.35865  0.03835  1.0000
  S   S350      1.0  0.89931  0.34276  0.02992  1.0000
  S   S351      1.0  0.96819  0.34147  0.03502  1.0000
  Fe  Fe183     1.0  0.88915  0.38128  0.01953  1.0000
  S   S352      1.0  0.88397  0.39619  0.99633  1.0000
  Fe  Fe184     1.0  0.87522  0.35458  0.04988  1.0000
  S   S353      1.0  0.84567  0.33680  0.06494  1.0000
  S   S354      1.0  0.91950  0.39653  0.02717  1.0000
  S   S355      1.0  0.90568  0.36675  0.05907  1.0000
  C   C1201     1.0  0.90958  0.44798  0.06232  1.0000
  H   H2044     1.0  0.67005  0.08458  0.11856  1.0000
  H   H2045     1.0  0.93669  0.42067  0.05282  1.0000
  H   H2046     1.0  0.84978  0.47407  0.09290  1.0000
  C   C1202     1.0  0.94145  0.47445  0.02211  1.0000
  H   H2047     1.0  0.70283  0.22092  0.12555  1.0000
  C   C1203     1.0  0.71781  0.47966  0.16340  1.0000
  H   H2048     1.0  0.95911  0.37635  0.05585  1.0000
  H   H2049     1.0  0.84371  0.24323  0.15377  1.0000
  H   H2050     1.0  0.93867  0.31558  0.98535  1.0000
  H   H2051     1.0  0.84186  0.26802  0.20542  1.0000
  H   H2052     1.0  0.89202  0.48973  0.04103  1.0000
  H   H2053     1.0  0.88786  0.43833  0.01028  1.0000
  H   H2054     1.0  0.76517  0.48024  0.19256  1.0000
  H   H2055     1.0  0.74906  0.41152  0.15325  1.0000
  C   C1204     1.0  0.71027  0.20625  0.08418  1.0000
  H   H2056     1.0  0.95197  0.40887  0.99879  1.0000
  N   N84       1.0  0.89530  0.48382  0.01862  1.0000
  H   H2057     1.0  0.81948  0.24854  0.20533  1.0000
  C   C1205     1.0  0.90567  0.46900  0.06931  1.0000
  H   H2058     1.0  0.85893  0.22116  0.17488  1.0000
  C   C1206     1.0  0.79435  0.45550  0.16265  1.0000
  C   C1207     1.0  0.78064  0.45689  0.17616  1.0000
  H   H2059     1.0  0.97232  0.44011  0.05666  1.0000
  H   H2060     1.0  0.77303  0.44099  0.18180  1.0000
  H   H2061     1.0  0.72625  0.46547  0.14321  1.0000
  C   C1208     1.0  0.84633  0.33228  0.11377  1.0000
  C   C1209     1.0  0.86851  0.33047  0.10452  1.0000
  C   C1210     1.0  0.86845  0.33241  0.08956  1.0000
  C   C1211     1.0  0.84618  0.33573  0.08369  1.0000
  C   C1212     1.0  0.82395  0.33735  0.09296  1.0000
  C   C1213     1.0  0.82398  0.33599  0.10793  1.0000
  H   H2062     1.0  0.88588  0.32743  0.10892  1.0000
  H   H2063     1.0  0.88568  0.33058  0.08259  1.0000
  H   H2064     1.0  0.80665  0.33970  0.08852  1.0000
  H   H2065     1.0  0.80676  0.33726  0.11495  1.0000
  C   C1214     1.0  0.71049  0.31498  0.15721  1.0000
  C   C1215     1.0  0.72721  0.29552  0.15218  1.0000
  C   C1216     1.0  0.71903  0.27334  0.15071  1.0000
  C   C1217     1.0  0.82259  0.31497  0.21392  1.0000
  S   S356      1.0  0.66803  0.12054  0.07258  1.0000
  C   C1218     1.0  0.68560  0.31167  0.16106  1.0000
  H   H2066     1.0  0.74633  0.29779  0.14904  1.0000
  H   H2067     1.0  0.73207  0.25870  0.14647  1.0000
  H   H2068     1.0  0.87541  0.31600  0.16025  1.0000
  H   H2069     1.0  0.88246  0.22616  0.15991  1.0000
  H   H2070     1.0  0.88004  0.32838  0.21536  1.0000
  C   C1219     1.0  0.89039  0.35426  0.98268  1.0000
  C   C1220     1.0  0.89112  0.37949  0.98137  1.0000
  H   H2071     1.0  0.85572  0.48528  0.01937  1.0000
  H   H2072     1.0  0.83562  0.26929  0.14121  1.0000
  H   H2073     1.0  0.67095  0.21343  0.08772  1.0000
  H   H2074     1.0  0.88624  0.34427  0.99317  1.0000
  C   C1221     1.0  0.77624  0.47917  0.18225  1.0000
  C   C1222     1.0  0.93361  0.43700  0.05818  1.0000
  C   C1223     1.0  0.89447  0.38855  0.09226  1.0000
  H   H2075     1.0  0.86824  0.28007  0.15182  1.0000
  C   C1224     1.0  0.85082  0.27886  0.15920  1.0000
  C   C1225     1.0  0.71069  0.18390  0.12061  1.0000
  H   H2076     1.0  0.95726  0.45955  0.02089  1.0000
  C   C1226     1.0  0.69178  0.00475  0.02100  1.0000
  H   H2077     1.0  0.70898  0.39933  0.19233  1.0000
  C   C1227     1.0  0.97874  0.37258  0.05274  1.0000
  H   H2078     1.0  0.72681  0.18032  0.12676  1.0000
  C   C1228     1.0  0.84435  0.32518  0.20970  1.0000
  H   H2079     1.0  0.88546  0.25065  0.18613  1.0000
  H   H2080     1.0  0.71202  0.38797  0.17550  1.0000
  H   H2081     1.0  0.81462  0.47566  0.14503  1.0000
  H   H2082     1.0  0.82751  0.45415  0.10011  1.0000
  H   H2083     1.0  0.88149  0.37996  0.08740  1.0000
  C   C1229     1.0  0.91734  0.46459  0.02100  1.0000
  H   H2084     1.0  0.70964  0.19505  0.07544  1.0000
  C   C1230     1.0  0.87720  0.22713  0.17160  1.0000
  C   C1231     1.0  0.68602  0.20598  0.09443  1.0000
  H   H2085     1.0  0.84451  0.46623  0.11187  1.0000
  H   H2086     1.0  0.92149  0.45233  0.01245  1.0000
  H   H2087     1.0  0.88223  0.32458  0.17648  1.0000
  H   H2088     1.0  0.85536  0.44292  0.01440  1.0000
  H   H2089     1.0  0.70069  0.25026  0.09552  1.0000
  H   H2090     1.0  0.67150  0.28269  0.10950  1.0000
  H   H2091     1.0  0.71463  0.43008  0.12978  1.0000
  H   H2092     1.0  0.93515  0.36711  0.99728  1.0000
  H   H2093     1.0  0.97175  0.40150  0.98321  1.0000
  H   H2094     1.0  0.74774  0.45356  0.15547  1.0000
  H   H2095     1.0  0.69505  0.17733  0.12794  1.0000
  H   H2096     1.0  0.89449  0.25930  0.16795  1.0000
  N   N85       1.0  0.68381  0.21977  0.10727  1.0000
  C   C1232     1.0  0.88059  0.30854  0.17107  1.0000
  H   H2097     1.0  0.71267  0.22497  0.07896  1.0000
  C   C1233     1.0  0.87242  0.47157  0.02071  1.0000
  H   H2098     1.0  0.73941  0.40523  0.12863  1.0000
  H   H2099     1.0  0.81628  0.26494  0.15772  1.0000
  C   C1234     1.0  0.91265  0.48600  0.99144  1.0000
  H   H2100     1.0  0.89904  0.29736  0.17011  1.0000
  C   C1235     1.0  0.92571  0.47974  0.07159  1.0000
  C   C1236     1.0  0.70476  0.40429  0.18108  1.0000
  N   N86       1.0  0.85606  0.27161  0.17458  1.0000
  C   C1237     1.0  0.73244  0.42221  0.13374  1.0000
  H   H2101     1.0  0.71529  0.17286  0.11149  1.0000
  H   H2102     1.0  0.82059  0.42179  0.08643  1.0000
  C   C1238     1.0  0.67753  0.28922  0.15992  1.0000
  H   H2103     1.0  0.91130  0.37479  0.09292  1.0000
  C   C1239     1.0  0.83301  0.42434  0.97611  1.0000
  H   H2104     1.0  0.95919  0.36768  0.00717  1.0000
  C   C1240     1.0  0.96157  0.35486  0.97260  1.0000
  H   H2105     1.0  0.89008  0.21333  0.17757  1.0000
  C   C1241     1.0  0.66940  0.13705  0.09851  1.0000
  C   C1242     1.0  0.72766  0.45801  0.15464  1.0000
  H   H2106     1.0  0.81465  0.43241  0.98100  1.0000
  H   H2107     1.0  0.86949  0.46222  0.03188  1.0000
  C   C1243     1.0  0.86087  0.29428  0.18022  1.0000
  C   C1244     1.0  0.83379  0.26308  0.18382  1.0000
  H   H2108     1.0  0.91341  0.45218  0.03106  1.0000
  C   C1245     1.0  0.99491  0.38382  0.05897  1.0000
  C   C1246     1.0  0.73001  0.41577  0.15020  1.0000
  H   H2109     1.0  0.86688  0.28975  0.19111  1.0000
  H   H2110     1.0  0.84360  0.30761  0.18139  1.0000
  C   C1247     1.0  0.71667  0.42717  0.17449  1.0000
  H   H2111     1.0  0.86882  0.46160  0.99955  1.0000
  H   H2112     1.0  0.73627  0.42374  0.17668  1.0000
  H   H2113     1.0  0.89309  0.32262  0.97137  1.0000
  H   H2114     1.0  0.90022  0.40472  0.08514  1.0000
  H   H2115     1.0  0.82951  0.38978  0.08655  1.0000
  S   S357      1.0  0.68493  0.24214  0.15138  1.0000
  H   H2116     1.0  0.93263  0.48229  0.99249  1.0000
  C   C1248     1.0  0.95375  0.44789  0.06043  1.0000
  C   C1249     1.0  0.94970  0.46965  0.06679  1.0000
  H   H2117     1.0  0.68531  0.10811  0.21756  1.0000
  H   H2118     1.0  0.68762  0.45478  0.14567  1.0000
  C   C1250     1.0  0.67682  0.05568  0.09149  1.0000
  H   H2119     1.0  0.94524  0.29860  0.00210  1.0000
  H   H2120     1.0  0.92903  0.32884  0.00201  1.0000
  H   H2121     1.0  0.97332  0.32542  0.00610  1.0000
  H   H2122     1.0  0.79124  0.40724  0.97361  1.0000
  C   C1251     1.0  0.94394  0.31724  0.99599  1.0000
  H   H2123     1.0  0.94484  0.49004  0.01377  1.0000
  H   H2124     1.0  0.66905  0.25337  0.09457  1.0000
  H   H2125     1.0  0.81787  0.27815  0.18376  1.0000
  C   C1252     1.0  0.98806  0.35615  0.04273  1.0000
  C   C1253     1.0  0.68882  0.44145  0.15559  1.0000
  C   C1254     1.0  0.70548  0.21166  0.11566  1.0000
  C   C1255     1.0  0.96904  0.32651  0.99487  1.0000
  H   H2126     1.0  0.88712  0.47749  0.07254  1.0000
  H   H2127     1.0  0.84648  0.43613  0.97785  1.0000
  C   C1256     1.0  0.87881  0.25283  0.17539  1.0000
  H   H2128     1.0  0.72666  0.19794  0.08956  1.0000
  H   H2129     1.0  0.72265  0.21749  0.10951  1.0000
  H   H2130     1.0  0.70734  0.44177  0.18108  1.0000
  H   H2131     1.0  0.94151  0.35395  0.97374  1.0000
  H   H2132     1.0  0.83833  0.40599  0.98196  1.0000
  C   C1257     1.0  0.83583  0.26281  0.15285  1.0000
  C   C1258     1.0  0.95442  0.39754  0.98980  1.0000
  C   C1259     1.0  0.68307  0.24673  0.10211  1.0000
  H   H2133     1.0  0.98319  0.31264  0.98987  1.0000
  H   H2134     1.0  0.72279  0.39804  0.15268  1.0000
  N   N87       1.0  0.86124  0.41326  0.10889  1.0000
  C   C1260     1.0  0.85628  0.41802  0.12442  1.0000
  C   C1261     1.0  0.86645  0.43705  0.10007  1.0000
  C   C1262     1.0  0.88391  0.39428  0.10750  1.0000
  C   C1263     1.0  0.83912  0.40394  0.10505  1.0000
  C   C1264     1.0  0.85319  0.39540  0.13561  1.0000
  C   C1265     1.0  0.84565  0.45892  0.10145  1.0000
  H   H2135     1.0  0.82722  0.24804  0.17960  1.0000
  C   C1266     1.0  0.83564  0.40669  0.08892  1.0000
  H   H2136     1.0  0.87130  0.42686  0.12735  1.0000
  H   H2137     1.0  0.83904  0.43108  0.12636  1.0000
  H   H2138     1.0  0.87068  0.43525  0.08851  1.0000
  H   H2139     1.0  0.88343  0.44267  0.10293  1.0000
  H   H2140     1.0  0.89913  0.39983  0.11230  1.0000
  H   H2141     1.0  0.88022  0.37631  0.11351  1.0000
  H   H2142     1.0  0.83924  0.38424  0.10929  1.0000
  H   H2143     1.0  0.82185  0.41357  0.11048  1.0000
  H   H2144     1.0  0.83841  0.38554  0.13355  1.0000
  H   H2145     1.0  0.87061  0.38258  0.13631  1.0000
  H   H2146     1.0  0.84782  0.40167  0.14638  1.0000
  C   C1267     1.0  0.87153  0.45262  0.01053  1.0000
  C   C1268     1.0  0.80412  0.47642  0.15552  1.0000
  H   H2147     1.0  0.74614  0.43502  0.13006  1.0000
  H   H2148     1.0  0.68915  0.13203  0.09649  1.0000
  H   H2149     1.0  0.69750  0.48436  0.16415  1.0000
  H   H2150     1.0  0.85213  0.40944  0.08123  1.0000
  N   N88       1.0  0.71525  0.43527  0.15871  1.0000
  H   H2151     1.0  0.72381  0.47608  0.17429  1.0000
  H   H2152     1.0  0.84018  0.29757  0.15801  1.0000
  C   C1269     1.0  0.95469  0.37024  0.99594  1.0000
  H   H2153     1.0  0.90623  0.46873  0.99015  1.0000
  H   H2154     1.0  0.68357  0.18647  0.09781  1.0000
  H   H2155     1.0  0.67558  0.41938  0.14149  1.0000
  H   H2156     1.0  0.68249  0.01441  0.03021  1.0000
  H   H2157     1.0  0.94120  0.48035  0.03286  1.0000
  H   H2158     1.0  0.67051  0.14888  0.11921  1.0000
  H   H2159     1.0  0.68340  0.40154  0.15808  1.0000
  H   H2160     1.0  0.93900  0.40376  0.98320  1.0000
  C   C1270     1.0  0.99730  0.35594  0.98504  1.0000
  H   H2161     1.0  0.67246  0.32660  0.16489  1.0000
  H   H2162     1.0  0.85126  0.23722  0.20063  1.0000
  H   H2163     1.0  0.82206  0.37445  0.97295  1.0000
  C   C1271     1.0  0.83719  0.25375  0.19964  1.0000
  S   S358      1.0  0.97397  0.48612  0.06713  1.0000
  C   C1272     1.0  0.67945  0.26399  0.11390  1.0000
  H   H2164     1.0  0.69721  0.26491  0.11786  1.0000
  N   N89       1.0  0.97065  0.35191  0.98708  1.0000
  C   C1273     1.0  0.67587  0.41990  0.15314  1.0000
  H   H2165     1.0  0.68194  0.03695  0.08826  1.0000
  H   H2166     1.0  0.68432  0.06836  0.08239  1.0000
  H   H2167     1.0  0.69119  0.01753  0.01094  1.0000
  H   H2168     1.0  0.68600  0.05720  0.10091  1.0000
  H   H2169     1.0  0.98765  0.39628  0.06684  1.0000
  C   C1274     1.0  0.86319  0.32052  0.21869  1.0000
  H   H2170     1.0  0.68928  0.00595  0.98768  1.0000
  H   H2171     1.0  0.99924  0.37658  0.00308  1.0000
  C   C1275     1.0  0.66916  0.14586  0.21314  1.0000
  Fe  Fe185     1.0  0.70044  0.12246  0.27456  1.0000
  S   S359      1.0  0.73707  0.10159  0.26718  1.0000
  C   C1276     1.0  0.77230  0.15673  0.25509  1.0000
  Fe  Fe186     1.0  0.70116  0.09700  0.30570  1.0000
  S   S360      1.0  0.73809  0.07475  0.30011  1.0000
  C   C1277     1.0  0.93707  0.29230  0.31443  1.0000
  Fe  Fe187     1.0  0.74858  0.11022  0.28767  1.0000
  S   S361      1.0  0.78616  0.12211  0.28866  1.0000
  Fe  Fe188     1.0  0.72300  0.06831  0.28038  1.0000
  S   S362      1.0  0.72081  0.03236  0.27168  1.0000
  S   S363      1.0  0.71253  0.13271  0.29453  1.0000
  S   S364      1.0  0.68554  0.08911  0.28645  1.0000
  Fe  Fe189     1.0  0.91078  0.24947  0.28797  1.0000
  S   S365      1.0  0.90439  0.28968  0.28094  1.0000
  S   S366      1.0  0.94920  0.23241  0.29359  1.0000
  Fe  Fe190     1.0  0.85576  0.24446  0.28849  1.0000
  S   S367      1.0  0.84645  0.28529  0.28187  1.0000
  S   S368      1.0  0.82048  0.22605  0.29178  1.0000
  Fe  Fe191     1.0  0.88011  0.28092  0.26583  1.0000
  S   S369      1.0  0.88380  0.30170  0.24332  1.0000
  Fe  Fe192     1.0  0.87147  0.29053  0.29766  1.0000
  S   S370      1.0  0.86776  0.32367  0.30990  1.0000
  S   S371      1.0  0.88878  0.24004  0.27153  1.0000
  S   S372      1.0  0.87851  0.25041  0.30555  1.0000
  Fe  Fe193     1.0  0.90085  0.36571  0.41450  1.0000
  S   S373      1.0  0.93885  0.37409  0.40631  1.0000
  S   S374      1.0  0.88238  0.37845  0.43562  1.0000
  Fe  Fe194     1.0  0.89461  0.34699  0.38608  1.0000
  S   S375      1.0  0.93193  0.35501  0.37572  1.0000
  S   S376      1.0  0.87095  0.32479  0.37673  1.0000
  Fe  Fe195     1.0  0.94419  0.33859  0.39693  1.0000
  H   H2172     1.0  0.98291  0.36338  0.35373  1.0000
  Fe  Fe196     1.0  0.92270  0.38991  0.38610  1.0000
  S   S377      1.0  0.93194  0.42688  0.37598  1.0000
  S   S378      1.0  0.90758  0.32850  0.40695  1.0000
  S   S379      1.0  0.88408  0.38358  0.39462  1.0000
  H   H2173     1.0  0.73199  0.17665  0.31527  1.0000
  C   C1278     1.0  0.99462  0.37361  0.35858  1.0000
  C   C1279     1.0  0.95394  0.25664  0.33017  1.0000
  C   C1280     1.0  0.91108  0.44340  0.40163  1.0000
  C   C1281     1.0  0.92120  0.44967  0.38745  1.0000
  C   C1282     1.0  0.80581  0.34745  0.28644  1.0000
  H   H2174     1.0  0.90888  0.42457  0.40549  1.0000
  H   H2175     1.0  0.79147  0.36277  0.28338  1.0000
  H   H2176     1.0  0.79774  0.20802  0.24909  1.0000
  H   H2177     1.0  0.86616  0.29676  0.43132  1.0000
  H   H2178     1.0  0.80894  0.42399  0.26478  1.0000
  C   C1283     1.0  0.72625  0.19148  0.22943  1.0000
  C   C1284     1.0  0.97609  0.24700  0.28880  1.0000
  C   C1285     1.0  0.97587  0.26932  0.27988  1.0000
  C   C1286     1.0  0.93571  0.41268  0.43755  1.0000
  H   H2179     1.0  0.95927  0.27768  0.27532  1.0000
  H   H2180     1.0  0.96616  0.25027  0.32065  1.0000
  C   C1287     1.0  0.87124  0.32419  0.35807  1.0000
  C   C1288     1.0  0.86314  0.30439  0.35328  1.0000
  C   C1289     1.0  0.86256  0.30359  0.33852  1.0000
  C   C1290     1.0  0.86949  0.32296  0.32848  1.0000
  C   C1291     1.0  0.87726  0.34291  0.33330  1.0000
  C   C1292     1.0  0.87856  0.34334  0.34800  1.0000
  H   H2181     1.0  0.85728  0.28957  0.36101  1.0000
  H   H2182     1.0  0.85625  0.28828  0.33497  1.0000
  H   H2183     1.0  0.88230  0.35814  0.32563  1.0000
  H   H2184     1.0  0.88454  0.35882  0.35156  1.0000
  C   C1293     1.0  0.80264  0.19511  0.24089  1.0000
  H   H2185     1.0  0.97963  0.28808  0.33848  1.0000
  H   H2186     1.0  0.72024  0.20659  0.27301  1.0000
  H   H2187     1.0  0.78492  0.16219  0.26180  1.0000
  H   H2188     1.0  0.98826  0.41817  0.40447  1.0000
  H   H2189     1.0  0.96106  0.48543  0.40243  1.0000
  H   H2190     1.0  0.80083  0.40007  0.27835  1.0000
  C   C1294     1.0  0.67835  0.07987  0.35681  1.0000
  N   N90       1.0  0.94797  0.28421  0.32836  1.0000
  S   S380      1.0  0.67992  0.15242  0.25978  1.0000
  N   N91       1.0  0.76066  0.17874  0.24597  1.0000
  H   H2191     1.0  0.71377  0.18317  0.22394  1.0000
  C   C1295     1.0  0.79532  0.15127  0.28933  1.0000
  C   C1296     1.0  0.82059  0.15319  0.28823  1.0000
  C   C1297     1.0  0.82872  0.17587  0.28871  1.0000
  C   C1298     1.0  0.81162  0.19699  0.29047  1.0000
  C   C1299     1.0  0.78634  0.19505  0.29153  1.0000
  C   C1300     1.0  0.77823  0.17245  0.29087  1.0000
  H   H2192     1.0  0.83404  0.13700  0.28700  1.0000
  H   H2193     1.0  0.84821  0.17695  0.28791  1.0000
  H   H2194     1.0  0.77291  0.21120  0.29291  1.0000
  H   H2195     1.0  0.75877  0.17138  0.29170  1.0000
  H   H2196     1.0  0.91903  0.24566  0.34190  1.0000
  C   C1301     1.0  0.68358  0.12725  0.23605  1.0000
  H   H2197     1.0  0.91818  0.28729  0.31528  1.0000
  C   C1302     1.0  0.70321  0.01746  0.46139  1.0000
  H   H2198     1.0  0.98567  0.29429  0.30539  1.0000
  H   H2199     1.0  0.94388  0.37587  0.44669  1.0000
  C   C1303     1.0  0.86017  0.30614  0.23210  1.0000
  C   C1304     1.0  0.83827  0.29623  0.23639  1.0000
  H   H2200     1.0  0.87699  0.39958  0.46192  1.0000
  H   H2201     1.0  0.79773  0.39856  0.25968  1.0000
  H   H2202     1.0  0.92605  0.31334  0.33945  1.0000
  H   H2203     1.0  0.83575  0.28514  0.24669  1.0000
  H   H2204     1.0  0.92197  0.41726  0.44681  1.0000
  C   C1305     1.0  0.95904  0.39989  0.46624  1.0000
  H   H2205     1.0  0.92507  0.40754  0.42962  1.0000
  S   S381      1.0  0.97712  0.30969  0.39801  1.0000
  N   N92       1.0  0.82350  0.34803  0.42091  1.0000
  C   C1306     1.0  0.84388  0.33258  0.42858  1.0000
  C   C1307     1.0  0.82240  0.37406  0.42405  1.0000
  C   C1308     1.0  0.83022  0.34654  0.40501  1.0000
  C   C1309     1.0  0.79994  0.33765  0.42639  1.0000
  C   C1310     1.0  0.85068  0.30575  0.42527  1.0000
  C   C1311     1.0  0.81573  0.37834  0.43995  1.0000
  C   C1312     1.0  0.74181  0.17079  0.23826  1.0000
  C   C1313     1.0  0.77595  0.35205  0.42125  1.0000
  H   H2206     1.0  0.86112  0.34106  0.42603  1.0000
  H   H2207     1.0  0.83928  0.33159  0.44044  1.0000
  H   H2208     1.0  0.80903  0.38707  0.41807  1.0000
  H   H2209     1.0  0.84042  0.38068  0.42018  1.0000
  H   H2210     1.0  0.85045  0.34609  0.40208  1.0000
  H   H2211     1.0  0.82597  0.32910  0.40207  1.0000
  H   H2212     1.0  0.80107  0.31899  0.42317  1.0000
  H   H2213     1.0  0.79721  0.33438  0.43834  1.0000
  H   H2214     1.0  0.78626  0.17750  0.22639  1.0000
  H   H2215     1.0  0.75080  0.15777  0.23056  1.0000
  C   C1314     1.0  0.67624  0.02625  0.46715  1.0000
  H   H2216     1.0  0.79759  0.37287  0.44451  1.0000
  H   H2217     1.0  0.83016  0.36899  0.44665  1.0000
  C   C1315     1.0  0.98786  0.41379  0.44458  1.0000
  C   C1316     1.0  0.97837  0.34724  0.45952  1.0000
  H   H2218     1.0  0.99519  0.47197  0.42253  1.0000
  H   H2219     1.0  0.77262  0.34621  0.41103  1.0000
  H   H2220     1.0  0.77532  0.37216  0.41997  1.0000
  C   C1317     1.0  0.91612  0.49242  0.39178  1.0000
  N   N93       1.0  0.83975  0.36360  0.26682  1.0000
  C   C1318     1.0  0.86687  0.35471  0.26321  1.0000
  C   C1319     1.0  0.82607  0.35357  0.25676  1.0000
  C   C1320     1.0  0.83231  0.35361  0.28229  1.0000
  C   C1321     1.0  0.83607  0.39122  0.26500  1.0000
  C   C1322     1.0  0.88436  0.36238  0.27257  1.0000
  C   C1323     1.0  0.81854  0.36756  0.39455  1.0000
  C   C1324     1.0  0.99009  0.37075  0.45410  1.0000
  C   C1325     1.0  0.80922  0.40381  0.26709  1.0000
  H   H2221     1.0  0.87015  0.33431  0.26410  1.0000
  H   H2222     1.0  0.87367  0.36121  0.25195  1.0000
  H   H2223     1.0  0.80583  0.35745  0.25955  1.0000
  H   H2224     1.0  0.83051  0.33316  0.25773  1.0000
  H   H2225     1.0  0.84413  0.33607  0.28531  1.0000
  H   H2226     1.0  0.83544  0.36613  0.28984  1.0000
  H   H2227     1.0  0.84572  0.39818  0.27278  1.0000
  H   H2228     1.0  0.84454  0.39840  0.25418  1.0000
  H   H2229     1.0  0.88599  0.38217  0.27009  1.0000
  H   H2230     1.0  0.87883  0.35792  0.28422  1.0000
  H   H2231     1.0  0.90309  0.35215  0.27011  1.0000
  H   H2232     1.0  0.83526  0.29497  0.42879  1.0000
  H   H2233     1.0  0.82624  0.38476  0.39466  1.0000
  C   C1326     1.0  0.77973  0.18956  0.23500  1.0000
  H   H2234     1.0  0.80259  0.34276  0.29829  1.0000
  H   H2235     1.0  0.81394  0.17823  0.24538  1.0000
  C   C1327     1.0  0.99805  0.23631  0.29445  1.0000
  C   C1328     1.0  0.67991  0.12547  0.22183  1.0000
  H   H2236     1.0  0.77452  0.12675  0.24176  1.0000
  H   H2237     1.0  0.76260  0.00683  0.28631  1.0000
  C   C1329     1.0  0.95493  0.39056  0.44182  1.0000
  H   H2238     1.0  0.91282  0.33309  0.44553  1.0000
  H   H2239     1.0  0.85727  0.30444  0.41375  1.0000
  C   C1330     1.0  0.90358  0.46158  0.41086  1.0000
  H   H2240     1.0  0.76246  0.20169  0.26236  1.0000
  C   C1331     1.0  0.93169  0.24249  0.33198  1.0000
  C   C1332     1.0  0.93591  0.28421  0.35580  1.0000
  H   H2241     1.0  0.81961  0.35454  0.23460  1.0000
  C   C1333     1.0  0.83076  0.36341  0.24069  1.0000
  C   C1334     1.0  0.93474  0.32000  0.30912  1.0000
  H   H2242     1.0  0.73029  0.17453  0.27334  1.0000
  C   C1335     1.0  0.97127  0.29496  0.32842  1.0000
  H   H2243     1.0  0.82339  0.36258  0.38343  1.0000
  N   N94       1.0  0.75487  0.12511  0.33798  1.0000
  C   C1336     1.0  0.75510  0.14845  0.32769  1.0000
  C   C1337     1.0  0.78107  0.11599  0.34085  1.0000
  C   C1338     1.0  0.73958  0.13162  0.35177  1.0000
  C   C1339     1.0  0.74381  0.10693  0.33132  1.0000
  C   C1340     1.0  0.72964  0.16276  0.32481  1.0000
  C   C1341     1.0  0.79990  0.11258  0.32735  1.0000
  C   C1342     1.0  0.73717  0.11075  0.36417  1.0000
  C   C1343     1.0  0.75158  0.07938  0.33613  1.0000
  H   H2244     1.0  0.76558  0.16136  0.33146  1.0000
  H   H2245     1.0  0.76483  0.14449  0.31700  1.0000
  H   H2246     1.0  0.78254  0.09822  0.34786  1.0000
  H   H2247     1.0  0.78778  0.12888  0.34690  1.0000
  H   H2248     1.0  0.74692  0.14645  0.35592  1.0000
  H   H2249     1.0  0.72028  0.13907  0.34995  1.0000
  H   H2250     1.0  0.72340  0.11049  0.33321  1.0000
  H   H2251     1.0  0.74816  0.10927  0.31941  1.0000
  H   H2252     1.0  0.71691  0.15069  0.32256  1.0000
  H   H2253     1.0  0.72104  0.17299  0.33392  1.0000
  H   H2254     1.0  0.79308  0.10311  0.31950  1.0000
  H   H2255     1.0  0.80481  0.13049  0.32192  1.0000
  H   H2256     1.0  0.97373  0.47511  0.37851  1.0000
  H   H2257     1.0  0.75816  0.14835  0.26288  1.0000
  H   H2258     1.0  0.69179  0.11135  0.24261  1.0000
  H   H2259     1.0  0.75513  0.10077  0.36697  1.0000
  H   H2260     1.0  0.77060  0.07297  0.33140  1.0000
  H   H2261     1.0  0.73922  0.06864  0.33215  1.0000
  H   H2262     1.0  0.75007  0.07449  0.34788  1.0000
  H   H2263     1.0  0.72518  0.09798  0.36189  1.0000
  C   C1344     1.0  0.90831  0.34440  0.45420  1.0000
  H   H2264     1.0  0.99046  0.35477  0.40402  1.0000
  C   C1345     1.0  0.74896  0.19792  0.25559  1.0000
  H   H2265     1.0  0.99709  0.40882  0.43392  1.0000
  H   H2266     1.0  0.71742  0.99607  0.24382  1.0000
  C   C1346     1.0  0.81962  0.30057  0.22731  1.0000
  H   H2267     1.0  0.97659  0.43170  0.44196  1.0000
  H   H2268     1.0  0.68154  0.06042  0.35588  1.0000
  H   H2269     1.0  0.72894  0.16040  0.24595  1.0000
  C   C1347     1.0  0.89398  0.36739  0.45210  1.0000
  H   H2270     1.0  0.91124  0.28735  0.33983  1.0000
  H   H2271     1.0  0.81721  0.10142  0.33053  1.0000
  H   H2272     1.0  0.92072  0.29201  0.36357  1.0000
  H   H2273     1.0  0.96458  0.24999  0.33943  1.0000
  C   C1348     1.0  0.99147  0.48217  0.37819  1.0000
  H   H2274     1.0  0.81463  0.20401  0.23193  1.0000
  H   H2275     1.0  0.99570  0.34588  0.37682  1.0000
  C   C1349     1.0  0.98202  0.43789  0.40116  1.0000
  H   H2276     1.0  0.89566  0.45660  0.42178  1.0000
  H   H2277     1.0  0.99669  0.29822  0.26999  1.0000
  H   H2278     1.0  0.97235  0.43881  0.39160  1.0000
  H   H2279     1.0  0.81456  0.39825  0.44071  1.0000
  C   C1350     1.0  0.88818  0.38183  0.46346  1.0000
  C   C1351     1.0  0.99720  0.28089  0.27683  1.0000
  S   S382      1.0  0.67579  0.01174  0.42979  1.0000
  H   H2280     1.0  0.80282  0.29262  0.23065  1.0000
  H   H2281     1.0  0.85018  0.35885  0.23609  1.0000
  H   H2282     1.0  0.95288  0.29065  0.35783  1.0000
  H   H2283     1.0  0.92471  0.32371  0.29950  1.0000
  H   H2284     1.0  0.94392  0.42901  0.43227  1.0000
  C   C1352     1.0  0.92354  0.47424  0.38253  1.0000
  H   H2285     1.0  0.91486  0.47895  0.46493  1.0000
  H   H2286     1.0  0.92132  0.24689  0.32255  1.0000
  H   H2287     1.0  0.74335  0.21578  0.24915  1.0000
  H   H2288     1.0  0.95293  0.32625  0.30578  1.0000
  N   N95       1.0  0.97255  0.39434  0.45182  1.0000
  H   H2289     1.0  0.71550  0.01396  0.46995  1.0000
  H   H2290     1.0  0.77156  0.20726  0.22936  1.0000
  H   H2291     1.0  0.79542  0.12140  0.25488  1.0000
  H   H2292     1.0  0.93763  0.26400  0.35836  1.0000
  H   H2293     1.0  0.96728  0.31524  0.32829  1.0000
  H   H2294     1.0  0.76022  0.34835  0.42952  1.0000
  C   C1353     1.0  0.99566  0.31573  0.41020  1.0000
  H   H2295     1.0  0.82482  0.38343  0.23861  1.0000
  H   H2296     1.0  0.96532  0.38425  0.43173  1.0000
  H   H2297     1.0  0.71003  0.03214  0.45332  1.0000
  C   C1354     1.0  0.72625  0.19167  0.26609  1.0000
  H   H2298     1.0  0.94774  0.28247  0.30561  1.0000
  H   H2299     1.0  0.79825  0.37098  0.39657  1.0000
  H   H2300     1.0  0.72762  0.11874  0.37393  1.0000
  C   C1355     1.0  0.92937  0.29298  0.34043  1.0000
  H   H2301     1.0  0.96912  0.34153  0.45114  1.0000
  H   H2302     1.0  0.80191  0.14176  0.23899  1.0000
  H   H2303     1.0  0.93852  0.22252  0.33272  1.0000
  H   H2304     1.0  0.93098  0.47926  0.37152  1.0000
  H   H2305     1.0  0.80340  0.33099  0.28166  1.0000
  H   H2306     1.0  0.69470  0.00723  0.23209  1.0000
  H   H2307     1.0  0.94550  0.43885  0.45737  1.0000
  C   C1356     1.0  0.99190  0.28915  0.31614  1.0000
  H   H2308     1.0  0.92399  0.33126  0.31721  1.0000
  H   H2309     1.0  0.71036  0.19044  0.26045  1.0000
  C   C1357     1.0  0.78679  0.13574  0.24697  1.0000
  H   H2310     1.0  0.96889  0.44474  0.41014  1.0000
  H   H2311     1.0  0.71440  0.20439  0.23626  1.0000
  H   H2312     1.0  0.98187  0.38801  0.36400  1.0000
  C   C1358     1.0  0.72835  0.00169  0.27974  1.0000
  C   C1359     1.0  0.67625  0.14943  0.24182  1.0000
  H   H2313     1.0  0.70502  0.00096  0.45580  1.0000
  H   H2314     1.0  0.99849  0.21898  0.30128  1.0000
  C   C1360     1.0  0.67837  0.09682  0.34436  1.0000
  C   C1361     1.0  0.99925  0.33981  0.41092  1.0000
  C   C1362     1.0  0.98372  0.48919  0.41881  1.0000
  H   H2315     1.0  0.99316  0.33187  0.46204  1.0000
  C   C1363     1.0  0.91628  0.33573  0.46770  1.0000
  C   C1364     1.0  0.90618  0.48613  0.40599  1.0000
  H   H2316     1.0  0.99985  0.26948  0.31733  1.0000
  C   C1365     1.0  0.66938  0.12987  0.35947  1.0000
  N   N96       1.0  0.99943  0.47879  0.39300  1.0000
  C   C1366     1.0  0.66860  0.11282  0.37193  1.0000
  C   C1367     1.0  0.94678  0.42666  0.46755  1.0000
  H   H2317     1.0  0.67424  0.07447  0.37994  1.0000
  H   H2318     1.0  0.67145  0.01804  0.39951  1.0000
  C   C1368     1.0  0.97915  0.49129  0.40293  1.0000
  S   S383      1.0  0.68048  0.08564  0.32759  1.0000
  C   C1369     1.0  0.67384  0.08780  0.37050  1.0000
  H   H2319     1.0  0.96579  0.48951  0.42577  1.0000
  C   C1370     1.0  0.67423  0.12192  0.34572  1.0000
  H   H2320     1.0  0.67378  0.13517  0.33620  1.0000
  H   H2321     1.0  0.92695  0.31772  0.46936  1.0000
  H   H2322     1.0  0.94449  0.38786  0.46969  1.0000
  H   H2323     1.0  0.96541  0.34909  0.46948  1.0000
  H   H2324     1.0  0.73773  0.20181  0.22092  1.0000
  Fe  Fe197     1.0  0.93071  0.36818  0.54325  1.0000
  S   S384      1.0  0.93852  0.40708  0.53702  1.0000
  S   S385      1.0  0.93848  0.35325  0.56621  1.0000
  Fe  Fe198     1.0  0.92236  0.36394  0.51230  1.0000
  S   S386      1.0  0.92898  0.40231  0.50426  1.0000
  S   S387      1.0  0.92063  0.33848  0.49590  1.0000
  Fe  Fe199     1.0  0.96047  0.39397  0.51727  1.0000
  H   H2325     1.0  0.69606  0.03029  0.49148  1.0000
  Fe  Fe200     1.0  0.90624  0.41228  0.52465  1.0000
  S   S388      1.0  0.88210  0.44910  0.52305  1.0000
  S   S389      1.0  0.95575  0.35480  0.52417  1.0000
  S   S390      1.0  0.89645  0.37423  0.53196  1.0000
  Fe  Fe201     1.0  0.74727  0.07494  0.67763  1.0000
  S   S391      1.0  0.70863  0.09506  0.67939  1.0000
  S   S392      1.0  0.75242  0.03474  0.68755  1.0000
  Fe  Fe202     1.0  0.76859  0.12072  0.66216  1.0000
  S   S393      1.0  0.73100  0.14311  0.66200  1.0000
  S   S394      1.0  0.80386  0.13621  0.65165  1.0000
  Fe  Fe203     1.0  0.72421  0.12673  0.68513  1.0000
  H   H2326     1.0  0.96231  0.47037  0.53834  1.0000
  Fe  Fe204     1.0  0.71826  0.10966  0.65624  1.0000
  H   H2327     1.0  0.67468  0.00262  0.56372  1.0000
  S   S395      1.0  0.76238  0.10562  0.68547  1.0000
  S   S396      1.0  0.75642  0.08821  0.65430  1.0000
  Fe  Fe205     1.0  0.89798  0.28707  0.67099  1.0000
  S   S397      1.0  0.91670  0.24888  0.67724  1.0000
  S   S398      1.0  0.88977  0.31740  0.68552  1.0000
  Fe  Fe206     1.0  0.89659  0.27761  0.63994  1.0000
  S   S399      1.0  0.91493  0.23863  0.64425  1.0000
  S   S400      1.0  0.88290  0.28927  0.61804  1.0000
  Fe  Fe207     1.0  0.88941  0.23665  0.66493  1.0000
  S   S401      1.0  0.86539  0.20723  0.67533  1.0000
  Fe  Fe208     1.0  0.94056  0.25437  0.65599  1.0000
  S   S402      1.0  0.98221  0.24349  0.65027  1.0000
  S   S403      1.0  0.86950  0.27484  0.66001  1.0000
  S   S404      1.0  0.92343  0.29337  0.65039  1.0000
  S   S405      1.0  0.70707  0.15525  0.70013  1.0000
  H   H2328     1.0  0.76421  0.23994  0.65042  1.0000
  H   H2329     1.0  0.79974  0.07249  0.70328  1.0000
  C   C1371     1.0  0.85512  0.10465  0.67490  1.0000
  H   H2330     1.0  0.83085  0.28207  0.61618  1.0000
  C   C1372     1.0  0.72075  0.04104  0.64149  1.0000
  C   C1373     1.0  0.89918  0.45845  0.54724  1.0000
  C   C1374     1.0  0.67987  0.04338  0.66601  1.0000
  H   H2331     1.0  0.80518  0.29828  0.62669  1.0000
  H   H2332     1.0  0.87025  0.27635  0.70382  1.0000
  C   C1375     1.0  0.90685  0.47370  0.55579  1.0000
  H   H2333     1.0  0.77509  0.02180  0.65923  1.0000
  C   C1376     1.0  0.87341  0.31457  0.70301  1.0000
  H   H2334     1.0  0.95154  0.32774  0.71262  1.0000
  C   C1377     1.0  0.68777  0.10584  0.62484  1.0000
  C   C1378     1.0  0.70895  0.10579  0.60057  1.0000
  C   C1379     1.0  0.70926  0.10733  0.61526  1.0000
  C   C1380     1.0  0.90652  0.49009  0.47375  1.0000
  H   H2335     1.0  0.72599  0.11001  0.61913  1.0000
  C   C1381     1.0  0.82030  0.15645  0.65833  1.0000
  C   C1382     1.0  0.84088  0.16484  0.64969  1.0000
  C   C1383     1.0  0.85478  0.18048  0.65464  1.0000
  C   C1384     1.0  0.84838  0.18783  0.66837  1.0000
  C   C1385     1.0  0.82797  0.17920  0.67706  1.0000
  C   C1386     1.0  0.81389  0.16382  0.67205  1.0000
  H   H2336     1.0  0.84619  0.15910  0.63912  1.0000
  H   H2337     1.0  0.87067  0.18653  0.64792  1.0000
  H   H2338     1.0  0.82289  0.18459  0.68773  1.0000
  H   H2339     1.0  0.79820  0.15750  0.67888  1.0000
  S   S406      1.0  0.68745  0.10233  0.57669  1.0000
  H   H2340     1.0  0.71974  0.00376  0.66122  1.0000
  C   C1387     1.0  0.89665  0.37340  0.47685  1.0000
  C   C1388     1.0  0.68262  0.17005  0.58098  1.0000
  H   H2341     1.0  0.68322  0.06269  0.66527  1.0000
  H   H2342     1.0  0.98156  0.48525  0.55681  1.0000
  C   C1389     1.0  0.88987  0.46836  0.53437  1.0000
  H   H2343     1.0  0.94510  0.22645  0.60282  1.0000
  H   H2344     1.0  0.90016  0.43901  0.55073  1.0000
  S   S407      1.0  0.68683  0.10794  0.64336  1.0000
  H   H2345     1.0  0.68715  0.03370  0.60788  1.0000
  C   C1390     1.0  0.76793  0.00596  0.66525  1.0000
  C   C1391     1.0  0.91051  0.35017  0.47907  1.0000
  H   H2346     1.0  0.98361  0.27295  0.67337  1.0000
  H   H2347     1.0  0.81654  0.03311  0.68283  1.0000
  H   H2348     1.0  0.82647  0.48676  0.56454  1.0000
  H   H2349     1.0  0.85330  0.12170  0.68006  1.0000
  H   H2350     1.0  0.85706  0.03182  0.67290  1.0000
  H   H2351     1.0  0.89190  0.38457  0.48558  1.0000
  C   C1392     1.0  0.92038  0.33786  0.58057  1.0000
  C   C1393     1.0  0.90214  0.32456  0.57831  1.0000
  C   C1394     1.0  0.89024  0.31038  0.58998  1.0000
  C   C1395     1.0  0.89645  0.30935  0.60397  1.0000
  C   C1396     1.0  0.91396  0.32344  0.60629  1.0000
  C   C1397     1.0  0.92594  0.33746  0.59464  1.0000
  H   H2352     1.0  0.89770  0.32467  0.56755  1.0000
  H   H2353     1.0  0.87659  0.29969  0.58807  1.0000
  H   H2354     1.0  0.91847  0.32335  0.61704  1.0000
  H   H2355     1.0  0.93982  0.34791  0.59651  1.0000
  N   N97       1.0  0.81136  0.24777  0.63947  1.0000
  C   C1398     1.0  0.83915  0.24405  0.63780  1.0000
  C   C1399     1.0  0.80220  0.26441  0.65097  1.0000
  C   C1400     1.0  0.80169  0.25951  0.62567  1.0000
  C   C1401     1.0  0.80260  0.22316  0.64347  1.0000
  C   C1402     1.0  0.85235  0.23032  0.62517  1.0000
  C   C1403     1.0  0.80487  0.25275  0.66654  1.0000
  C   C1404     1.0  0.81064  0.28410  0.61927  1.0000
  C   C1405     1.0  0.77440  0.22335  0.64601  1.0000
  H   H2356     1.0  0.84627  0.26191  0.63655  1.0000
  H   H2357     1.0  0.84612  0.23373  0.64768  1.0000
  H   H2358     1.0  0.78253  0.27234  0.65053  1.0000
  H   H2359     1.0  0.81219  0.28066  0.64917  1.0000
  H   H2360     1.0  0.80622  0.24680  0.61729  1.0000
  H   H2361     1.0  0.78119  0.26320  0.62724  1.0000
  H   H2362     1.0  0.80941  0.21108  0.63494  1.0000
  H   H2363     1.0  0.81062  0.21288  0.65302  1.0000
  H   H2364     1.0  0.84812  0.21133  0.62610  1.0000
  H   H2365     1.0  0.84837  0.24034  0.61461  1.0000
  H   H2366     1.0  0.87256  0.22891  0.62531  1.0000
  H   H2367     1.0  0.82412  0.24475  0.66795  1.0000
  H   H2368     1.0  0.79942  0.26716  0.67385  1.0000
  H   H2369     1.0  0.79263  0.23854  0.67016  1.0000
  H   H2370     1.0  0.94491  0.30596  0.68546  1.0000
  H   H2371     1.0  0.80203  0.29115  0.60932  1.0000
  H   H2372     1.0  0.95642  0.43512  0.47468  1.0000
  H   H2373     1.0  0.74157  0.03499  0.62034  1.0000
  H   H2374     1.0  0.82009  0.05699  0.64228  1.0000
  C   C1406     1.0  0.74468  0.03327  0.63177  1.0000
  H   H2375     1.0  0.87297  0.49388  0.57925  1.0000
  H   H2376     1.0  0.72620  0.04317  0.65208  1.0000
  H   H2377     1.0  0.68062  0.18706  0.58612  1.0000
  H   H2378     1.0  0.91872  0.24513  0.59633  1.0000
  H   H2379     1.0  0.84767  0.46033  0.58024  1.0000
  H   H2380     1.0  0.79458  0.04141  0.70542  1.0000
  H   H2381     1.0  0.76719  0.22158  0.63590  1.0000
  H   H2382     1.0  0.91409  0.46584  0.56572  1.0000
  C   C1407     1.0  0.94527  0.47008  0.51244  1.0000
  H   H2383     1.0  0.87397  0.35230  0.70575  1.0000
  H   H2384     1.0  0.78892  0.27401  0.71809  1.0000
  C   C1408     1.0  0.68731  0.10242  0.59538  1.0000
  H   H2385     1.0  0.70125  0.16794  0.57476  1.0000
  C   C1409     1.0  0.99032  0.48616  0.54548  1.0000
  H   H2386     1.0  0.95840  0.45695  0.50630  1.0000
  H   H2387     1.0  0.91936  0.27766  0.70415  1.0000
  H   H2388     1.0  0.81077  0.08488  0.66008  1.0000
  N   N98       1.0  0.97268  0.26853  0.59991  1.0000
  C   C1410     1.0  0.95079  0.26412  0.59325  1.0000
  C   C1411     1.0  0.98327  0.28977  0.59075  1.0000
  C   C1412     1.0  0.96387  0.27485  0.61500  1.0000
  H   H2389     1.0  0.95549  0.33388  0.68692  1.0000
  C   C1413     1.0  0.93495  0.24534  0.60197  1.0000
  C   C1414     1.0  0.93727  0.27141  0.70853  1.0000
  H   H2390     1.0  0.99579  0.23942  0.58937  1.0000
  H   H2391     1.0  0.84375  0.03792  0.65123  1.0000
  H   H2392     1.0  0.93827  0.28163  0.59115  1.0000
  H   H2393     1.0  0.95665  0.25739  0.58261  1.0000
  C   C1415     1.0  0.68818  0.04025  0.61829  1.0000
  H   H2394     1.0  0.96973  0.30680  0.59129  1.0000
  H   H2395     1.0  0.94433  0.28365  0.61593  1.0000
  H   H2396     1.0  0.96386  0.25793  0.62284  1.0000
  C   C1416     1.0  0.93596  0.24567  0.71684  1.0000
  C   C1417     1.0  0.97003  0.48792  0.53560  1.0000
  H   H2397     1.0  0.77003  0.20766  0.65412  1.0000
  H   H2398     1.0  0.92753  0.25023  0.61282  1.0000
  N   N99       1.0  0.83372  0.06613  0.67612  1.0000
  H   H2399     1.0  0.67182  0.05438  0.64453  1.0000
  H   H2400     1.0  0.97421  0.28776  0.56902  1.0000
  C   C1418     1.0  0.99021  0.27556  0.71325  1.0000
  C   C1419     1.0  0.95543  0.31464  0.69201  1.0000
  C   C1420     1.0  0.99060  0.28718  0.57466  1.0000
  H   H2401     1.0  0.99229  0.47994  0.49220  1.0000
  C   C1421     1.0  0.94287  0.31487  0.70761  1.0000
  H   H2402     1.0  0.75823  0.04568  0.63242  1.0000
  N   N100      1.0  0.70154  0.02408  0.64340  1.0000
  H   H2403     1.0  0.83458  0.08813  0.69339  1.0000
  H   H2404     1.0  0.69451  0.03169  0.67165  1.0000
  H   H2405     1.0  0.81169  0.03908  0.65882  1.0000
  C   C1422     1.0  0.67818  0.99784  0.48988  1.0000
  H   H2406     1.0  0.95077  0.26885  0.69888  1.0000
  C   C1423     1.0  0.85823  0.04990  0.67630  1.0000
  C   C1424     1.0  0.86870  0.33491  0.71080  1.0000
  H   H2407     1.0  0.97304  0.31173  0.61564  1.0000
  C   C1425     1.0  0.69643  0.01814  0.62916  1.0000
  H   H2408     1.0  0.69531  0.99667  0.57754  1.0000
  H   H2409     1.0  0.68247  0.15395  0.58928  1.0000
  H   H2410     1.0  0.98712  0.26632  0.70423  1.0000
  H   H2411     1.0  0.98265  0.22993  0.60701  1.0000
  C   C1426     1.0  0.68514  0.01705  0.49833  1.0000
  C   C1427     1.0  0.67582  0.99932  0.57545  1.0000
  H   H2412     1.0  0.92191  0.49138  0.47981  1.0000
  C   C1428     1.0  0.84633  0.47072  0.58956  1.0000
  H   H2413     1.0  0.88922  0.04054  0.68881  1.0000
  H   H2414     1.0  0.92358  0.32386  0.70662  1.0000
  C   C1429     1.0  0.82829  0.07203  0.66072  1.0000
  C   C1430     1.0  0.99757  0.47250  0.51533  1.0000
  H   H2415     1.0  0.87340  0.09418  0.67675  1.0000
  C   C1431     1.0  0.80825  0.05388  0.70078  1.0000
  H   H2416     1.0  0.87250  0.05735  0.66809  1.0000
  H   H2417     1.0  0.85454  0.11060  0.66328  1.0000
  H   H2418     1.0  0.99721  0.33217  0.49207  1.0000
  H   H2419     1.0  0.99792  0.28748  0.61959  1.0000
  H   H2420     1.0  0.66784  0.15442  0.56503  1.0000
  C   C1432     1.0  0.88907  0.47473  0.48410  1.0000
  H   H2421     1.0  0.98892  0.39619  0.53779  1.0000
  C   C1433     1.0  0.81331  0.05288  0.68443  1.0000
  H   H2422     1.0  0.84273  0.08161  0.65391  1.0000
  C   C1434     1.0  0.67815  0.03667  0.65092  1.0000
  H   H2423     1.0  0.70126  0.05382  0.61610  1.0000
  H   H2424     1.0  0.82480  0.04783  0.70633  1.0000
  H   H2425     1.0  0.81625  0.10266  0.68008  1.0000
  C   C1435     1.0  0.86877  0.04385  0.69081  1.0000
  H   H2426     1.0  0.93336  0.23302  0.70927  1.0000
  H   H2427     1.0  0.86453  0.05899  0.69755  1.0000
  H   H2428     1.0  0.72552  0.10745  0.59316  1.0000
  H   H2429     1.0  0.85933  0.45998  0.59683  1.0000
  H   H2430     1.0  0.75321  0.01435  0.63515  1.0000
  H   H2431     1.0  0.97172  0.29288  0.63250  1.0000
  C   C1436     1.0  0.83381  0.09029  0.68166  1.0000
  H   H2432     1.0  0.79539  0.06022  0.68029  1.0000
  C   C1437     1.0  0.97771  0.29268  0.62084  1.0000
  C   C1438     1.0  0.86656  0.29218  0.70964  1.0000
  H   H2433     1.0  0.99169  0.45429  0.51927  1.0000
  H   H2434     1.0  0.82761  0.47153  0.59558  1.0000
  S   S408      1.0  0.99624  0.40598  0.50681  1.0000
  C   C1439     1.0  0.82591  0.04997  0.65304  1.0000
  H   H2435     1.0  0.86226  0.02709  0.69697  1.0000
  H   H2436     1.0  0.90006  0.45783  0.48890  1.0000
  H   H2437     1.0  0.71321  0.05993  0.63713  1.0000
  H   H2438     1.0  0.66871  0.02721  0.50411  1.0000
  H   H2439     1.0  0.87958  0.48450  0.49319  1.0000
  H   H2440     1.0  0.66948  0.04944  0.62185  1.0000
  H   H2441     1.0  0.97475  0.30573  0.69127  1.0000
  H   H2442     1.0  0.87537  0.46855  0.47845  1.0000
  H   H2443     1.0  0.94043  0.46115  0.52342  1.0000
  H   H2444     1.0  0.67603  0.04337  0.47193  1.0000
  H   H2445     1.0  0.67685  0.08139  0.48313  1.0000
  C   C1440     1.0  0.99092  0.24530  0.60027  1.0000
  C   C1441     1.0  0.95525  0.49454  0.51222  1.0000
  H   H2446     1.0  0.92757  0.42649  0.47285  1.0000
  C   C1442     1.0  0.69657  0.15099  0.71876  1.0000
  C   C1443     1.0  0.75551  0.00760  0.67908  1.0000
  C   C1444     1.0  0.71095  0.00036  0.65203  1.0000
  H   H2447     1.0  0.92808  0.47369  0.50724  1.0000
  H   H2448     1.0  0.71285  0.00714  0.62379  1.0000
  H   H2449     1.0  0.99965  0.30320  0.56950  1.0000
  C   C1445     1.0  0.88759  0.49375  0.53028  1.0000
  H   H2450     1.0  0.69670  0.00742  0.50666  1.0000
  H   H2451     1.0  0.68163  0.00632  0.63073  1.0000
  N   N101      1.0  0.94289  0.29049  0.71696  1.0000
  H   H2452     1.0  0.97171  0.39508  0.47470  1.0000
  H   H2453     1.0  0.99971  0.29170  0.70902  1.0000
  N   N102      1.0  0.97796  0.49303  0.51967  1.0000
  H   H2454     1.0  0.99985  0.29379  0.59479  1.0000
  H   H2455     1.0  0.85565  0.49534  0.55791  1.0000
  H   H2456     1.0  0.69904  0.11172  0.72066  1.0000
  H   H2457     1.0  0.69178  0.18973  0.72048  1.0000
  Fe  Fe209     1.0  0.78485  0.33042  0.79280  1.0000
  S   S409      1.0  0.82357  0.31149  0.78880  1.0000
  S   S410      1.0  0.75956  0.30326  0.80472  1.0000
  Fe  Fe210     1.0  0.80151  0.37992  0.77977  1.0000
  S   S411      1.0  0.84105  0.36320  0.77434  1.0000
  S   S412      1.0  0.78951  0.42113  0.77427  1.0000
  Fe  Fe211     1.0  0.82532  0.33283  0.76684  1.0000
  S   S413      1.0  0.83846  0.30602  0.75014  1.0000
  Fe  Fe212     1.0  0.83573  0.34320  0.79669  1.0000
  S   S414      1.0  0.86661  0.33585  0.81093  1.0000
  S   S415      1.0  0.78588  0.35085  0.77053  1.0000
  S   S416      1.0  0.79696  0.36095  0.80241  1.0000
  Fe  Fe213     1.0  0.88010  0.36351  0.88957  1.0000
  S   S417      1.0  0.89404  0.39921  0.88171  1.0000
  S   S418      1.0  0.85377  0.35038  0.87691  1.0000
  Fe  Fe214     1.0  0.89968  0.36030  0.91886  1.0000
  S   S419      1.0  0.91511  0.39562  0.91285  1.0000
  S   S420      1.0  0.90153  0.33935  0.94124  1.0000
  Fe  Fe215     1.0  0.87973  0.40935  0.90359  1.0000
  S   S421      1.0  0.85927  0.44695  0.90587  1.0000
  Fe  Fe216     1.0  0.92822  0.38220  0.89157  1.0000
  S   S422      1.0  0.96419  0.39280  0.88009  1.0000
  S   S423      1.0  0.86310  0.37513  0.91104  1.0000
  S   S424      1.0  0.91562  0.34517  0.89800  1.0000
  C   C1446     1.0  0.87432  0.45993  0.91726  1.0000
  C   C1447     1.0  0.88556  0.44510  0.92839  1.0000
  H   H2458     1.0  0.88271  0.42617  0.93093  1.0000
  N   N103      1.0  0.80216  0.29493  0.84359  1.0000
  C   C1448     1.0  0.83790  0.27932  0.82488  1.0000
  H   H2459     1.0  0.90416  0.29568  0.72515  1.0000
  H   H2460     1.0  0.96517  0.26780  0.73241  1.0000
  H   H2461     1.0  0.82977  0.45228  0.81001  1.0000
  C   C1449     1.0  0.89861  0.35497  0.95655  1.0000
  H   H2462     1.0  0.78580  0.42955  0.95875  1.0000
  C   C1450     1.0  0.79621  0.44396  0.78399  1.0000
  H   H2463     1.0  0.76384  0.26855  0.83707  1.0000
  H   H2464     1.0  0.73277  0.26652  0.76003  1.0000
  H   H2465     1.0  0.81316  0.32570  0.82878  1.0000
  C   C1451     1.0  0.99410  0.48122  0.88385  1.0000
  H   H2466     1.0  0.70873  0.04884  0.88970  1.0000
  C   C1452     1.0  0.89996  0.38008  0.95531  1.0000
  H   H2467     1.0  0.82026  0.41947  0.79728  1.0000
  C   C1453     1.0  0.86394  0.34333  0.82872  1.0000
  C   C1454     1.0  0.84284  0.35725  0.83493  1.0000
  C   C1455     1.0  0.84044  0.36047  0.84958  1.0000
  C   C1456     1.0  0.85938  0.35048  0.85803  1.0000
  C   C1457     1.0  0.88099  0.33767  0.85162  1.0000
  C   C1458     1.0  0.88319  0.33404  0.83705  1.0000
  H   H2468     1.0  0.82817  0.36511  0.82853  1.0000
  H   H2469     1.0  0.82372  0.37050  0.85446  1.0000
  H   H2470     1.0  0.89557  0.32960  0.85804  1.0000
  H   H2471     1.0  0.89966  0.32341  0.83232  1.0000
  C   C1459     1.0  0.85110  0.31034  0.73187  1.0000
  C   C1460     1.0  0.84776  0.47258  0.75956  1.0000
  C   C1461     1.0  0.83307  0.35799  0.95333  1.0000
  H   H2472     1.0  0.77326  0.47316  0.77263  1.0000
  N   N104      1.0  0.77204  0.26798  0.75539  1.0000
  H   H2473     1.0  0.83702  0.29675  0.81765  1.0000
  H   H2474     1.0  0.85410  0.34859  0.73106  1.0000
  C   C1462     1.0  0.79239  0.27524  0.72921  1.0000
  S   S425      1.0  0.67942  0.18504  0.79389  1.0000
  C   C1463     1.0  0.73549  0.29151  0.79842  1.0000
  C   C1464     1.0  0.72888  0.26873  0.80492  1.0000
  C   C1465     1.0  0.71036  0.25839  0.80001  1.0000
  C   C1466     1.0  0.69796  0.27091  0.78865  1.0000
  C   C1467     1.0  0.70405  0.29405  0.78248  1.0000
  C   C1468     1.0  0.72274  0.30426  0.78727  1.0000
  H   H2475     1.0  0.73840  0.25881  0.81365  1.0000
  H   H2476     1.0  0.69438  0.30403  0.77381  1.0000
  H   H2477     1.0  0.72720  0.32203  0.78238  1.0000
  C   C1469     1.0  0.87709  0.48469  0.91440  1.0000
  C   C1470     1.0  0.82157  0.29625  0.85315  1.0000
  C   C1471     1.0  0.81270  0.30341  0.86839  1.0000
  H   H2478     1.0  0.83321  0.27809  0.85505  1.0000
  H   H2479     1.0  0.83463  0.30896  0.84780  1.0000
  H   H2480     1.0  0.84354  0.26440  0.81794  1.0000
  H   H2481     1.0  0.79951  0.32048  0.86860  1.0000
  H   H2482     1.0  0.82889  0.30640  0.87331  1.0000
  H   H2483     1.0  0.80443  0.28837  0.87541  1.0000
  H   H2484     1.0  0.68433  0.09292  0.87079  1.0000
  H   H2485     1.0  0.97092  0.29811  0.72876  1.0000
  C   C1472     1.0  0.90053  0.48250  0.87398  1.0000
  H   H2486     1.0  0.68208  0.02636  0.88308  1.0000
  H   H2487     1.0  0.77564  0.39632  0.94543  1.0000
  H   H2488     1.0  0.70589  0.24061  0.80489  1.0000
  H   H2489     1.0  0.89458  0.47646  0.75231  1.0000
  H   H2490     1.0  0.95965  0.45363  0.92305  1.0000
  H   H2491     1.0  0.70954  0.07079  0.86535  1.0000
  N   N105      1.0  0.87942  0.48885  0.86493  1.0000
  H   H2492     1.0  0.85523  0.46742  0.85722  1.0000
  C   C1473     1.0  0.74911  0.31204  0.75014  1.0000
  C   C1474     1.0  0.69681  0.06676  0.88794  1.0000
  H   H2493     1.0  0.79998  0.27583  0.82538  1.0000
  C   C1475     1.0  0.79331  0.40997  0.96166  1.0000
  H   H2494     1.0  0.79980  0.23582  0.75762  1.0000
  H   H2495     1.0  0.81655  0.24489  0.77874  1.0000
  C   C1476     1.0  0.75038  0.22983  0.76484  1.0000
  H   H2496     1.0  0.68252  0.10754  0.74657  1.0000
  C   C1477     1.0  0.90522  0.47899  0.93240  1.0000
  H   H2497     1.0  0.99825  0.49122  0.91003  1.0000
  H   H2498     1.0  0.89535  0.47027  0.88396  1.0000
  S   S426      1.0  0.67602  0.25798  0.78111  1.0000
  C   C1478     1.0  0.78580  0.46858  0.78069  1.0000
  C   C1479     1.0  0.75029  0.25771  0.76416  1.0000
  H   H2499     1.0  0.76682  0.29734  0.76881  1.0000
  H   H2500     1.0  0.81172  0.26392  0.75461  1.0000
  H   H2501     1.0  0.79316  0.29478  0.72998  1.0000
  C   C1480     1.0  0.96572  0.45938  0.91153  1.0000
  H   H2502     1.0  0.85667  0.45908  0.73832  1.0000
  H   H2503     1.0  0.93860  0.31422  0.74288  1.0000
  H   H2504     1.0  0.90360  0.39018  0.94482  1.0000
  H   H2505     1.0  0.81454  0.25723  0.83957  1.0000
  H   H2506     1.0  0.84009  0.34079  0.95989  1.0000
  C   C1481     1.0  0.92233  0.29345  0.72917  1.0000
  H   H2507     1.0  0.77813  0.35673  0.83437  1.0000
  H   H2508     1.0  0.70694  0.08088  0.89062  1.0000
  H   H2509     1.0  0.79195  0.43606  0.93489  1.0000
  H   H2510     1.0  0.74257  0.27846  0.85171  1.0000
  H   H2511     1.0  0.89807  0.45869  0.84264  1.0000
  H   H2512     1.0  0.78525  0.31695  0.82590  1.0000
  H   H2513     1.0  0.88369  0.43289  0.85095  1.0000
  H   H2514     1.0  0.74826  0.33069  0.75328  1.0000
  H   H2515     1.0  0.85314  0.49133  0.88401  1.0000
  H   H2516     1.0  0.95916  0.47941  0.91009  1.0000
  H   H2517     1.0  0.83142  0.47369  0.76776  1.0000
  H   H2518     1.0  0.79253  0.34582  0.85003  1.0000
  H   H2519     1.0  0.81387  0.42962  0.91987  1.0000
  C   C1482     1.0  0.95080  0.44697  0.90281  1.0000
  C   C1483     1.0  0.79594  0.25496  0.76037  1.0000
  C   C1484     1.0  0.79611  0.31913  0.83453  1.0000
  H   H2520     1.0  0.74846  0.26192  0.77538  1.0000
  C   C1485     1.0  0.68987  0.17173  0.72617  1.0000
  C   C1486     1.0  0.92163  0.31525  0.73774  1.0000
  H   H2521     1.0  0.86125  0.45774  0.76433  1.0000
  H   H2522     1.0  0.91674  0.47198  0.86818  1.0000
  H   H2523     1.0  0.73384  0.22480  0.77208  1.0000
  C   C1487     1.0  0.77951  0.28652  0.85244  1.0000
  H   H2524     1.0  0.77119  0.29936  0.86034  1.0000
  H   H2525     1.0  0.83332  0.44527  0.75019  1.0000
  H   H2526     1.0  0.90601  0.31482  0.74651  1.0000
  H   H2527     1.0  0.93091  0.45087  0.90681  1.0000
  H   H2528     1.0  0.78440  0.24355  0.78341  1.0000
  C   C1488     1.0  0.68335  0.03142  0.87123  1.0000
  C   C1489     1.0  0.82332  0.40696  0.93943  1.0000
  H   H2529     1.0  0.86770  0.45356  0.87282  1.0000
  H   H2530     1.0  0.82177  0.44684  0.93253  1.0000
  C   C1490     1.0  0.00011  0.47149  0.93100  1.0000
  H   H2531     1.0  0.91052  0.44292  0.94422  1.0000
  C   C1491     1.0  0.90107  0.45462  0.93598  1.0000
  H   H2532     1.0  0.85080  0.37999  0.96379  1.0000
  H   H2533     1.0  0.90806  0.44093  0.85886  1.0000
  C   C1492     1.0  0.85573  0.29005  0.72405  1.0000
  H   H2534     1.0  0.67233  0.01426  0.85383  1.0000
  C   C1493     1.0  0.89189  0.44876  0.85316  1.0000
  C   C1494     1.0  0.87232  0.46487  0.86237  1.0000
  N   N106      1.0  0.67379  0.05824  0.86756  1.0000
  H   H2535     1.0  0.99435  0.33840  0.95929  1.0000
  H   H2536     1.0  0.95283  0.45421  0.89126  1.0000
  C   C1495     1.0  0.84059  0.46291  0.74648  1.0000
  H   H2537     1.0  0.74889  0.22435  0.75423  1.0000
  H   H2538     1.0  0.92286  0.27677  0.73719  1.0000
  C   C1496     1.0  0.83148  0.37977  0.96203  1.0000
  C   C1497     1.0  0.97464  0.33634  0.96234  1.0000
  C   C1498     1.0  0.68081  0.16939  0.74088  1.0000
  H   H2539     1.0  0.96577  0.33994  0.95227  1.0000
  H   H2540     1.0  0.97156  0.35392  0.90359  1.0000
  H   H2541     1.0  0.99268  0.42453  0.92609  1.0000
  H   H2542     1.0  0.84333  0.40409  0.93534  1.0000
  H   H2543     1.0  0.75266  0.31381  0.73827  1.0000
  C   C1499     1.0  0.69140  0.07293  0.87219  1.0000
  C   C1500     1.0  0.68468  0.12550  0.74092  1.0000
  C   C1501     1.0  0.77197  0.26457  0.73991  1.0000
  H   H2544     1.0  0.75695  0.39978  0.96215  1.0000
  C   C1502     1.0  0.78174  0.34038  0.84238  1.0000
  H   H2545     1.0  0.85269  0.27840  0.83178  1.0000
  H   H2546     1.0  0.99148  0.47869  0.87278  1.0000
  H   H2547     1.0  0.82568  0.47542  0.74145  1.0000
  H   H2548     1.0  0.76352  0.33631  0.84778  1.0000
  C   C1503     1.0  0.81259  0.27600  0.83354  1.0000
  H   H2549     1.0  0.95321  0.23802  0.72153  1.0000
  C   C1504     1.0  0.89279  0.49416  0.92185  1.0000
  C   C1505     1.0  0.81218  0.43830  0.79457  1.0000
  H   H2550     1.0  0.97294  0.31712  0.96684  1.0000
  C   C1506     1.0  0.76988  0.29477  0.75724  1.0000
  H   H2551     1.0  0.78738  0.30213  0.75312  1.0000
  C   C1507     1.0  0.75851  0.28350  0.84399  1.0000
  H   H2552     1.0  0.67976  0.06671  0.89556  1.0000
  H   H2553     1.0  0.78462  0.26859  0.85896  1.0000
  C   C1508     1.0  0.88263  0.49283  0.74765  1.0000
  C   C1509     1.0  0.77605  0.39404  0.95721  1.0000
  H   H2554     1.0  0.79593  0.27275  0.77984  1.0000
  C   C1510     1.0  0.69404  0.12781  0.72623  1.0000
  H   H2555     1.0  0.99472  0.41460  0.90904  1.0000
  H   H2556     1.0  0.77433  0.24475  0.73861  1.0000
  H   H2557     1.0  0.75184  0.30076  0.83742  1.0000
  H   H2558     1.0  0.70330  0.02760  0.86714  1.0000
  H   H2559     1.0  0.78102  0.37445  0.96120  1.0000
  C   C1511     1.0  0.79793  0.25414  0.77653  1.0000
  C   C1512     1.0  0.81765  0.45700  0.80173  1.0000
  H   H2560     1.0  0.76663  0.21893  0.76940  1.0000
  C   C1513     1.0  0.99028  0.37948  0.88843  1.0000
  H   H2561     1.0  0.73077  0.30630  0.75371  1.0000
  C   C1514     1.0  0.67800  0.14626  0.74831  1.0000
  C   C1515     1.0  0.81192  0.43142  0.93152  1.0000
  H   H2562     1.0  0.81529  0.39251  0.93548  1.0000
  H   H2563     1.0  0.75383  0.27236  0.73618  1.0000
  H   H2564     1.0  0.84656  0.35984  0.94353  1.0000
  H   H2565     1.0  0.81512  0.35562  0.95030  1.0000
  H   H2566     1.0  0.85144  0.27242  0.72925  1.0000
  H   H2567     1.0  0.87258  0.46971  0.78355  1.0000
  C   C1516     1.0  0.79151  0.48735  0.78775  1.0000
  H   H2568     1.0  0.67591  0.18547  0.74646  1.0000
  S   S427      1.0  0.92724  0.49006  0.94028  1.0000
  N   N107      1.0  0.82002  0.40485  0.95563  1.0000
  H   H2569     1.0  0.95597  0.42679  0.90400  1.0000
  H   H2570     1.0  0.81064  0.26437  0.73066  1.0000
  H   H2571     1.0  0.91806  0.33318  0.73104  1.0000
  C   C1517     1.0  0.80757  0.48166  0.79829  1.0000
  C   C1518     1.0  0.85747  0.33287  0.72515  1.0000
  H   H2572     1.0  0.98025  0.47632  0.93466  1.0000
  H   H2573     1.0  0.89672  0.41181  0.96653  1.0000
  C   C1519     1.0  0.67446  0.06424  0.85148  1.0000
  C   C1520     1.0  0.87849  0.48797  0.78005  1.0000
  H   H2574     1.0  0.69339  0.05876  0.84610  1.0000
  N   N108      1.0  0.99339  0.45389  0.90832  1.0000
  C   C1521     1.0  0.96673  0.28294  0.72343  1.0000
  H   H2575     1.0  0.96351  0.37343  0.96680  1.0000
  H   H2576     1.0  0.89762  0.48593  0.77459  1.0000
  C   C1522     1.0  0.83347  0.42386  0.95981  1.0000
  C   C1523     1.0  0.67043  0.01270  0.86571  1.0000
  H   H2577     1.0  0.88042  0.48878  0.73678  1.0000
  H   H2578     1.0  0.68053  0.10307  0.84726  1.0000
  H   H2579     1.0  0.99535  0.44145  0.88731  1.0000
  C   C1524     1.0  0.89615  0.39227  0.96765  1.0000
  C   C1525     1.0  0.98894  0.36057  0.89979  1.0000
  H   H2580     1.0  0.82577  0.44272  0.95550  1.0000
  H   H2581     1.0  0.91990  0.24559  0.72528  1.0000
  H   H2582     1.0  0.97644  0.49113  0.88838  1.0000
  H   H2583     1.0  0.85317  0.42125  0.95504  1.0000
  C   C1526     1.0  0.89417  0.34206  0.97031  1.0000
  Fe  Fe217     1.0  0.79429  0.61790  0.17220  1.0000
  S   S428      1.0  0.83374  0.61778  0.17563  1.0000
  S   S429      1.0  0.77535  0.65746  0.16861  1.0000
  Fe  Fe218     1.0  0.79915  0.56154  0.17788  1.0000
  S   S430      1.0  0.83845  0.55816  0.18214  1.0000
  S   S431      1.0  0.77851  0.52819  0.18280  1.0000
  Fe  Fe219     1.0  0.82659  0.59034  0.19477  1.0000
  S   S432      1.0  0.67067  0.92917  0.05217  1.0000
  Fe  Fe220     1.0  0.84261  0.58607  0.16256  1.0000
  S   S433      1.0  0.87890  0.58119  0.14780  1.0000
  S   S434      1.0  0.78669  0.59176  0.19208  1.0000
  S   S435      1.0  0.80370  0.58805  0.15752  1.0000
  C   C1527     1.0  0.89251  0.50055  0.03018  1.0000
  C   C1528     1.0  0.85983  0.63254  0.21545  1.0000
  H   H2584     1.0  0.69419  0.97023  0.01312  1.0000
  H   H2585     1.0  0.97708  0.59010  0.97417  1.0000
  Fe  Fe221     1.0  0.95921  0.52534  0.06046  1.0000
  S   S436      1.0  0.92150  0.53623  0.05357  1.0000
  H   H2586     1.0  0.87951  0.50681  0.00077  1.0000
  Fe  Fe222     1.0  0.97156  0.57675  0.05318  1.0000
  S   S437      1.0  0.93516  0.59148  0.04517  1.0000
  H   H2587     1.0  0.91497  0.66409  0.09465  1.0000
  Fe  Fe223     1.0  0.91989  0.56906  0.06528  1.0000
  S   S438      1.0  0.88655  0.58552  0.07964  1.0000
  Fe  Fe224     1.0  0.94060  0.55722  0.03432  1.0000
  S   S439      1.0  0.93610  0.54660  0.01262  1.0000
  S   S440      1.0  0.95621  0.55619  0.07367  1.0000
  S   S441      1.0  0.97844  0.54449  0.04079  1.0000
  H   H2588     1.0  0.90978  0.60518  0.16358  1.0000
  C   C1529     1.0  0.92439  0.58723  0.21236  1.0000
  H   H2589     1.0  0.90326  0.65251  0.06975  1.0000
  H   H2590     1.0  0.93976  0.61226  0.19524  1.0000
  H   H2591     1.0  0.93884  0.53054  0.98527  1.0000
  H   H2592     1.0  0.90629  0.58157  0.21698  1.0000
  H   H2593     1.0  0.93277  0.64353  0.11782  1.0000
  H   H2594     1.0  0.90767  0.61921  0.20078  1.0000
  H   H2595     1.0  0.87191  0.53376  0.03786  1.0000
  C   C1530     1.0  0.93564  0.55035  0.98370  1.0000
  H   H2596     1.0  0.67314  0.85133  0.11813  1.0000
  H   H2597     1.0  0.93383  0.61808  0.16904  1.0000
  H   H2598     1.0  0.87826  0.66429  0.21441  1.0000
  C   C1531     1.0  0.89794  0.49891  0.00406  1.0000
  C   C1532     1.0  0.89283  0.58242  0.18888  1.0000
  H   H2599     1.0  0.91836  0.55506  0.16822  1.0000
  C   C1533     1.0  0.88007  0.58116  0.12898  1.0000
  C   C1534     1.0  0.86059  0.59290  0.12147  1.0000
  C   C1535     1.0  0.86281  0.59393  0.10639  1.0000
  C   C1536     1.0  0.88431  0.58291  0.09868  1.0000
  C   C1537     1.0  0.90358  0.57072  0.10623  1.0000
  C   C1538     1.0  0.90159  0.57013  0.12127  1.0000
  H   H2600     1.0  0.84394  0.60151  0.12725  1.0000
  H   H2601     1.0  0.84775  0.60329  0.10068  1.0000
  H   H2602     1.0  0.91999  0.56169  0.10050  1.0000
  H   H2603     1.0  0.91670  0.56088  0.12698  1.0000
  C   C1539     1.0  0.74370  0.66831  0.17277  1.0000
  C   C1540     1.0  0.73680  0.69270  0.17570  1.0000
  C   C1541     1.0  0.71181  0.70303  0.17755  1.0000
  C   C1542     1.0  0.69349  0.68922  0.17612  1.0000
  C   C1543     1.0  0.70035  0.66456  0.17372  1.0000
  C   C1544     1.0  0.72534  0.65406  0.17215  1.0000
  H   H2604     1.0  0.75091  0.70381  0.17627  1.0000
  H   H2605     1.0  0.70678  0.72189  0.17961  1.0000
  H   H2606     1.0  0.68509  0.97491  0.05622  1.0000
  H   H2607     1.0  0.73042  0.63528  0.16985  1.0000
  N   N109      1.0  0.72058  0.73514  0.13552  1.0000
  H   H2608     1.0  0.95832  0.57771  0.10412  1.0000
  H   H2609     1.0  0.85262  0.51284  0.03474  1.0000
  C   C1545     1.0  0.93370  0.56352  0.99550  1.0000
  C   C1546     1.0  0.92079  0.64388  0.09639  1.0000
  H   H2610     1.0  0.94152  0.55823  0.19023  1.0000
  H   H2611     1.0  0.70068  0.93769  0.21184  1.0000
  H   H2612     1.0  0.69674  0.76870  0.99829  1.0000
  H   H2613     1.0  0.68680  0.97360  0.99115  1.0000
  H   H2614     1.0  0.95081  0.54495  0.16722  1.0000
  H   H2615     1.0  0.74677  0.74496  0.11721  1.0000
  H   H2616     1.0  0.87917  0.63165  0.18089  1.0000
  C   C1547     1.0  0.72660  0.74453  0.11987  1.0000
  C   C1548     1.0  0.86980  0.52062  0.03046  1.0000
  H   H2617     1.0  0.96101  0.60507  0.11100  1.0000
  H   H2618     1.0  0.94134  0.66813  0.07094  1.0000
  H   H2619     1.0  0.91063  0.49840  0.98127  1.0000
  C   C1549     1.0  0.92241  0.60396  0.19807  1.0000
  C   C1550     1.0  0.92980  0.58917  0.99328  1.0000
  C   C1551     1.0  0.89723  0.63574  0.17533  1.0000
  H   H2620     1.0  0.95958  0.64138  0.06493  1.0000
  C   C1552     1.0  0.91916  0.63623  0.11270  1.0000
  H   H2621     1.0  0.85680  0.63588  0.20429  1.0000
  H   H2622     1.0  0.89394  0.64643  0.16479  1.0000
  C   C1553     1.0  0.71685  0.65352  0.21469  1.0000
  H   H2623     1.0  0.80073  0.67459  0.19343  1.0000
  H   H2624     1.0  0.72637  0.78015  0.10681  1.0000
  N   N110      1.0  0.94527  0.63707  0.08761  1.0000
  C   C1554     1.0  0.96487  0.64890  0.09245  1.0000
  H   H2625     1.0  0.70190  0.64271  0.21402  1.0000
  H   H2626     1.0  0.81196  0.64803  0.20473  1.0000
  H   H2627     1.0  0.77293  0.64137  0.19893  1.0000
  H   H2628     1.0  0.90486  0.64775  0.18148  1.0000
  H   H2629     1.0  0.69029  0.73422  0.15264  1.0000
  H   H2630     1.0  0.80773  0.51448  0.15609  1.0000
  C   C1555     1.0  0.72739  0.70753  0.13732  1.0000
  C   C1556     1.0  0.73548  0.74541  0.14481  1.0000
  C   C1557     1.0  0.75512  0.69759  0.13486  1.0000
  C   C1558     1.0  0.73016  0.77321  0.14569  1.0000
  H   H2631     1.0  0.72031  0.69945  0.14822  1.0000
  H   H2632     1.0  0.90847  0.54984  0.20363  1.0000
  H   H2633     1.0  0.73296  0.73622  0.15602  1.0000
  H   H2634     1.0  0.75551  0.74170  0.14106  1.0000
  H   H2635     1.0  0.76490  0.70059  0.14377  1.0000
  H   H2636     1.0  0.75733  0.67738  0.13483  1.0000
  H   H2637     1.0  0.76413  0.70548  0.12443  1.0000
  H   H2638     1.0  0.74121  0.77763  0.15365  1.0000
  H   H2639     1.0  0.68012  0.93627  0.01151  1.0000
  S   S442      1.0  0.99971  0.60199  0.05215  1.0000
  H   H2640     1.0  0.93510  0.60108  0.08778  1.0000
  H   H2641     1.0  0.93882  0.57110  0.21146  1.0000
  H   H2642     1.0  0.87898  0.59491  0.19509  1.0000
  H   H2643     1.0  0.95595  0.58135  0.17942  1.0000
  H   H2644     1.0  0.72210  0.73161  0.11297  1.0000
  H   H2645     1.0  0.91907  0.62186  0.06802  1.0000
  C   C1559     1.0  0.94283  0.64774  0.07219  1.0000
  C   C1560     1.0  0.78600  0.50012  0.17510  1.0000
  C   C1561     1.0  0.71323  0.77005  0.11442  1.0000
  H   H2646     1.0  0.96462  0.60495  0.07852  1.0000
  H   H2647     1.0  0.99693  0.62591  0.08188  1.0000
  C   C1562     1.0  0.79734  0.66416  0.20425  1.0000
  H   H2648     1.0  0.92351  0.64625  0.05389  1.0000
  H   H2649     1.0  0.70943  0.79953  0.00581  1.0000
  H   H2650     1.0  0.99803  0.60412  0.98125  1.0000
  H   H2651     1.0  0.92047  0.61605  0.11530  1.0000
  H   H2652     1.0  0.88505  0.58187  0.17873  1.0000
  H   H2653     1.0  0.87601  0.55542  0.20453  1.0000
  H   H2654     1.0  0.73610  0.78387  0.13535  1.0000
  C   C1563     1.0  0.95179  0.60960  0.08820  1.0000
  H   H2655     1.0  0.69839  0.76809  0.10809  1.0000
  H   H2656     1.0  0.72178  0.66225  0.20365  1.0000
  H   H2657     1.0  0.92816  0.59951  0.00230  1.0000
  H   H2658     1.0  0.93985  0.57396  0.15797  1.0000
  H   H2659     1.0  0.68290  0.80943  0.02726  1.0000
  H   H2660     1.0  0.90608  0.63531  0.09291  1.0000
  H   H2661     1.0  0.68797  0.76702  0.02627  1.0000
  H   H2662     1.0  0.92257  0.49625  0.07680  1.0000
  C   C1564     1.0  0.92082  0.64158  0.06575  1.0000
  H   H2663     1.0  0.89297  0.54268  0.18950  1.0000
  H   H2664     1.0  0.95892  0.66904  0.09231  1.0000
  H   H2665     1.0  0.68628  0.65368  0.17268  1.0000
  H   H2666     1.0  0.68679  0.76046  0.14012  1.0000
  C   C1565     1.0  0.93647  0.56128  0.16796  1.0000
  H   H2667     1.0  0.70556  0.78210  0.12273  1.0000
  C   C1566     1.0  0.96462  0.59594  0.10117  1.0000
  H   H2668     1.0  0.98482  0.59192  0.09813  1.0000
  N   N111      1.0  0.91705  0.59246  0.18555  1.0000
  C   C1567     1.0  0.67479  0.83229  0.21799  1.0000
  C   C1568     1.0  0.91544  0.61224  0.17287  1.0000
  H   H2669     1.0  0.79911  0.67608  0.21236  1.0000
  H   H2670     1.0  0.74257  0.62022  0.21439  1.0000
  C   C1569     1.0  0.93842  0.57328  0.18143  1.0000
  C   C1570     1.0  0.69355  0.74058  0.14093  1.0000
  S   S443      1.0  0.83711  0.59077  0.21729  1.0000
  H   H2671     1.0  0.96784  0.64234  0.10373  1.0000
  C   C1571     1.0  0.68568  0.75619  0.00559  1.0000
  C   C1572     1.0  0.70619  0.92117  0.21929  1.0000
  H   H2672     1.0  0.71850  0.69903  0.12982  1.0000
  S   S444      1.0  0.67395  0.77018  0.17904  1.0000
  C   C1573     1.0  0.89328  0.55619  0.19703  1.0000
  H   H2673     1.0  0.68736  0.81681  0.99417  1.0000
  H   H2674     1.0  0.71069  0.77956  0.14955  1.0000
  H   H2675     1.0  0.86798  0.53129  0.01977  1.0000
  C   C1574     1.0  0.69398  0.81476  0.00483  1.0000
  H   H2676     1.0  0.90062  0.64374  0.11771  1.0000
  C   C1575     1.0  0.67319  0.76697  0.01942  1.0000
  C   C1576     1.0  0.80025  0.49851  0.16177  1.0000
  H   H2677     1.0  0.69840  0.73924  0.00858  1.0000
  H   H2678     1.0  0.67919  0.73288  0.12164  1.0000
  H   H2679     1.0  0.66957  0.99329  0.97856  1.0000
  H   H2680     1.0  0.78554  0.61223  0.21905  1.0000
  C   C1577     1.0  0.77169  0.65591  0.20604  1.0000
  H   H2681     1.0  0.70180  0.83179  0.00529  1.0000
  H   H2682     1.0  0.71856  0.76783  0.22042  1.0000
  C   C1578     1.0  0.67342  0.81205  0.01745  1.0000
  H   H2683     1.0  0.69153  0.86478  0.21807  1.0000
  C   C1579     1.0  0.68063  0.98139  0.02016  1.0000
  H   H2684     1.0  0.75925  0.67138  0.20113  1.0000
  H   H2685     1.0  0.67206  0.75077  0.99956  1.0000
  H   H2686     1.0  0.67515  0.83436  0.20644  1.0000
  H   H2687     1.0  0.73618  0.69409  0.21588  1.0000
  H   H2688     1.0  0.67767  0.70878  0.13673  1.0000
  C   C1580     1.0  0.92780  0.60145  0.97930  1.0000
  H   H2689     1.0  0.68572  0.86754  0.97521  1.0000
  H   H2690     1.0  0.90706  0.51515  0.00446  1.0000
  H   H2691     1.0  0.68062  0.97039  0.03090  1.0000
  H   H2692     1.0  0.99490  0.53678  0.97701  1.0000
  H   H2693     1.0  0.90864  0.51054  0.02909  1.0000
  H   H2694     1.0  0.71486  0.90668  0.21247  1.0000
  C   C1581     1.0  0.67608  0.72889  0.13349  1.0000
  H   H2695     1.0  0.92485  0.62128  0.97759  1.0000
  H   H2696     1.0  0.72591  0.49614  0.15803  1.0000
  H   H2697     1.0  0.99043  0.65654  0.07278  1.0000
  H   H2698     1.0  0.98791  0.55752  0.99059  1.0000
  C   C1582     1.0  0.99042  0.64534  0.08345  1.0000
  C   C1583     1.0  0.67641  0.99213  0.98915  1.0000
  S   S445      1.0  0.66766  0.81766  0.14380  1.0000
  C   C1584     1.0  0.99400  0.59883  0.97103  1.0000
  H   H2699     1.0  0.92950  0.59788  0.22030  1.0000
  Fe  Fe225     1.0  0.88911  0.71086  0.28477  1.0000
  S   S446      1.0  0.86805  0.68063  0.28250  1.0000
  S   S447      1.0  0.87139  0.75004  0.28769  1.0000
  Fe  Fe226     1.0  0.93957  0.67744  0.28315  1.0000
  S   S448      1.0  0.92160  0.64503  0.28029  1.0000
  Fe  Fe227     1.0  0.89861  0.67050  0.26507  1.0000
  S   S449      1.0  0.89201  0.66552  0.24228  1.0000
  Fe  Fe228     1.0  0.89274  0.65771  0.29788  1.0000
  S   S450      1.0  0.87982  0.62957  0.31593  1.0000
  S   S451      1.0  0.91879  0.70227  0.26654  1.0000
  S   S452      1.0  0.91150  0.68863  0.30154  1.0000
  Fe  Fe229     1.0  0.73367  0.88755  0.28975  1.0000
  S   S453      1.0  0.69424  0.89332  0.28573  1.0000
  S   S454      1.0  0.75345  0.91923  0.29263  1.0000
  Fe  Fe230     1.0  0.73748  0.83124  0.29122  1.0000
  S   S455      1.0  0.69742  0.83379  0.28806  1.0000
  S   S456      1.0  0.75685  0.79173  0.29170  1.0000
  Fe  Fe231     1.0  0.70525  0.86430  0.27070  1.0000
  S   S457      1.0  0.69656  0.86880  0.24747  1.0000
  Fe  Fe232     1.0  0.69026  0.86217  0.30352  1.0000
  H   H2700     1.0  0.71307  0.76010  0.27413  1.0000
  S   S458      1.0  0.74548  0.86094  0.27331  1.0000
  S   S459      1.0  0.72951  0.85729  0.30810  1.0000
  Fe  Fe233     1.0  0.95639  0.56731  0.39906  1.0000
  S   S460      1.0  0.94033  0.60433  0.40520  1.0000
  H   H2701     1.0  0.71568  0.79844  0.23673  1.0000
  Fe  Fe234     1.0  0.90999  0.54528  0.41078  1.0000
  S   S461      1.0  0.88997  0.58091  0.41802  1.0000
  H   H2702     1.0  0.75441  0.95381  0.23760  1.0000
  Fe  Fe235     1.0  0.90680  0.59768  0.39631  1.0000
  S   S462      1.0  0.89079  0.63056  0.38167  1.0000
  Fe  Fe236     1.0  0.92546  0.58434  0.42615  1.0000
  S   S463      1.0  0.93758  0.59014  0.44726  1.0000
  S   S464      1.0  0.92422  0.56168  0.38865  1.0000
  S   S465      1.0  0.94393  0.54773  0.42028  1.0000
  C   C1585     1.0  0.70761  0.89626  0.35208  1.0000
  H   H2703     1.0  0.99275  0.50483  0.42058  1.0000
  H   H2704     1.0  0.94224  0.64765  0.35454  1.0000
  H   H2705     1.0  0.98273  0.50856  0.35978  1.0000
  N   N112      1.0  0.89510  0.51508  0.46750  1.0000
  H   H2706     1.0  0.74274  0.95523  0.33685  1.0000
  C   C1586     1.0  0.71645  0.77473  0.26512  1.0000
  H   H2707     1.0  0.75474  0.85004  0.24316  1.0000
  C   C1587     1.0  0.67186  0.94149  0.35671  1.0000
  H   H2708     1.0  0.70399  0.93874  0.31086  1.0000
  H   H2709     1.0  0.98220  0.58176  0.41609  1.0000
  H   H2710     1.0  0.73943  0.87131  0.34270  1.0000
  H   H2711     1.0  0.68683  0.98728  0.24796  1.0000
  C   C1588     1.0  0.95817  0.61284  0.31880  1.0000
  H   H2712     1.0  0.77538  0.96244  0.29371  1.0000
  C   C1589     1.0  0.75781  0.96846  0.28967  1.0000
  H   H2713     1.0  0.66832  0.94789  0.23552  1.0000
  H   H2714     1.0  0.69987  0.82325  0.46199  1.0000
  C   C1590     1.0  0.87517  0.51136  0.45899  1.0000
  H   H2715     1.0  0.75544  0.81181  0.26038  1.0000
  H   H2716     1.0  0.75929  0.60031  0.24116  1.0000
  C   C1591     1.0  0.73980  0.94690  0.24580  1.0000
  C   C1592     1.0  0.85185  0.61212  0.22410  1.0000
  C   C1593     1.0  0.88510  0.62952  0.33390  1.0000
  C   C1594     1.0  0.88910  0.65081  0.33893  1.0000
  C   C1595     1.0  0.89105  0.65081  0.35357  1.0000
  C   C1596     1.0  0.89009  0.62926  0.36321  1.0000
  C   C1597     1.0  0.88719  0.60767  0.35807  1.0000
  C   C1598     1.0  0.88428  0.60792  0.34351  1.0000
  H   H2717     1.0  0.89017  0.66735  0.33158  1.0000
  H   H2718     1.0  0.89329  0.66757  0.35749  1.0000
  H   H2719     1.0  0.88619  0.59101  0.36542  1.0000
  H   H2720     1.0  0.88118  0.59135  0.33972  1.0000
  C   C1599     1.0  0.87595  0.64484  0.23579  1.0000
  C   C1600     1.0  0.86762  0.62462  0.24450  1.0000
  H   H2721     1.0  0.87062  0.62136  0.25569  1.0000
  C   C1601     1.0  0.83965  0.76171  0.28768  1.0000
  C   C1602     1.0  0.83167  0.78653  0.28941  1.0000
  C   C1603     1.0  0.80645  0.79623  0.29030  1.0000
  C   C1604     1.0  0.78892  0.78106  0.28964  1.0000
  C   C1605     1.0  0.79690  0.75630  0.28771  1.0000
  C   C1606     1.0  0.82214  0.74670  0.28663  1.0000
  H   H2722     1.0  0.84509  0.79828  0.29023  1.0000
  H   H2723     1.0  0.80058  0.81528  0.29182  1.0000
  H   H2724     1.0  0.78347  0.74442  0.28719  1.0000
  H   H2725     1.0  0.82803  0.72762  0.28522  1.0000
  C   C1607     1.0  0.68400  0.84699  0.23964  1.0000
  C   C1608     1.0  0.92102  0.59298  0.46444  1.0000
  C   C1609     1.0  0.68411  0.84950  0.22463  1.0000
  H   H2726     1.0  0.74659  0.75033  0.25529  1.0000
  H   H2727     1.0  0.95966  0.59202  0.35022  1.0000
  H   H2728     1.0  0.70881  0.66752  0.22192  1.0000
  C   C1610     1.0  0.67083  0.94037  0.24669  1.0000
  H   H2729     1.0  0.69592  0.99019  0.27418  1.0000
  H   H2730     1.0  0.88476  0.59730  0.45789  1.0000
  H   H2731     1.0  0.90869  0.54791  0.45596  1.0000
  H   H2732     1.0  0.67571  0.80965  0.36252  1.0000
  H   H2733     1.0  0.97207  0.52026  0.37640  1.0000
  H   H2734     1.0  0.98619  0.58722  0.35953  1.0000
  H   H2735     1.0  0.72120  0.75243  0.23799  1.0000
  C   C1611     1.0  0.86256  0.53474  0.45058  1.0000
  C   C1612     1.0  0.69748  0.93733  0.25059  1.0000
  H   H2736     1.0  0.99687  0.60797  0.33516  1.0000
  C   C1613     1.0  0.74289  0.95097  0.28818  1.0000
  C   C1614     1.0  0.72019  0.95907  0.28302  1.0000
  H   H2737     1.0  0.70821  0.94590  0.28231  1.0000
  H   H2738     1.0  0.77844  0.75998  0.23622  1.0000
  N   N113      1.0  0.82350  0.70552  0.33073  1.0000
  C   C1615     1.0  0.80759  0.69764  0.32100  1.0000
  C   C1616     1.0  0.80952  0.72833  0.33654  1.0000
  C   C1617     1.0  0.82721  0.68509  0.34288  1.0000
  C   C1618     1.0  0.84771  0.70981  0.32194  1.0000
  C   C1619     1.0  0.81652  0.67236  0.31564  1.0000
  C   C1620     1.0  0.80431  0.75076  0.32527  1.0000
  C   C1621     1.0  0.83591  0.69147  0.35648  1.0000
  C   C1622     1.0  0.86530  0.72292  0.32846  1.0000
  H   H2739     1.0  0.78844  0.69709  0.32644  1.0000
  H   H2740     1.0  0.80585  0.71110  0.31120  1.0000
  H   H2741     1.0  0.81902  0.73448  0.34462  1.0000
  H   H2742     1.0  0.79145  0.72443  0.34250  1.0000
  H   H2743     1.0  0.80969  0.67741  0.34666  1.0000
  H   H2744     1.0  0.84060  0.66949  0.33912  1.0000
  H   H2745     1.0  0.85856  0.69214  0.31922  1.0000
  H   H2746     1.0  0.84483  0.72003  0.31120  1.0000
  H   H2747     1.0  0.83545  0.67105  0.30993  1.0000
  H   H2748     1.0  0.81557  0.65706  0.32449  1.0000
  H   H2749     1.0  0.80432  0.66946  0.30787  1.0000
  H   H2750     1.0  0.79597  0.76693  0.33083  1.0000
  H   H2751     1.0  0.82138  0.75562  0.31862  1.0000
  H   H2752     1.0  0.79079  0.74796  0.31829  1.0000
  H   H2753     1.0  0.85269  0.70038  0.35419  1.0000
  H   H2754     1.0  0.84046  0.67421  0.36368  1.0000
  H   H2755     1.0  0.82109  0.70302  0.36265  1.0000
  H   H2756     1.0  0.87887  0.70953  0.33412  1.0000
  H   H2757     1.0  0.85609  0.73638  0.33569  1.0000
  H   H2758     1.0  0.87575  0.73384  0.31963  1.0000
  H   H2759     1.0  0.94163  0.60751  0.31531  1.0000
  H   H2760     1.0  0.75927  0.94258  0.32138  1.0000
  H   H2761     1.0  0.74710  0.91144  0.34141  1.0000
  H   H2762     1.0  0.77498  0.66793  0.23512  1.0000
  H   H2763     1.0  0.75516  0.76905  0.26666  1.0000
  C   C1623     1.0  0.74800  0.81247  0.25001  1.0000
  C   C1624     1.0  0.73362  0.91938  0.33370  1.0000
  H   H2764     1.0  0.69504  0.96877  0.22395  1.0000
  H   H2765     1.0  0.70284  0.77489  0.25758  1.0000
  C   C1625     1.0  0.94946  0.63158  0.32965  1.0000
  H   H2766     1.0  0.93833  0.64728  0.32382  1.0000
  C   C1626     1.0  0.85573  0.60833  0.23866  1.0000
  H   H2767     1.0  0.73889  0.91550  0.26289  1.0000
  H   H2768     1.0  0.76696  0.92812  0.25956  1.0000
  S   S466      1.0  0.99596  0.55797  0.39035  1.0000
  H   H2769     1.0  0.94947  0.50346  0.45852  1.0000
  H   H2770     1.0  0.93440  0.69144  0.35080  1.0000
  C   C1627     1.0  0.97228  0.60161  0.35479  1.0000
  C   C1628     1.0  0.77324  0.61237  0.24159  1.0000
  H   H2771     1.0  0.74451  0.66120  0.24080  1.0000
  H   H2772     1.0  0.71305  0.79225  0.26984  1.0000
  H   H2773     1.0  0.73086  0.62877  0.23174  1.0000
  H   H2774     1.0  0.95880  0.69400  0.33644  1.0000
  H   H2775     1.0  0.73526  0.96063  0.25356  1.0000
  H   H2776     1.0  0.70972  0.86587  0.33901  1.0000
  H   H2777     1.0  0.91503  0.52238  0.44619  1.0000
  H   H2778     1.0  0.99939  0.62587  0.34868  1.0000
  C   C1629     1.0  0.87195  0.64867  0.22124  1.0000
  C   C1630     1.0  0.98488  0.65406  0.32445  1.0000
  H   H2779     1.0  0.96197  0.61120  0.36378  1.0000
  C   C1631     1.0  0.75199  0.92339  0.25423  1.0000
  N   N114      1.0  0.76171  0.64682  0.22115  1.0000
  H   H2780     1.0  0.70213  0.91784  0.25511  1.0000
  C   C1632     1.0  0.77679  0.77872  0.23939  1.0000
  C   C1633     1.0  0.67423  0.82717  0.24796  1.0000
  C   C1634     1.0  0.94109  0.52235  0.46053  1.0000
  C   C1635     1.0  0.95694  0.65650  0.34742  1.0000
  C   C1636     1.0  0.79645  0.77708  0.24972  1.0000
  H   H2781     1.0  0.68855  0.89349  0.35680  1.0000
  H   H2782     1.0  0.68988  0.91409  0.22561  1.0000
  C   C1637     1.0  0.91409  0.52765  0.45721  1.0000
  H   H2783     1.0  0.67855  0.97649  0.46642  1.0000
  H   H2784     1.0  0.71063  0.94282  0.35596  1.0000
  H   H2785     1.0  0.78978  0.60010  0.24509  1.0000
  H   H2786     1.0  0.73549  0.70215  0.23339  1.0000
  C   C1638     1.0  0.73072  0.76399  0.22912  1.0000
  H   H2787     1.0  0.98859  0.71704  0.27453  1.0000
  S   S467      1.0  0.98025  0.66684  0.28693  1.0000
  H   H2788     1.0  0.67374  0.93178  0.31115  1.0000
  N   N115      1.0  0.70743  0.91832  0.34075  1.0000
  H   H2789     1.0  0.87583  0.54436  0.44285  1.0000
  H   H2790     1.0  0.91788  0.51130  0.38786  1.0000
  H   H2791     1.0  0.84941  0.52943  0.44414  1.0000
  C   C1639     1.0  0.71012  0.96905  0.23038  1.0000
  H   H2792     1.0  0.67830  0.95379  0.32213  1.0000
  S   S468      1.0  0.89717  0.50842  0.41794  1.0000
  H   H2793     1.0  0.69732  0.95783  0.34057  1.0000
  C   C1640     1.0  0.74329  0.76944  0.25807  1.0000
  H   H2794     1.0  0.69667  0.94790  0.25979  1.0000
  C   C1641     1.0  0.94482  0.68228  0.34165  1.0000
  C   C1642     1.0  0.72507  0.92501  0.22896  1.0000
  C   C1643     1.0  0.75053  0.99369  0.28557  1.0000
  H   H2795     1.0  0.76074  0.90937  0.24716  1.0000
  H   H2796     1.0  0.73807  0.90788  0.32469  1.0000
  H   H2797     1.0  0.72976  0.90674  0.23519  1.0000
  C   C1644     1.0  0.68673  0.93637  0.31796  1.0000
  H   H2798     1.0  0.84963  0.59261  0.24548  1.0000
  H   H2799     1.0  0.99412  0.64178  0.31640  1.0000
  H   H2800     1.0  0.79190  0.79055  0.25757  1.0000
  C   C1645     1.0  0.69102  0.91509  0.32995  1.0000
  C   C1646     1.0  0.75981  0.83190  0.23914  1.0000
  H   H2801     1.0  0.72803  0.95635  0.32094  1.0000
  H   H2802     1.0  0.93621  0.62328  0.33813  1.0000
  C   C1647     1.0  0.89526  0.59624  0.46681  1.0000
  H   H2803     1.0  0.96881  0.59579  0.32356  1.0000
  C   C1648     1.0  0.69786  0.94079  0.34824  1.0000
  H   H2804     1.0  0.74148  0.79975  0.22369  1.0000
  H   H2805     1.0  0.79937  0.75846  0.25579  1.0000
  C   C1649     1.0  0.74744  0.69278  0.22477  1.0000
  N   N116      1.0  0.75061  0.78729  0.24530  1.0000
  H   H2806     1.0  0.88267  0.49820  0.45104  1.0000
  N   N117      1.0  0.96929  0.64032  0.33619  1.0000
  H   H2807     1.0  0.95201  0.53507  0.45312  1.0000
  C   C1650     1.0  0.75736  0.66643  0.23111  1.0000
  H   H2808     1.0  0.72822  0.82006  0.25235  1.0000
  H   H2809     1.0  0.97343  0.66869  0.31800  1.0000
  H   H2810     1.0  0.81421  0.78106  0.24349  1.0000
  N   N118      1.0  0.71738  0.94455  0.23890  1.0000
  C   C1651     1.0  0.70188  0.99085  0.23925  1.0000
  C   C1652     1.0  0.74093  0.94496  0.32792  1.0000
  H   H2811     1.0  0.67377  0.82506  0.25951  1.0000
  C   C1653     1.0  0.73431  0.78864  0.23363  1.0000
  H   H2812     1.0  0.78260  0.78997  0.22916  1.0000
  C   C1654     1.0  0.71976  0.87143  0.34704  1.0000
  C   C1655     1.0  0.66992  0.83657  0.34406  1.0000
  H   H2813     1.0  0.93158  0.68160  0.33404  1.0000
  H   H2814     1.0  0.96883  0.62082  0.30894  1.0000
  H   H2815     1.0  0.74209  0.92878  0.22173  1.0000
  H   H2816     1.0  0.72573  0.97392  0.22225  1.0000
  H   H2817     1.0  0.75297  0.83388  0.22854  1.0000
  H   H2818     1.0  0.71716  0.89910  0.36119  1.0000
  H   H2819     1.0  0.76671  0.62492  0.24986  1.0000
  H   H2820     1.0  0.79806  0.63303  0.22758  1.0000
  H   H2821     1.0  0.78022  0.82786  0.23791  1.0000
  C   C1656     1.0  0.98563  0.61909  0.34327  1.0000
  H   H2822     1.0  0.85178  0.54764  0.45783  1.0000
  H   H2823     1.0  0.67124  0.92729  0.36618  1.0000
  C   C1657     1.0  0.98762  0.50877  0.37073  1.0000
  H   H2824     1.0  0.86003  0.50317  0.46606  1.0000
  H   H2825     1.0  0.96994  0.65892  0.35489  1.0000
  C   C1658     1.0  0.66778  0.82815  0.35887  1.0000
  C   C1659     1.0  0.78056  0.62620  0.22670  1.0000
  H   H2826     1.0  0.97588  0.51132  0.39937  1.0000
  C   C1660     1.0  0.71315  0.98421  0.27861  1.0000
  H   H2827     1.0  0.71897  0.85696  0.35639  1.0000
  H   H2828     1.0  0.69856  0.89874  0.32437  1.0000
  H   H2829     1.0  0.74829  0.75360  0.22476  1.0000
  H   H2830     1.0  0.67951  0.82459  0.33638  1.0000
  H   H2831     1.0  0.76281  0.70374  0.22133  1.0000
  H   H2832     1.0  0.66712  0.96131  0.43509  1.0000
  C   C1661     1.0  0.66924  0.99188  0.41848  1.0000
  H   H2833     1.0  0.67264  0.91157  0.33538  1.0000
  H   H2834     1.0  0.72379  0.80293  0.47009  1.0000
  C   C1662     1.0  0.73846  0.63610  0.22077  1.0000
  Fe  Fe237     1.0  0.90901  0.71250  0.66045  1.0000
  S   S469      1.0  0.88439  0.68342  0.66576  1.0000
  S   S470      1.0  0.89476  0.75268  0.65353  1.0000
  Fe  Fe238     1.0  0.95554  0.67640  0.66702  1.0000
  S   S471      1.0  0.93340  0.64487  0.67290  1.0000
  Fe  Fe239     1.0  0.91488  0.66029  0.65314  1.0000
  S   S472      1.0  0.90688  0.63450  0.63809  1.0000
  Fe  Fe240     1.0  0.90506  0.67059  0.68496  1.0000
  S   S473      1.0  0.88404  0.66809  0.70766  1.0000
  S   S474      1.0  0.93844  0.69023  0.64658  1.0000
  S   S475      1.0  0.92828  0.70125  0.68023  1.0000
  Fe  Fe241     1.0  0.75143  0.89873  0.66503  1.0000
  S   S476      1.0  0.71064  0.89840  0.66924  1.0000
  S   S477      1.0  0.76681  0.93528  0.65854  1.0000
  Fe  Fe242     1.0  0.76221  0.84238  0.66653  1.0000
  S   S478      1.0  0.72165  0.83911  0.67061  1.0000
  S   S479      1.0  0.78374  0.80349  0.66741  1.0000
  Fe  Fe243     1.0  0.71632  0.87089  0.65338  1.0000
  S   S480      1.0  0.68542  0.87508  0.63912  1.0000
  Fe  Fe244     1.0  0.71901  0.86647  0.68614  1.0000
  H   H2835     1.0  0.73699  0.98759  0.69749  1.0000
  S   S481      1.0  0.75691  0.87257  0.64807  1.0000
  S   S482      1.0  0.75978  0.86849  0.68315  1.0000
  Fe  Fe245     1.0  0.91887  0.55545  0.55196  1.0000
  S   S483      1.0  0.88976  0.58856  0.55136  1.0000
  H   H2836     1.0  0.89324  0.52864  0.53570  1.0000
  Fe  Fe246     1.0  0.95777  0.58252  0.53417  1.0000
  S   S484      1.0  0.93221  0.61790  0.53181  1.0000
  H   H2837     1.0  0.67766  0.80688  0.50072  1.0000
  Fe  Fe247     1.0  0.91987  0.60887  0.55553  1.0000
  S   S485      1.0  0.91868  0.63929  0.56972  1.0000
  Fe  Fe248     1.0  0.90485  0.59451  0.52790  1.0000
  S   S486      1.0  0.88097  0.60058  0.50983  1.0000
  S   S487      1.0  0.94766  0.57497  0.55793  1.0000
  S   S488      1.0  0.93161  0.55993  0.52847  1.0000
  H   H2838     1.0  0.83301  0.55287  0.56767  1.0000
  H   H2839     1.0  0.69249  0.96531  0.55909  1.0000
  H   H2840     1.0  0.70462  0.78489  0.49906  1.0000
  C   C1663     1.0  0.86670  0.73390  0.69615  1.0000
  C   C1664     1.0  0.98493  0.59910  0.57876  1.0000
  C   C1665     1.0  0.85394  0.49643  0.58501  1.0000
  C   C1666     1.0  0.71843  0.86598  0.50141  1.0000
  H   H2841     1.0  0.88005  0.50155  0.52044  1.0000
  H   H2842     1.0  0.77105  0.80696  0.50748  1.0000
  C   C1667     1.0  0.84735  0.53812  0.57172  1.0000
  H   H2843     1.0  0.70326  0.90686  0.58446  1.0000
  C   C1668     1.0  0.70518  0.81333  0.47239  1.0000
  C   C1669     1.0  0.98698  0.64229  0.57092  1.0000
  C   C1670     1.0  0.89656  0.59778  0.49239  1.0000
  H   H2844     1.0  0.71093  0.79095  0.52489  1.0000
  C   C1671     1.0  0.92230  0.59421  0.49000  1.0000
  H   H2845     1.0  0.86316  0.60159  0.48253  1.0000
  H   H2846     1.0  0.93289  0.59365  0.49883  1.0000
  C   C1672     1.0  0.68667  0.86866  0.62115  1.0000
  H   H2847     1.0  0.68238  0.91182  0.56304  1.0000
  H   H2848     1.0  0.82526  0.50894  0.54093  1.0000
  C   C1673     1.0  0.88680  0.61827  0.71788  1.0000
  C   C1674     1.0  0.70869  0.85587  0.59872  1.0000
  C   C1675     1.0  0.70869  0.86004  0.61308  1.0000
  H   H2849     1.0  0.91223  0.75485  0.71510  1.0000
  C   C1676     1.0  0.98648  0.53231  0.50211  1.0000
  H   H2850     1.0  0.72584  0.84930  0.59255  1.0000
  H   H2851     1.0  0.72573  0.85669  0.61786  1.0000
  H   H2852     1.0  0.96719  0.54079  0.50089  1.0000
  C   C1677     1.0  0.74641  0.98666  0.68673  1.0000
  C   C1678     1.0  0.80681  0.52729  0.59797  1.0000
  C   C1679     1.0  0.91204  0.63566  0.61907  1.0000
  C   C1680     1.0  0.91982  0.65598  0.61018  1.0000
  C   C1681     1.0  0.92184  0.65674  0.59510  1.0000
  C   C1682     1.0  0.91677  0.63697  0.58874  1.0000
  C   C1683     1.0  0.90991  0.61630  0.59763  1.0000
  C   C1684     1.0  0.90734  0.61579  0.61269  1.0000
  H   H2853     1.0  0.92383  0.67124  0.61493  1.0000
  H   H2854     1.0  0.92729  0.67277  0.58831  1.0000
  H   H2855     1.0  0.90598  0.60095  0.59293  1.0000
  H   H2856     1.0  0.90141  0.59995  0.61948  1.0000
  C   C1685     1.0  0.84381  0.77491  0.69734  1.0000
  H   H2857     1.0  0.74385  0.81506  0.51870  1.0000
  C   C1686     1.0  0.88331  0.53092  0.47900  1.0000
  H   H2858     1.0  0.88825  0.54529  0.49835  1.0000
  C   C1687     1.0  0.86368  0.76666  0.65673  1.0000
  C   C1688     1.0  0.84459  0.75275  0.66159  1.0000
  C   C1689     1.0  0.82023  0.76444  0.66446  1.0000
  C   C1690     1.0  0.81459  0.79016  0.66257  1.0000
  C   C1691     1.0  0.83360  0.80411  0.65742  1.0000
  C   C1692     1.0  0.85801  0.79237  0.65446  1.0000
  H   H2859     1.0  0.84858  0.73297  0.66330  1.0000
  H   H2860     1.0  0.80563  0.75349  0.66837  1.0000
  H   H2861     1.0  0.82954  0.82391  0.65588  1.0000
  H   H2862     1.0  0.87262  0.80332  0.65061  1.0000
  H   H2863     1.0  0.73876  0.86126  0.50013  1.0000
  C   C1693     1.0  0.74932  0.96448  0.68060  1.0000
  C   C1694     1.0  0.85964  0.75271  0.71927  1.0000
  C   C1695     1.0  0.76211  0.96274  0.66687  1.0000
  H   H2864     1.0  0.74207  0.94862  0.68660  1.0000
  H   H2865     1.0  0.82589  0.76785  0.70059  1.0000
  H   H2866     1.0  0.86288  0.56684  0.57924  1.0000
  H   H2867     1.0  0.94327  0.52516  0.47155  1.0000
  H   H2868     1.0  0.83367  0.72055  0.70896  1.0000
  C   C1696     1.0  0.85853  0.54813  0.58336  1.0000
  H   H2869     1.0  0.99487  0.65902  0.57172  1.0000
  H   H2870     1.0  0.75038  0.78461  0.51324  1.0000
  H   H2871     1.0  0.68572  0.84259  0.48372  1.0000
  H   H2872     1.0  0.95494  0.50241  0.53914  1.0000
  N   N119      1.0  0.86274  0.72331  0.61732  1.0000
  C   C1697     1.0  0.87585  0.74513  0.61741  1.0000
  C   C1698     1.0  0.83587  0.73317  0.61657  1.0000
  C   C1699     1.0  0.87321  0.71168  0.60390  1.0000
  C   C1700     1.0  0.86721  0.70563  0.63063  1.0000
  C   C1701     1.0  0.90420  0.73988  0.61669  1.0000
  C   C1702     1.0  0.82260  0.74636  0.62938  1.0000
  C   C1703     1.0  0.86216  0.68923  0.60126  1.0000
  C   C1704     1.0  0.84881  0.68699  0.63568  1.0000
  H   H2873     1.0  0.87147  0.75955  0.60834  1.0000
  H   H2874     1.0  0.86948  0.75401  0.62735  1.0000
  H   H2875     1.0  0.82488  0.71873  0.61552  1.0000
  H   H2876     1.0  0.83369  0.74635  0.60666  1.0000
  H   H2877     1.0  0.87149  0.72549  0.59422  1.0000
  H   H2878     1.0  0.89322  0.70512  0.60392  1.0000
  H   H2879     1.0  0.88599  0.69487  0.62927  1.0000
  H   H2880     1.0  0.86709  0.71598  0.63989  1.0000
  H   H2881     1.0  0.91307  0.73603  0.60585  1.0000
  H   H2882     1.0  0.91108  0.75648  0.61896  1.0000
  H   H2883     1.0  0.91040  0.72479  0.62489  1.0000
  H   H2884     1.0  0.82462  0.73487  0.63978  1.0000
  H   H2885     1.0  0.82897  0.76423  0.62955  1.0000
  H   H2886     1.0  0.80256  0.75051  0.62840  1.0000
  H   H2887     1.0  0.87104  0.68332  0.59079  1.0000
  H   H2888     1.0  0.84214  0.69319  0.60046  1.0000
  H   H2889     1.0  0.86638  0.67333  0.60945  1.0000
  H   H2890     1.0  0.85928  0.66857  0.63852  1.0000
  H   H2891     1.0  0.83676  0.68470  0.62779  1.0000
  H   H2892     1.0  0.83722  0.69169  0.64575  1.0000
  H   H2893     1.0  0.70409  0.91365  0.60244  1.0000
  C   C1705     1.0  0.84278  0.72225  0.69776  1.0000
  H   H2894     1.0  0.71352  0.87913  0.50952  1.0000
  H   H2895     1.0  0.82140  0.51956  0.60483  1.0000
  H   H2896     1.0  0.72918  0.91768  0.58902  1.0000
  C   C1706     1.0  0.73894  0.81297  0.49591  1.0000
  C   C1707     1.0  0.99137  0.63834  0.55489  1.0000
  H   H2897     1.0  0.89124  0.77166  0.68635  1.0000
  H   H2898     1.0  0.96749  0.62682  0.59868  1.0000
  H   H2899     1.0  0.80445  0.54764  0.59697  1.0000
  C   C1708     1.0  0.83673  0.50281  0.56231  1.0000
  H   H2900     1.0  0.71295  0.95619  0.58029  1.0000
  H   H2901     1.0  0.99150  0.59364  0.56786  1.0000
  H   H2902     1.0  0.97968  0.57754  0.60010  1.0000
  C   C1709     1.0  0.69816  0.94704  0.58712  1.0000
  H   H2903     1.0  0.96452  0.60405  0.57917  1.0000
  H   H2904     1.0  0.84602  0.54971  0.59343  1.0000
  C   C1710     1.0  0.69173  0.98320  0.65819  1.0000
  H   H2905     1.0  0.69545  0.98611  0.48611  1.0000
  H   H2906     1.0  0.99736  0.54771  0.50114  1.0000
  H   H2907     1.0  0.96680  0.64748  0.57371  1.0000
  H   H2908     1.0  0.72586  0.98937  0.64550  1.0000
  H   H2909     1.0  0.70916  0.83752  0.51798  1.0000
  H   H2910     1.0  0.84643  0.77733  0.68542  1.0000
  C   C1711     1.0  0.77156  0.98357  0.65931  1.0000
  H   H2911     1.0  0.69308  0.92927  0.54691  1.0000
  H   H2912     1.0  0.69154  0.80055  0.47623  1.0000
  H   H2913     1.0  0.83633  0.53479  0.54547  1.0000
  N   N120      1.0  0.86473  0.75704  0.70308  1.0000
  H   H2914     1.0  0.90630  0.51623  0.49646  1.0000
  H   H2915     1.0  0.98794  0.66595  0.59430  1.0000
  H   H2916     1.0  0.87294  0.73729  0.68445  1.0000
  H   H2917     1.0  0.99399  0.52161  0.49311  1.0000
  H   H2918     1.0  0.67212  0.79052  0.69368  1.0000
  S   S489      1.0  0.91418  0.51764  0.56275  1.0000
  N   N121      1.0  0.99652  0.62075  0.58119  1.0000
  H   H2919     1.0  0.85377  0.81203  0.69622  1.0000
  N   N122      1.0  0.67472  0.95233  0.58010  1.0000
  H   H2920     1.0  0.71191  0.92302  0.56112  1.0000
  C   C1712     1.0  0.88308  0.59873  0.48076  1.0000
  C   C1713     1.0  0.98984  0.57553  0.58928  1.0000
  C   C1714     1.0  0.99464  0.64901  0.60109  1.0000
  C   C1715     1.0  0.69253  0.92739  0.55878  1.0000
  H   H2921     1.0  0.66786  0.98551  0.49799  1.0000
  H   H2922     1.0  0.98759  0.65628  0.54821  1.0000
  C   C1716     1.0  0.68006  0.95182  0.56407  1.0000
  C   C1717     1.0  0.83979  0.80083  0.70208  1.0000
  S   S490      1.0  0.99671  0.57876  0.52346  1.0000
  H   H2923     1.0  0.82951  0.73277  0.69066  1.0000
  H   H2924     1.0  0.67748  0.83259  0.69000  1.0000
  H   H2925     1.0  0.69520  0.95502  0.59748  1.0000
  H   H2926     1.0  0.84720  0.70358  0.69437  1.0000
  C   C1718     1.0  0.70463  0.83237  0.48286  1.0000
  N   N123      1.0  0.83715  0.51411  0.57586  1.0000
  H   H2927     1.0  0.97845  0.62661  0.55240  1.0000
  S   S491      1.0  0.99672  0.66475  0.66884  1.0000
  H   H2928     1.0  0.98545  0.65103  0.61217  1.0000
  H   H2929     1.0  0.99548  0.61038  0.60420  1.0000
  S   S492      1.0  0.68796  0.85611  0.57389  1.0000
  C   C1719     1.0  0.89535  0.50905  0.53883  1.0000
  H   H2930     1.0  0.78167  0.98236  0.64875  1.0000
  H   H2931     1.0  0.82165  0.81053  0.69918  1.0000
  H   H2932     1.0  0.74263  0.79691  0.48975  1.0000
  H   H2933     1.0  0.79953  0.53213  0.57624  1.0000
  C   C1720     1.0  0.69676  0.80214  0.50374  1.0000
  H   H2934     1.0  0.86245  0.53649  0.56265  1.0000
  C   C1721     1.0  0.98816  0.51720  0.51701  1.0000
  H   H2935     1.0  0.74975  0.82649  0.48907  1.0000
  C   C1722     1.0  0.70874  0.91975  0.59083  1.0000
  H   H2936     1.0  0.95827  0.50178  0.50072  1.0000
  C   C1723     1.0  0.81100  0.51824  0.58305  1.0000
  H   H2937     1.0  0.89666  0.61468  0.70753  1.0000
  C   C1724     1.0  0.68678  0.86047  0.59223  1.0000
  H   H2938     1.0  0.95435  0.58958  0.47431  1.0000
  H   H2939     1.0  0.94004  0.50782  0.51693  1.0000
  H   H2940     1.0  0.80594  0.52770  0.55305  1.0000
  H   H2941     1.0  0.67541  0.81855  0.66667  1.0000
  H   H2942     1.0  0.68225  0.97810  0.64975  1.0000
  C   C1725     1.0  0.93443  0.59192  0.47609  1.0000
  H   H2943     1.0  0.92788  0.76220  0.69765  1.0000
  H   H2944     1.0  0.83950  0.80042  0.71382  1.0000
  H   H2945     1.0  0.87670  0.54980  0.47416  1.0000
  S   S493      1.0  0.69235  0.86518  0.70692  1.0000
  H   H2946     1.0  0.87625  0.53684  0.58573  1.0000
  C   C1726     1.0  0.75132  0.80437  0.50970  1.0000
  C   C1727     1.0  0.89952  0.53392  0.49038  1.0000
  H   H2947     1.0  0.97872  0.52980  0.52487  1.0000
  H   H2948     1.0  0.86653  0.52380  0.48487  1.0000
  H   H2949     1.0  0.72684  0.82048  0.71316  1.0000
  H   H2950     1.0  0.66997  0.86185  0.66972  1.0000
  H   H2951     1.0  0.98287  0.56038  0.58530  1.0000
  C   C1728     1.0  0.91188  0.75377  0.70353  1.0000
  H   H2952     1.0  0.68521  0.84967  0.50769  1.0000
  C   C1729     1.0  0.90513  0.49897  0.55157  1.0000
  H   H2953     1.0  0.91498  0.54392  0.48561  1.0000
  H   H2954     1.0  0.68356  0.77936  0.52294  1.0000
  C   C1730     1.0  0.88807  0.76829  0.69833  1.0000
  H   H2955     1.0  0.70138  0.96590  0.66348  1.0000
  H   H2956     1.0  0.91495  0.73442  0.70146  1.0000
  N   N124      1.0  0.71177  0.82248  0.49763  1.0000
  H   H2957     1.0  0.88666  0.78648  0.70216  1.0000
  C   C1731     1.0  0.69338  0.79564  0.52022  1.0000
  H   H2958     1.0  0.68154  0.81059  0.52559  1.0000
  H   H2959     1.0  0.99464  0.54660  0.55019  1.0000
  H   H2960     1.0  0.71209  0.87584  0.49128  1.0000
  C   C1732     1.0  0.70541  0.84330  0.50674  1.0000
  H   H2961     1.0  0.88115  0.71958  0.70027  1.0000
  C   C1733     1.0  0.82529  0.51985  0.54989  1.0000
  C   C1734     1.0  0.98792  0.62574  0.59647  1.0000
  H   H2962     1.0  0.71670  0.84584  0.47724  1.0000
  H   H2963     1.0  0.67804  0.99127  0.66657  1.0000
  H   H2964     1.0  0.78977  0.52107  0.60403  1.0000
  H   H2965     1.0  0.85613  0.50361  0.59500  1.0000
  H   H2966     1.0  0.80182  0.50160  0.58388  1.0000
  H   H2967     1.0  0.00024  0.50233  0.54345  1.0000
  S   S494      1.0  0.66780  0.87727  0.53613  1.0000
  C   C1735     1.0  0.87888  0.64248  0.72066  1.0000
  H   H2968     1.0  0.85560  0.49779  0.84068  1.0000
  C   C1736     1.0  0.93000  0.58815  0.96749  1.0000
  Fe  Fe249     1.0  0.80522  0.60062  0.80079  1.0000
  S   S495      1.0  0.84444  0.60706  0.79317  1.0000
  S   S496      1.0  0.78290  0.63772  0.80534  1.0000
  Fe  Fe250     1.0  0.81950  0.54456  0.80146  1.0000
  S   S497      1.0  0.85914  0.54851  0.79433  1.0000
  H   H2969     1.0  0.90214  0.51945  0.75537  1.0000
  Fe  Fe251     1.0  0.85492  0.57585  0.81002  1.0000
  S   S498      1.0  0.88603  0.57605  0.82347  1.0000
  Fe  Fe252     1.0  0.84501  0.57922  0.77816  1.0000
  S   S499      1.0  0.86324  0.57747  0.75506  1.0000
  S   S500      1.0  0.81608  0.57043  0.81832  1.0000
  S   S501      1.0  0.80513  0.57428  0.78454  1.0000
  C   C1737     1.0  0.91046  0.50427  0.87860  1.0000
  H   H2970     1.0  0.73336  0.66409  0.77798  1.0000
  H   H2971     1.0  0.72500  0.73822  0.77831  1.0000
  H   H2972     1.0  0.75627  0.74344  0.77537  1.0000
  H   H2973     1.0  0.77041  0.70733  0.76365  1.0000
  C   C1738     1.0  0.86608  0.64677  0.73421  1.0000
  H   H2974     1.0  0.86538  0.52365  0.76919  1.0000
  H   H2975     1.0  0.72061  0.86155  0.78064  1.0000
  Fe  Fe253     1.0  0.91359  0.56675  0.90519  1.0000
  S   S502      1.0  0.94137  0.53269  0.90422  1.0000
  S   S503      1.0  0.88196  0.57384  0.89123  1.0000
  Fe  Fe254     1.0  0.93274  0.57952  0.93206  1.0000
  S   S504      1.0  0.96171  0.54655  0.93265  1.0000
  S   S505      1.0  0.92966  0.60365  0.94986  1.0000
  Fe  Fe255     1.0  0.96826  0.55593  0.90885  1.0000
  H   H2976     1.0  0.70341  0.87667  0.75525  1.0000
  Fe  Fe256     1.0  0.93221  0.52680  0.92814  1.0000
  H   H2977     1.0  0.67930  0.99394  0.86943  1.0000
  S   S506      1.0  0.94135  0.59089  0.90820  1.0000
  S   S507      1.0  0.90249  0.55897  0.92911  1.0000
  H   H2978     1.0  0.77014  0.63715  0.76927  1.0000
  H   H2979     1.0  0.70291  0.72311  0.76359  1.0000
  C   C1739     1.0  0.86026  0.50484  0.77081  1.0000
  H   H2980     1.0  0.77818  0.65923  0.75449  1.0000
  H   H2981     1.0  0.93509  0.55206  0.96091  1.0000
  C   C1740     1.0  0.93371  0.56254  0.96982  1.0000
  H   H2982     1.0  0.70076  0.86965  0.81950  1.0000
  H   H2983     1.0  0.77893  0.66475  0.77286  1.0000
  H   H2984     1.0  0.89557  0.51310  0.91919  1.0000
  S   S508      1.0  0.69111  0.77757  0.75823  1.0000
  N   N125      1.0  0.73563  0.69545  0.76175  1.0000
  C   C1741     1.0  0.88470  0.57363  0.84243  1.0000
  C   C1742     1.0  0.90632  0.57434  0.84848  1.0000
  C   C1743     1.0  0.90598  0.57361  0.86344  1.0000
  C   C1744     1.0  0.88390  0.57244  0.87251  1.0000
  C   C1745     1.0  0.86234  0.57123  0.86650  1.0000
  C   C1746     1.0  0.86275  0.57158  0.85156  1.0000
  H   H2985     1.0  0.92341  0.57580  0.84152  1.0000
  H   H2986     1.0  0.92268  0.57460  0.86790  1.0000
  H   H2987     1.0  0.84521  0.57016  0.87347  1.0000
  H   H2988     1.0  0.84604  0.57069  0.84708  1.0000
  H   H2989     1.0  0.68818  0.85046  0.75947  1.0000
  C   C1747     1.0  0.84115  0.51617  0.74858  1.0000
  C   C1748     1.0  0.75117  0.70864  0.76913  1.0000
  C   C1749     1.0  0.71043  0.80153  0.73285  1.0000
  H   H2990     1.0  0.89112  0.72338  0.72387  1.0000
  C   C1750     1.0  0.69529  0.84695  0.80364  1.0000
  C   C1751     1.0  0.70141  0.67233  0.80552  1.0000
  C   C1752     1.0  0.70818  0.64705  0.80458  1.0000
  C   C1753     1.0  0.73298  0.63598  0.80460  1.0000
  C   C1754     1.0  0.75121  0.65006  0.80580  1.0000
  C   C1755     1.0  0.74432  0.67517  0.80715  1.0000
  C   C1756     1.0  0.71965  0.68632  0.80682  1.0000
  H   H2991     1.0  0.69419  0.63602  0.80365  1.0000
  H   H2992     1.0  0.73795  0.61661  0.80367  1.0000
  H   H2993     1.0  0.75823  0.68617  0.80823  1.0000
  H   H2994     1.0  0.71471  0.70570  0.80770  1.0000
  C   C1757     1.0  0.69029  0.80150  0.74370  1.0000
  H   H2995     1.0  0.72573  0.78681  0.73338  1.0000
  H   H2996     1.0  0.86791  0.72825  0.73861  1.0000
  H   H2997     1.0  0.68401  0.81941  0.77561  1.0000
  H   H2998     1.0  0.87736  0.64016  0.82569  1.0000
  H   H2999     1.0  0.72181  0.80216  0.79681  1.0000
  C   C1758     1.0  0.73563  0.72534  0.73794  1.0000
  C   C1759     1.0  0.86129  0.62713  0.74488  1.0000
  H   H3000     1.0  0.98146  0.61877  0.95086  1.0000
  H   H3001     1.0  0.85151  0.63072  0.75525  1.0000
  H   H3002     1.0  0.85991  0.66540  0.73650  1.0000
  H   H3003     1.0  0.69189  0.67045  0.76453  1.0000
  C   C1760     1.0  0.71681  0.80754  0.78575  1.0000
  C   C1761     1.0  0.74211  0.69925  0.74567  1.0000
  H   H3004     1.0  0.83849  0.62901  0.87559  1.0000
  H   H3005     1.0  0.71809  0.79028  0.78089  1.0000
  C   C1762     1.0  0.81413  0.52079  0.75547  1.0000
  C   C1763     1.0  0.70330  0.85889  0.76226  1.0000
  S   S509      1.0  0.67878  0.75663  0.79867  1.0000
  N   N126      1.0  0.85793  0.49660  0.75664  1.0000
  H   H3006     1.0  0.69312  0.69234  0.74830  1.0000
  H   H3007     1.0  0.88844  0.52325  0.85349  1.0000
  H   H3008     1.0  0.91513  0.50965  0.73849  1.0000
  C   C1764     1.0  0.88190  0.59862  0.72853  1.0000
  H   H3009     1.0  0.97024  0.63335  0.96653  1.0000
  H   H3010     1.0  0.73415  0.68634  0.74028  1.0000
  H   H3011     1.0  0.78554  0.63089  0.83803  1.0000
  H   H3012     1.0  0.80112  0.63769  0.86252  1.0000
  H   H3013     1.0  0.73048  0.81844  0.77932  1.0000
  H   H3014     1.0  0.71814  0.73544  0.74251  1.0000
  H   H3015     1.0  0.88810  0.57998  0.72625  1.0000
  H   H3016     1.0  0.75265  0.69968  0.78030  1.0000
  H   H3017     1.0  0.86672  0.52621  0.83477  1.0000
  H   H3018     1.0  0.86713  0.64035  0.87316  1.0000
  C   C1765     1.0  0.86917  0.60291  0.74209  1.0000
  H   H3019     1.0  0.82316  0.63525  0.82429  1.0000
  H   H3020     1.0  0.84799  0.53417  0.74736  1.0000
  H   H3021     1.0  0.80384  0.53558  0.74857  1.0000
  H   H3022     1.0  0.86340  0.51966  0.87654  1.0000
  H   H3023     1.0  0.77961  0.61017  0.85389  1.0000
  H   H3024     1.0  0.73238  0.65737  0.76038  1.0000
  S   S510      1.0  0.81450  0.50428  0.80808  1.0000
  C   C1766     1.0  0.76878  0.65716  0.76562  1.0000
  H   H3025     1.0  0.71551  0.84098  0.80317  1.0000
  H   H3026     1.0  0.82198  0.61052  0.85998  1.0000
  H   H3027     1.0  0.81458  0.67558  0.85436  1.0000
  H   H3028     1.0  0.73934  0.74722  0.76039  1.0000
  C   C1767     1.0  0.69033  0.87147  0.81011  1.0000
  H   H3029     1.0  0.67059  0.87594  0.81429  1.0000
  C   C1768     1.0  0.87104  0.72780  0.72680  1.0000
  C   C1769     1.0  0.70127  0.86358  0.77815  1.0000
  C   C1770     1.0  0.69022  0.82113  0.78596  1.0000
  C   C1771     1.0  0.70860  0.70320  0.76633  1.0000
  H   H3030     1.0  0.83946  0.75407  0.72280  1.0000
  H   H3031     1.0  0.83982  0.66155  0.87075  1.0000
  H   H3032     1.0  0.84508  0.61301  0.83225  1.0000
  H   H3033     1.0  0.78184  0.66929  0.84070  1.0000
  H   H3034     1.0  0.78305  0.50609  0.78528  1.0000
  H   H3035     1.0  0.69639  0.88686  0.80239  1.0000
  H   H3036     1.0  0.80232  0.67225  0.82397  1.0000
  H   H3037     1.0  0.86219  0.71237  0.72468  1.0000
  H   H3038     1.0  0.70466  0.70020  0.77823  1.0000
  C   C1772     1.0  0.74217  0.73592  0.77072  1.0000
  H   H3039     1.0  0.72117  0.84772  0.75900  1.0000
  C   C1773     1.0  0.69059  0.69013  0.76019  1.0000
  H   H3040     1.0  0.69366  0.88325  0.77872  1.0000
  C   C1774     1.0  0.67059  0.82058  0.74284  1.0000
  H   H3041     1.0  0.80419  0.60152  0.84052  1.0000
  H   H3042     1.0  0.84106  0.51205  0.73744  1.0000
  C   C1775     1.0  0.87249  0.50653  0.83848  1.0000
  H   H3043     1.0  0.76229  0.69431  0.74277  1.0000
  H   H3044     1.0  0.85485  0.66513  0.81882  1.0000
  H   H3045     1.0  0.86274  0.63758  0.81065  1.0000
  H   H3046     1.0  0.81258  0.52718  0.76616  1.0000
  H   H3047     1.0  0.83514  0.68040  0.83850  1.0000
  H   H3048     1.0  0.75076  0.73637  0.73766  1.0000
  H   H3049     1.0  0.79350  0.69727  0.83428  1.0000
  H   H3050     1.0  0.67842  0.81026  0.79410  1.0000
  N   N127      1.0  0.68667  0.84735  0.78914  1.0000
  N   N128      1.0  0.83085  0.64231  0.84518  1.0000
  C   C1776     1.0  0.85349  0.63913  0.85290  1.0000
  C   C1777     1.0  0.83874  0.63309  0.83076  1.0000
  C   C1778     1.0  0.81237  0.62725  0.85408  1.0000
  C   C1779     1.0  0.82060  0.66922  0.84364  1.0000
  C   C1780     1.0  0.84901  0.64285  0.86897  1.0000
  C   C1781     1.0  0.85959  0.64499  0.82113  1.0000
  C   C1782     1.0  0.79446  0.61723  0.84602  1.0000
  C   C1783     1.0  0.79835  0.67701  0.83512  1.0000
  H   H3051     1.0  0.86411  0.62052  0.85221  1.0000
  H   H3052     1.0  0.86639  0.65210  0.84770  1.0000
  C   C1784     1.0  0.67148  0.83990  0.73149  1.0000
  C   C1785     1.0  0.74125  0.66829  0.76662  1.0000
  C   C1786     1.0  0.89742  0.51468  0.74522  1.0000
  H   H3053     1.0  0.73278  0.72407  0.72671  1.0000
  H   H3054     1.0  0.68675  0.83324  0.81174  1.0000
  H   H3055     1.0  0.98684  0.56368  0.95726  1.0000
  C   C1787     1.0  0.71112  0.82060  0.72137  1.0000
  H   H3056     1.0  0.88767  0.53122  0.73935  1.0000
  H   H3057     1.0  0.67144  0.69845  0.76362  1.0000
  H   H3058     1.0  0.84225  0.50631  0.77770  1.0000
  H   H3059     1.0  0.80473  0.50440  0.75640  1.0000
  H   H3060     1.0  0.89717  0.51404  0.88650  1.0000
  H   H3061     1.0  0.82026  0.52013  0.87461  1.0000
  H   H3062     1.0  0.83700  0.52552  0.85737  1.0000
  C   C1788     1.0  0.98670  0.62257  0.96111  1.0000
  H   H3063     1.0  0.86796  0.49638  0.90606  1.0000
  S   S511      1.0  0.66784  0.85908  0.94946  1.0000
  H   H3064     1.0  0.67928  0.96963  0.91913  1.0000
  H   H3065     1.0  0.99745  0.59397  0.91272  1.0000
  C   C1789     1.0  0.83433  0.51129  0.86666  1.0000
  S   S512      1.0  0.67017  0.68568  0.80469  1.0000
  H   H3066     1.0  0.91628  0.51749  0.86935  1.0000
  C   C1790     1.0  0.88776  0.50432  0.85126  1.0000
  C   C1791     1.0  0.85820  0.50267  0.87366  1.0000
  H   H3067     1.0  0.87875  0.49621  0.79003  1.0000
  H   H3068     1.0  0.86588  0.76736  0.72416  1.0000
  H   H3069     1.0  0.88406  0.49880  0.82917  1.0000
  H   H3070     1.0  0.90712  0.49732  0.84719  1.0000
  H   H3071     1.0  0.92700  0.49705  0.88412  1.0000
  H   H3072     1.0  0.82632  0.49606  0.86360  1.0000
  C   C1792     1.0  0.69180  0.84008  0.72074  1.0000
