data_image0
_chemical_formula_structural       H2SH3C2HC5HC6H6C2H4CH2FeCH2CHCH2SH4CHCHNH4CH3NH4CHSCH3CHCHC2H5NH6C2HSCH10C3H2FeHSFeH2NCSCFeS2FeS2FeHFeS3CSC2NFeHSH2SHFeS2FeS2FeSFeS3HC5H6NH2SCHC6H4C6H4C6H4FeH12C3HCH2C6H6CHNHC2HCHC5HS2HNCHCSH4C2H2C4H2CH5CHNC3HC4H6C2H2CH10CHSHNC8H20CSH3CH3CHCH2C5SHCH2FeCH6CH5C2FeSHCH4CH4CHNHC2H6CH2CH2C3HSFeSHFeHCFeSHSHFeS2FeS2FeHS2H2C2HCFeSHSCFeCSFeCSHS2C2HCH4C4H9C5H3C6H4CSC4H4C5HFeH4CHC2SCH4CH8CHFeHSCHCHCH4SH5NFeHC2HSCH4C2H8SHCH2NHCH2NHSHC2H7FeC2HCH5CHC2H5CH2SFeCH2SHSCH2CH4CHSFeS2FeS2FeSFeS3FeS2FeSHFe2HS2HSFeSCHSFeSFeHSCFeS2FeS2FeSFeS3C2HCH2C6H7C6H4CH2C3H5C8H4C2HCH2C6H4C6H5NH4CHSH2C2H12CHFeCNC8H11C2H6NC6H17C2HNC8H20NC8H15CH4CHSCSHC3SCH4CHC2HFeH2CH3CNCH2FeHC2HCSH2CH5NHSHSH4CH3CHC2H2NCNH2CH4CH2CH3CFeCHCH3SCHCHC3HCH7CNH3C3HSHSFeS2FeS2FeSFeS3FeS2FeSCFeSFeS5HSHSFeSFeSHFeS2FeS2FeSFeS3H4C6H6C3SHCH2C3H2C6H6C3H3C6H4C6H4CFeSHC6H4C6H5CH7CH5NHNHCH2CHCH3CHC2H2NC8H14CHSH2N2C8H9CH2CH4C2HNC7H11CH5C3H9C2H7CH3C2HFeH2CH5CH2CH4C2H3CH3CHCHCH2NHC2H2CH7C2H4FeHC3H5CHNC2H10NHCHCH2C3H2CH3CH9C2H2CH2C2HCH7CH10C2HCHC2HSHSHSFeSFeHFeS2FeS2FeSFeS5FeS2FeS2FeSFeS3FeS2FeSHFeSFeS3H2NHC3FeHC7H4C6H4C4H6C6H4C5H2C6H7C6H6CH3CH2NC5H12SHSHFeHC4HSHCH4CH2CHSH3NC8H12C2H4CSNC8H20C4H4CHNC2H9CH4CH20CHCHCH2FeH3CH2C2HC2H4CNC3H5CH4CH3CNCH2C2H3CHCH7CHCHC3H3CHNCH7C3H2CH2C2HCHCHSCH4CH4C2H7CHSHSC2H2CHCH2CH2CHC3H4SFeSFeS2FeSFeS3FeS2FeS2FeSFeS4FeS2FeS2FeSFeS3HSFeS2FeSFeS3CHC2HNHC6H4CHNHC6H4C6H4C2HC6H4C6H4C5HC7H4NC8H20NC8H21CH2C3HCSCH2CH4CH3CH4C2HCH2CH2CSH2NCH3C2H2C2H4CSHCHCHCH2CH3CH2NFeC2H5CH3CH4C2HCH4CH6CH2CH10CH8CH2CH2CHNH5FeHCHC2H3CHCH2NCH5SC2H2NH9FeHCFeHSFeS2FeS2FeHFeSFeHSHFeSH2SFeSFeS3FeHSFeCSCHCS2CH2CH2C5H3CH3C5HFeH4SC4H2C6H3CH3NC8H20NC6HCH9NCH4SH5C6HSH5CHSH2CH5C2SHC3HCHC3H5NCNH8CHCSH2CHSHFeS2FeS2FeSFeS3FeHCFeHSCHCS2HSFeS2FeS2FeSFeS3FeS2FeH2FeSHSH5C6H4NHC3H2C6H6C3H5CHCHC6H4C6H4C4H2CHC5H3NC8H11CH8SCHCHCFeHC2HCH4C2HCHCHCHCH2C3H6CHSNH5C3HNHC3HC2H16CH2C4H9CHCNHCHSNC8H8CHCH11CH3NHCH2FeH3FeHCH5C3H2CH8CH2C2H2CHC6H6CHC6H2NHCHSCH2SHC3H11CH3NH5SC3HSHCH3CHC2H4CH2S
_chemical_formula_sum              "H1536 S256 C896 Fe128 N64"
_cell_length_a       55.8294
_cell_length_b       55.8831
_cell_length_c       48.0643
_cell_angle_alpha    89.6853
_cell_angle_beta     90.1461
_cell_angle_gamma    89.1373

_space_group_name_H-M_alt    "P 1"
_space_group_IT_number       1

loop_
  _space_group_symop_operation_xyz
  'x, y, z'

loop_
  _atom_site_type_symbol
  _atom_site_label
  _atom_site_symmetry_multiplicity
  _atom_site_fract_x
  _atom_site_fract_y
  _atom_site_fract_z
  _atom_site_occupancy
  H   H1        1.0  0.47920  0.28813  0.02939  1.0000
  H   H2        1.0  0.10737  0.01719  0.21186  1.0000
  S   S1        1.0  0.45527  0.11109  0.11469  1.0000
  H   H3        1.0  0.03946  0.01647  0.23247  1.0000
  H   H4        1.0  0.03650  0.10515  0.12824  1.0000
  H   H5        1.0  0.48348  0.07817  0.06577  1.0000
  C   C1        1.0  0.06612  0.05135  0.11993  1.0000
  C   C2        1.0  0.06231  0.07623  0.12240  1.0000
  H   H6        1.0  0.41694  0.29151  0.03651  1.0000
  C   C3        1.0  0.01924  0.07101  0.12762  1.0000
  C   C4        1.0  0.02306  0.04614  0.12501  1.0000
  C   C5        1.0  0.04624  0.03640  0.12073  1.0000
  C   C6        1.0  0.42218  0.30957  0.02906  1.0000
  C   C7        1.0  0.04314  0.04098  0.19809  1.0000
  H   H7        1.0  0.04876  0.01728  0.11857  1.0000
  C   C8        1.0  0.42991  0.03274  0.11182  1.0000
  C   C9        1.0  0.45453  0.03780  0.11318  1.0000
  C   C10       1.0  0.46264  0.06159  0.11318  1.0000
  C   C11       1.0  0.44619  0.08073  0.11202  1.0000
  C   C12       1.0  0.42160  0.07567  0.11066  1.0000
  C   C13       1.0  0.41348  0.05185  0.11033  1.0000
  H   H8        1.0  0.46740  0.02316  0.11448  1.0000
  H   H9        1.0  0.48157  0.06513  0.11485  1.0000
  H   H10       1.0  0.40866  0.09029  0.11007  1.0000
  H   H11       1.0  0.39449  0.04831  0.10944  1.0000
  H   H12       1.0  0.07004  0.33287  0.16210  1.0000
  H   H13       1.0  0.07546  0.00690  0.16078  1.0000
  C   C14       1.0  0.46243  0.29258  0.01792  1.0000
  C   C15       1.0  0.10035  0.01991  0.19058  1.0000
  H   H14       1.0  0.45902  0.05807  0.22391  1.0000
  H   H15       1.0  0.29524  0.00340  0.01399  1.0000
  H   H16       1.0  0.48382  0.05738  0.18002  1.0000
  H   H17       1.0  0.49799  0.10562  0.15624  1.0000
  C   C16       1.0  0.48838  0.13773  0.21042  1.0000
  H   H18       1.0  0.00938  0.32941  0.20580  1.0000
  H   H19       1.0  0.38149  0.00847  0.19976  1.0000
  Fe  Fe1       1.0  0.49096  0.12886  0.10435  1.0000
  C   C17       1.0  0.03902  0.08604  0.12592  1.0000
  H   H20       1.0  0.07751  0.08799  0.12185  1.0000
  H   H21       1.0  0.24701  0.02135  0.09956  1.0000
  C   C18       1.0  0.45256  0.10341  0.03687  1.0000
  H   H22       1.0  0.04318  0.05799  0.20993  1.0000
  C   C19       1.0  0.05331  0.02044  0.21649  1.0000
  H   H23       1.0  0.46921  0.03053  0.02870  1.0000
  H   H24       1.0  0.43991  0.09089  0.04674  1.0000
  S   S2        1.0  0.09602  0.03978  0.11767  1.0000
  H   H25       1.0  0.47544  0.15098  0.21914  1.0000
  H   H26       1.0  0.09333  0.03848  0.18843  1.0000
  H   H27       1.0  0.00794  0.03432  0.12635  1.0000
  H   H28       1.0  0.44395  0.32553  0.07438  1.0000
  C   C20       1.0  0.45286  0.06634  0.20409  1.0000
  H   H29       1.0  0.46179  0.11795  0.18904  1.0000
  C   C21       1.0  0.47540  0.11397  0.20558  1.0000
  H   H30       1.0  0.43203  0.28298  0.07842  1.0000
  N   N1        1.0  0.49057  0.09245  0.19769  1.0000
  H   H31       1.0  0.46193  0.27314  0.06864  1.0000
  H   H32       1.0  0.47385  0.31723  0.06607  1.0000
  H   H33       1.0  0.20615  0.00440  0.09575  1.0000
  H   H34       1.0  0.06855  0.02780  0.22839  1.0000
  C   C22       1.0  0.45115  0.28797  0.07773  1.0000
  H   H35       1.0  0.03839  0.31508  0.19970  1.0000
  H   H36       1.0  0.44019  0.08138  0.20825  1.0000
  H   H37       1.0  0.02426  0.03767  0.19203  1.0000
  N   N2        1.0  0.44882  0.31283  0.03200  1.0000
  H   H38       1.0  0.48972  0.07941  0.24017  1.0000
  H   H39       1.0  0.44249  0.05260  0.19280  1.0000
  H   H40       1.0  0.48278  0.10427  0.00913  1.0000
  H   H41       1.0  0.05381  0.04371  0.17897  1.0000
  C   C23       1.0  0.45485  0.31217  0.06268  1.0000
  H   H42       1.0  0.30958  0.00483  0.04670  1.0000
  S   S3        1.0  0.49406  0.15416  0.06796  1.0000
  C   C24       1.0  0.43803  0.04867  0.01142  1.0000
  H   H43       1.0  0.45723  0.28966  0.09966  1.0000
  H   H44       1.0  0.46366  0.11173  0.05324  1.0000
  H   H45       1.0  0.46510  0.11030  0.22491  1.0000
  C   C25       1.0  0.46100  0.04881  0.02953  1.0000
  H   H46       1.0  0.45470  0.05109  0.05138  1.0000
  C   C26       1.0  0.02130  0.32111  0.19001  1.0000
  H   H47       1.0  0.41221  0.32242  0.04253  1.0000
  C   C27       1.0  0.24479  0.00216  0.10017  1.0000
  C   C28       1.0  0.47395  0.07410  0.18555  1.0000
  H   H48       1.0  0.46587  0.08097  0.16583  1.0000
  H   H49       1.0  0.49473  0.14547  0.19056  1.0000
  H   H50       1.0  0.44188  0.11816  0.02713  1.0000
  H   H51       1.0  0.11585  0.01862  0.17622  1.0000
  H   H52       1.0  0.03166  0.32653  0.14776  1.0000
  N   N3        1.0  0.47944  0.06746  0.02273  1.0000
  H   H53       1.0  0.41337  0.00841  0.20243  1.0000
  H   H54       1.0  0.43249  0.02983  0.00840  1.0000
  H   H55       1.0  0.42289  0.05743  0.02259  1.0000
  H   H56       1.0  0.45200  0.27575  0.01836  1.0000
  H   H57       1.0  0.01200  0.30487  0.18260  1.0000
  H   H58       1.0  0.03509  0.00355  0.16735  1.0000
  C   C29       1.0  0.46847  0.09136  0.01460  1.0000
  C   C30       1.0  0.49460  0.07153  0.04828  1.0000
  H   H59       1.0  0.49707  0.03403  0.06355  1.0000
  S   S4        1.0  0.42086  0.00232  0.11330  1.0000
  C   C31       1.0  0.47093  0.29667  0.98772  1.0000
  H   H60       1.0  0.45650  0.30281  0.97349  1.0000
  H   H61       1.0  0.41498  0.33006  0.99038  1.0000
  H   H62       1.0  0.47267  0.03965  0.97137  1.0000
  H   H63       1.0  0.47623  0.07124  0.96239  1.0000
  H   H64       1.0  0.48581  0.30967  0.98713  1.0000
  H   H65       1.0  0.45747  0.09029  0.99551  1.0000
  H   H66       1.0  0.43971  0.05660  0.99046  1.0000
  H   H67       1.0  0.48384  0.03557  0.77828  1.0000
  H   H68       1.0  0.41909  0.29798  0.98556  1.0000
  H   H69       1.0  0.47828  0.27955  0.97943  1.0000
  C   C32       1.0  0.48505  0.05498  0.97113  1.0000
  C   C33       1.0  0.41192  0.31209  0.99945  1.0000
  C   C34       1.0  0.49614  0.05910  0.00001  1.0000
  H   H70       1.0  0.39220  0.30975  0.00028  1.0000
  H   H71       1.0  0.49967  0.05011  0.95646  1.0000
  Fe  Fe2       1.0  0.33775  0.62719  0.31246  1.0000
  H   H72       1.0  0.41374  0.61555  0.03068  1.0000
  S   S5        1.0  0.35853  0.60417  0.28158  1.0000
  Fe  Fe3       1.0  0.33494  0.64980  0.37107  1.0000
  H   H73       1.0  0.48487  0.47022  0.17414  1.0000
  H   H74       1.0  0.05196  0.51508  0.10356  1.0000
  N   N4        1.0  0.04177  0.35881  0.16976  1.0000
  C   C35       1.0  0.13753  0.65724  0.47631  1.0000
  S   S6        1.0  0.32462  0.61383  0.35430  1.0000
  C   C36       1.0  0.21794  0.65058  0.36657  1.0000
  Fe  Fe4       1.0  0.37591  0.54011  0.08860  1.0000
  S   S7        1.0  0.37833  0.58047  0.08787  1.0000
  S   S8        1.0  0.41293  0.52189  0.09268  1.0000
  Fe  Fe5       1.0  0.32095  0.54259  0.08352  1.0000
  S   S9        1.0  0.32053  0.58255  0.08098  1.0000
  S   S10       1.0  0.28648  0.52112  0.08809  1.0000
  Fe  Fe6       1.0  0.35222  0.57884  0.05227  1.0000
  H   H75       1.0  0.40346  0.58584  0.03489  1.0000
  Fe  Fe7       1.0  0.34669  0.58085  0.11668  1.0000
  S   S11       1.0  0.33772  0.60774  0.15099  1.0000
  S   S12       1.0  0.35085  0.53851  0.05172  1.0000
  S   S13       1.0  0.34616  0.54084  0.12040  1.0000
  C   C37       1.0  0.42870  0.54637  0.01471  1.0000
  S   S14       1.0  0.44895  0.41533  0.06563  1.0000
  C   C38       1.0  0.04635  0.39501  0.20294  1.0000
  C   C39       1.0  0.45660  0.33676  0.02073  1.0000
  N   N5        1.0  0.44880  0.56345  0.02040  1.0000
  Fe  Fe8       1.0  0.11261  0.63966  0.34729  1.0000
  H   H76       1.0  0.45404  0.60186  0.01757  1.0000
  S   S15       1.0  0.10632  0.60484  0.32387  1.0000
  H   H77       1.0  0.45276  0.38622  0.12609  1.0000
  H   H78       1.0  0.01341  0.37830  0.19081  1.0000
  S   S16       1.0  0.14940  0.64441  0.36469  1.0000
  H   H79       1.0  0.03615  0.40449  0.21949  1.0000
  Fe  Fe9       1.0  0.14298  0.54996  0.10839  1.0000
  S   S17       1.0  0.12095  0.58279  0.11794  1.0000
  S   S18       1.0  0.17844  0.56149  0.08866  1.0000
  Fe  Fe10      1.0  0.10148  0.51794  0.12757  1.0000
  S   S19       1.0  0.07776  0.54935  0.13908  1.0000
  S   S20       1.0  0.08873  0.47920  0.12318  1.0000
  Fe  Fe11      1.0  0.08974  0.56490  0.09824  1.0000
  S   S21       1.0  0.06255  0.58534  0.07129  1.0000
  Fe  Fe12      1.0  0.11110  0.56492  0.15818  1.0000
  S   S22       1.0  0.11447  0.59339  0.19206  1.0000
  S   S23       1.0  0.11201  0.53322  0.08571  1.0000
  S   S24       1.0  0.13454  0.53239  0.14950  1.0000
  H   H80       1.0  0.49977  0.41123  0.18292  1.0000
  C   C40       1.0  0.03132  0.43483  0.12638  1.0000
  C   C41       1.0  0.05219  0.44685  0.11803  1.0000
  C   C42       1.0  0.06210  0.46498  0.13453  1.0000
  C   C43       1.0  0.05109  0.47061  0.15981  1.0000
  C   C44       1.0  0.03066  0.45809  0.16856  1.0000
  H   H81       1.0  0.06066  0.44220  0.09852  1.0000
  H   H82       1.0  0.05875  0.48414  0.17303  1.0000
  H   H83       1.0  0.11478  0.57053  0.49184  1.0000
  H   H84       1.0  0.14181  0.63912  0.05759  1.0000
  H   H85       1.0  0.05176  0.39040  0.14574  1.0000
  H   H86       1.0  0.48743  0.41056  0.13617  1.0000
  N   N6        1.0  0.13674  0.60413  0.01455  1.0000
  H   H87       1.0  0.00783  0.49055  0.12277  1.0000
  H   H88       1.0  0.10985  0.63752  0.05011  1.0000
  S   S25       1.0  0.35544  0.60536  0.01589  1.0000
  C   C45       1.0  0.03933  0.50796  0.08790  1.0000
  H   H89       1.0  0.47630  0.33870  0.02343  1.0000
  C   C46       1.0  0.10690  0.60209  0.28707  1.0000
  C   C47       1.0  0.10496  0.57928  0.27502  1.0000
  C   C48       1.0  0.10670  0.57622  0.24594  1.0000
  C   C49       1.0  0.11043  0.59600  0.22860  1.0000
  C   C50       1.0  0.11209  0.61883  0.24065  1.0000
  C   C51       1.0  0.11028  0.62190  0.26967  1.0000
  H   H90       1.0  0.10230  0.56386  0.28830  1.0000
  H   H91       1.0  0.10540  0.55857  0.23699  1.0000
  H   H92       1.0  0.11493  0.63424  0.22742  1.0000
  H   H93       1.0  0.11174  0.63954  0.27858  1.0000
  C   C52       1.0  0.25652  0.53264  0.08827  1.0000
  C   C53       1.0  0.25053  0.55501  0.07677  1.0000
  C   C54       1.0  0.22661  0.56351  0.07730  1.0000
  C   C55       1.0  0.20834  0.54991  0.08949  1.0000
  C   C56       1.0  0.21435  0.52769  0.10138  1.0000
  C   C57       1.0  0.23827  0.51907  0.10059  1.0000
  H   H94       1.0  0.26431  0.56563  0.06714  1.0000
  H   H95       1.0  0.22221  0.58070  0.06803  1.0000
  H   H96       1.0  0.20052  0.51697  0.11074  1.0000
  H   H97       1.0  0.24266  0.50173  0.10950  1.0000
  C   C58       1.0  0.42230  0.49206  0.08517  1.0000
  C   C59       1.0  0.44677  0.48596  0.08765  1.0000
  C   C60       1.0  0.45528  0.46276  0.08122  1.0000
  C   C61       1.0  0.43929  0.44517  0.07271  1.0000
  C   C62       1.0  0.41480  0.45122  0.07039  1.0000
  C   C63       1.0  0.40634  0.47456  0.07641  1.0000
  H   H98       1.0  0.45926  0.49929  0.09455  1.0000
  H   H99       1.0  0.47417  0.45845  0.08299  1.0000
  H   H100      1.0  0.40226  0.43779  0.06384  1.0000
  H   H101      1.0  0.38748  0.47897  0.07435  1.0000
  Fe  Fe13      1.0  0.48753  0.40115  0.06759  1.0000
  H   H102      1.0  0.05465  0.53193  0.05636  1.0000
  H   H103      1.0  0.18116  0.59912  0.24778  1.0000
  H   H104      1.0  0.26934  0.63683  0.40503  1.0000
  H   H105      1.0  0.26441  0.59333  0.41895  1.0000
  H   H106      1.0  0.12187  0.62501  0.08122  1.0000
  H   H107      1.0  0.21893  0.61161  0.30666  1.0000
  H   H108      1.0  0.02385  0.42112  0.11330  1.0000
  H   H109      1.0  0.14108  0.55589  0.04039  1.0000
  H   H110      1.0  0.11289  0.59301  0.04741  1.0000
  H   H111      1.0  0.06407  0.39014  0.21196  1.0000
  H   H112      1.0  0.21502  0.61249  0.27072  1.0000
  H   H113      1.0  0.04870  0.37610  0.10004  1.0000
  C   C64       1.0  0.34465  0.64590  0.44541  1.0000
  C   C65       1.0  0.34115  0.62117  0.44624  1.0000
  C   C66       1.0  0.49120  0.43629  0.21531  1.0000
  H   H114      1.0  0.02272  0.46218  0.18853  1.0000
  C   C67       1.0  0.48360  0.42118  0.19011  1.0000
  H   H115      1.0  0.34050  0.61116  0.42706  1.0000
  H   H116      1.0  0.46584  0.57805  0.05711  1.0000
  C   C68       1.0  0.35199  0.60461  0.24541  1.0000
  C   C69       1.0  0.33670  0.62199  0.23376  1.0000
  C   C70       1.0  0.33270  0.62267  0.20484  1.0000
  C   C71       1.0  0.34351  0.60569  0.18723  1.0000
  C   C72       1.0  0.35842  0.58793  0.19887  1.0000
  C   C73       1.0  0.36279  0.58755  0.22782  1.0000
  H   H117      1.0  0.32830  0.63519  0.24698  1.0000
  H   H118      1.0  0.32115  0.63646  0.19602  1.0000
  H   H119      1.0  0.36689  0.57477  0.18556  1.0000
  H   H120      1.0  0.37468  0.57404  0.23664  1.0000
  H   H121      1.0  0.43878  0.47199  0.14563  1.0000
  H   H122      1.0  0.44163  0.55881  0.06447  1.0000
  C   C74       1.0  0.04026  0.37453  0.14418  1.0000
  H   H123      1.0  0.06847  0.50311  0.05865  1.0000
  N   N7        1.0  0.26369  0.63825  0.44960  1.0000
  H   H124      1.0  0.22518  0.57237  0.26385  1.0000
  C   C75       1.0  0.03242  0.37262  0.19446  1.0000
  C   C76       1.0  0.45716  0.56122  0.05025  1.0000
  H   H125      1.0  0.23370  0.62278  0.42755  1.0000
  C   C77       1.0  0.45310  0.39651  0.14580  1.0000
  H   H126      1.0  0.42593  0.59762  0.05825  1.0000
  C   C78       1.0  0.27793  0.63014  0.42457  1.0000
  C   C79       1.0  0.12968  0.60331  0.04483  1.0000
  C   C80       1.0  0.18193  0.61019  0.02625  1.0000
  C   C81       1.0  0.25959  0.66489  0.44650  1.0000
  C   C82       1.0  0.05088  0.51270  0.05934  1.0000
  H   H127      1.0  0.47747  0.53977  0.08008  1.0000
  S   S26       1.0  0.49536  0.36782  0.09265  1.0000
  S   S27       1.0  0.30245  0.64309  0.29922  1.0000
  H   H128      1.0  0.08371  0.38522  0.17061  1.0000
  N   N8        1.0  0.47161  0.43466  0.16647  1.0000
  C   C83       1.0  0.44722  0.44316  0.17602  1.0000
  H   H129      1.0  0.42483  0.35918  0.03134  1.0000
  C   C84       1.0  0.34583  0.65859  0.47055  1.0000
  S   S28       1.0  0.34808  0.66165  0.41361  1.0000
  H   H130      1.0  0.38943  0.66048  0.20231  1.0000
  H   H131      1.0  0.09592  0.36191  0.14864  1.0000
  H   H132      1.0  0.43701  0.42827  0.18556  1.0000
  H   H133      1.0  0.44891  0.45660  0.19287  1.0000
  C   C85       1.0  0.48582  0.45617  0.15781  1.0000
  C   C86       1.0  0.46962  0.41814  0.14190  1.0000
  H   H134      1.0  0.36622  0.66635  0.26407  1.0000
  H   H135      1.0  0.43431  0.40190  0.15009  1.0000
  C   C87       1.0  0.34024  0.62198  0.49718  1.0000
  C   C88       1.0  0.15173  0.56002  0.02157  1.0000
  C   C89       1.0  0.43112  0.45507  0.15352  1.0000
  C   C90       1.0  0.10583  0.58781  0.49666  1.0000
  H   H136      1.0  0.44952  0.36129  0.05586  1.0000
  H   H137      1.0  0.03731  0.61577  0.03254  1.0000
  C   C91       1.0  0.43503  0.51945  0.01298  1.0000
  H   H138      1.0  0.02984  0.55217  0.10409  1.0000
  H   H139      1.0  0.20353  0.62469  0.46502  1.0000
  H   H140      1.0  0.08702  0.58474  0.50282  1.0000
  H   H141      1.0  0.49335  0.54502  0.04854  1.0000
  H   H142      1.0  0.28671  0.58631  0.22865  1.0000
  C   C92       1.0  0.21875  0.63729  0.46453  1.0000
  H   H143      1.0  0.29216  0.59489  0.43874  1.0000
  N   N9        1.0  0.18382  0.60017  0.29291  1.0000
  C   C93       1.0  0.17430  0.62511  0.29881  1.0000
  C   C94       1.0  0.17695  0.58463  0.31734  1.0000
  C   C95       1.0  0.17210  0.59161  0.26644  1.0000
  H   H144      1.0  0.03740  0.51739  0.14608  1.0000
  C   C96       1.0  0.06088  0.58487  0.03450  1.0000
  C   C97       1.0  0.18953  0.59021  0.34515  1.0000
  C   C98       1.0  0.17023  0.56438  0.26208  1.0000
  C   C99       1.0  0.22448  0.57778  0.28602  1.0000
  H   H145      1.0  0.15504  0.62457  0.30487  1.0000
  H   H146      1.0  0.41354  0.45987  0.16288  1.0000
  H   H147      1.0  0.18065  0.56541  0.31353  1.0000
  H   H148      1.0  0.15721  0.58575  0.32082  1.0000
  H   H149      1.0  0.15336  0.59834  0.26515  1.0000
  H   H150      1.0  0.01387  0.47459  0.05818  1.0000
  C   C100      1.0  0.02515  0.33811  0.16503  1.0000
  C   C101      1.0  0.04684  0.60233  0.02060  1.0000
  H   H151      1.0  0.24229  0.60694  0.45817  1.0000
  H   H152      1.0  0.25982  0.65864  0.50270  1.0000
  C   C102      1.0  0.15934  0.61801  0.00976  1.0000
  H   H153      1.0  0.18612  0.60872  0.35225  1.0000
  H   H154      1.0  0.18244  0.57820  0.36157  1.0000
  H   H155      1.0  0.20914  0.58685  0.34405  1.0000
  H   H156      1.0  0.18754  0.55476  0.26433  1.0000
  H   H157      1.0  0.16353  0.56111  0.24064  1.0000
  H   H158      1.0  0.15680  0.55657  0.27640  1.0000
  H   H159      1.0  0.47578  0.44563  0.22513  1.0000
  H   H160      1.0  0.21728  0.56302  0.29871  1.0000
  H   H161      1.0  0.40087  0.65906  0.23757  1.0000
  H   H162      1.0  0.03230  0.36123  0.21348  1.0000
  C   C103      1.0  0.28157  0.60283  0.42138  1.0000
  H   H163      1.0  0.46353  0.42804  0.12303  1.0000
  S   S29       1.0  0.15092  0.64823  0.44470  1.0000
  H   H164      1.0  0.25449  0.58295  0.22450  1.0000
  N   N10       1.0  0.27366  0.57177  0.17091  1.0000
  C   C104      1.0  0.29341  0.55621  0.18321  1.0000
  C   C105      1.0  0.27326  0.59513  0.18653  1.0000
  C   C106      1.0  0.27956  0.57618  0.14061  1.0000
  C   C107      1.0  0.25042  0.55853  0.17363  1.0000
  C   C108      1.0  0.29737  0.53163  0.16924  1.0000
  C   C109      1.0  0.27025  0.59352  0.21839  1.0000
  C   C110      1.0  0.27111  0.60022  0.12751  1.0000
  C   C111      1.0  0.22764  0.57187  0.16368  1.0000
  H   H165      1.0  0.31079  0.56579  0.18259  1.0000
  H   H166      1.0  0.29000  0.55212  0.20549  1.0000
  H   H167      1.0  0.25881  0.60731  0.17886  1.0000
  H   H168      1.0  0.29019  0.60485  0.18263  1.0000
  H   H169      1.0  0.29927  0.57553  0.13713  1.0000
  H   H170      1.0  0.27253  0.56166  0.12749  1.0000
  H   H171      1.0  0.25105  0.54171  0.16131  1.0000
  H   H172      1.0  0.24751  0.55283  0.19553  1.0000
  H   H173      1.0  0.29887  0.53292  0.14634  1.0000
  H   H174      1.0  0.31441  0.52353  0.17706  1.0000
  H   H175      1.0  0.28290  0.51903  0.17458  1.0000
  H   H176      1.0  0.27326  0.59930  0.10458  1.0000
  H   H177      1.0  0.28246  0.61511  0.13481  1.0000
  H   H178      1.0  0.25211  0.60468  0.13158  1.0000
  H   H179      1.0  0.24308  0.58007  0.29381  1.0000
  H   H180      1.0  0.21193  0.56026  0.16728  1.0000
  H   H181      1.0  0.22810  0.57536  0.14098  1.0000
  H   H182      1.0  0.14297  0.59345  0.05782  1.0000
  H   H183      1.0  0.49925  0.42418  0.23132  1.0000
  H   H184      1.0  0.17832  0.60308  0.04727  1.0000
  C   C112      1.0  0.33917  0.60925  0.47204  1.0000
  S   S30       1.0  0.09538  0.64986  0.38821  1.0000
  H   H185      1.0  0.41468  0.54786  0.03108  1.0000
  H   H186      1.0  0.03957  0.48832  0.09128  1.0000
  H   H187      1.0  0.04008  0.50600  0.04177  1.0000
  C   C113      1.0  0.17604  0.64348  0.27479  1.0000
  H   H188      1.0  0.16547  0.63823  0.25629  1.0000
  H   H189      1.0  0.04833  0.40808  0.18576  1.0000
  H   H190      1.0  0.33685  0.59007  0.47256  1.0000
  C   C114      1.0  0.12569  0.62784  0.05879  1.0000
  H   H191      1.0  0.18380  0.63317  0.31672  1.0000
  C   C115      1.0  0.41957  0.59706  0.03640  1.0000
  H   H192      1.0  0.19265  0.59678  0.01446  1.0000
  H   H193      1.0  0.03184  0.35048  0.10945  1.0000
  C   C116      1.0  0.15116  0.65666  0.50093  1.0000
  C   C117      1.0  0.47539  0.54103  0.05712  1.0000
  C   C118      1.0  0.01797  0.52142  0.14569  1.0000
  C   C119      1.0  0.23594  0.65737  0.32150  1.0000
  C   C120      1.0  0.24007  0.62532  0.44933  1.0000
  S   S31       1.0  0.25400  0.61978  0.35212  1.0000
  H   H194      1.0  0.08412  0.55416  0.02925  1.0000
  C   C121      1.0  0.06670  0.34898  0.17519  1.0000
  H   H195      1.0  0.24919  0.65272  0.30600  1.0000
  H   H196      1.0  0.22288  0.64197  0.48630  1.0000
  Fe  Fe14      1.0  0.13237  0.65806  0.40389  1.0000
  C   C122      1.0  0.02068  0.44007  0.15200  1.0000
  H   H197      1.0  0.29678  0.63789  0.47342  1.0000
  H   H198      1.0  0.26753  0.61187  0.22672  1.0000
  H   H199      1.0  0.22426  0.58867  0.17524  1.0000
  H   H200      1.0  0.15334  0.54305  0.00975  1.0000
  H   H201      1.0  0.47780  0.46468  0.13890  1.0000
  H   H202      1.0  0.35296  0.66796  0.21789  1.0000
  C   C123      1.0  0.23486  0.64436  0.34647  1.0000
  H   H203      1.0  0.19484  0.64691  0.26884  1.0000
  H   H204      1.0  0.21719  0.64078  0.38598  1.0000
  H   H205      1.0  0.45988  0.38416  0.16225  1.0000
  H   H206      1.0  0.43336  0.51077  0.03365  1.0000
  H   H207      1.0  0.02180  0.38214  0.14187  1.0000
  C   C124      1.0  0.07319  0.56765  0.01887  1.0000
  C   C125      1.0  0.01570  0.54513  0.09007  1.0000
  Fe  Fe15      1.0  0.29051  0.63257  0.34181  1.0000
  S   S32       1.0  0.35174  0.66144  0.33054  1.0000
  H   H208      1.0  0.29194  0.59941  0.40209  1.0000
  C   C126      1.0  0.21056  0.60160  0.28936  1.0000
  H   H209      1.0  0.10233  0.36217  0.18466  1.0000
  H   H210      1.0  0.29620  0.63777  0.42467  1.0000
  H   H211      1.0  0.42735  0.44304  0.13584  1.0000
  H   H212      1.0  0.21214  0.65344  0.45311  1.0000
  C   C127      1.0  0.27801  0.63190  0.47528  1.0000
  H   H213      1.0  0.01502  0.54103  0.14700  1.0000
  H   H214      1.0  0.46961  0.52331  0.04992  1.0000
  H   H215      1.0  0.15640  0.63752  0.01327  1.0000
  H   H216      1.0  0.47163  0.40708  0.19838  1.0000
  C   C128      1.0  0.43929  0.58869  0.01611  1.0000
  H   H217      1.0  0.02117  0.55082  0.06883  1.0000
  N   N11       1.0  0.01451  0.51824  0.09208  1.0000
  H   H218      1.0  0.45108  0.37524  0.02268  1.0000
  C   C129      1.0  0.11330  0.66379  0.47755  1.0000
  C   C130      1.0  0.08786  0.36589  0.16924  1.0000
  H   H219      1.0  0.19328  0.62604  0.02988  1.0000
  H   H220      1.0  0.06350  0.35168  0.11769  1.0000
  H   H221      1.0  0.10506  0.59829  0.47692  1.0000
  H   H222      1.0  0.01039  0.51347  0.16493  1.0000
  H   H223      1.0  0.28002  0.61216  0.47756  1.0000
  H   H224      1.0  0.16832  0.66081  0.28197  1.0000
  C   C131      1.0  0.04656  0.36220  0.11645  1.0000
  H   H225      1.0  0.16998  0.65190  0.50005  1.0000
  H   H226      1.0  0.00715  0.34476  0.15830  1.0000
  C   C132      1.0  0.44457  0.35906  0.03370  1.0000
  H   H227      1.0  0.06840  0.34271  0.19716  1.0000
  H   H228      1.0  0.17006  0.56491  0.02771  1.0000
  C   C133      1.0  0.34341  0.64674  0.49631  1.0000
  C   C134      1.0  0.26828  0.64067  0.50347  1.0000
  C   C135      1.0  0.00558  0.51028  0.12022  1.0000
  H   H229      1.0  0.10266  0.66437  0.45870  1.0000
  S   S33       1.0  0.29971  0.66747  0.36096  1.0000
  Fe  Fe16      1.0  0.33120  0.62456  0.57077  1.0000
  S   S34       1.0  0.29312  0.63433  0.58100  1.0000
  H   H230      1.0  0.14249  0.55887  0.56338  1.0000
  Fe  Fe17      1.0  0.34971  0.64095  0.62838  1.0000
  H   H231      1.0  0.37429  0.56719  0.84916  1.0000
  C   C136      1.0  0.05067  0.65448  0.74335  1.0000
  Fe  Fe18      1.0  0.30066  0.61825  0.62284  1.0000
  S   S35       1.0  0.27650  0.59352  0.64663  1.0000
  H   H232      1.0  0.09394  0.60664  0.56608  1.0000
  S   S36       1.0  0.33778  0.60548  0.61171  1.0000
  H   H233      1.0  0.44545  0.62052  0.74362  1.0000
  Fe  Fe19      1.0  0.41899  0.63258  0.81457  1.0000
  S   S37       1.0  0.45559  0.64341  0.80108  1.0000
  S   S38       1.0  0.38561  0.62833  0.78764  1.0000
  Fe  Fe20      1.0  0.43586  0.62201  0.87490  1.0000
  S   S39       1.0  0.47382  0.63297  0.86526  1.0000
  S   S40       1.0  0.42648  0.59834  0.91235  1.0000
  Fe  Fe21      1.0  0.47015  0.61182  0.82575  1.0000
  H   H234      1.0  0.02280  0.55090  0.91001  1.0000
  S   S41       1.0  0.41861  0.65434  0.85394  1.0000
  S   S42       1.0  0.43318  0.59979  0.83633  1.0000
  H   H235      1.0  0.31826  0.62902  0.81386  1.0000
  H   H236      1.0  0.10895  0.61918  0.52193  1.0000
  C   C137      1.0  0.10114  0.57342  0.58827  1.0000
  C   C138      1.0  0.13548  0.56535  0.54287  1.0000
  H   H237      1.0  0.46988  0.60502  0.75923  1.0000
  C   C139      1.0  0.46961  0.56018  0.00073  1.0000
  Fe  Fe22      1.0  0.14366  0.62622  0.63837  1.0000
  S   S43       1.0  0.16331  0.59091  0.63674  1.0000
  H   H238      1.0  0.10223  0.62627  0.95821  1.0000
  S   S44       1.0  0.10495  0.62977  0.62547  1.0000
  C   C140      1.0  0.11960  0.60246  0.51847  1.0000
  Fe  Fe23      1.0  0.03890  0.62086  0.84514  1.0000
  C   C141      1.0  0.35806  0.65416  0.88278  1.0000
  S   S45       1.0  0.05915  0.60712  0.80748  1.0000
  Fe  Fe24      1.0  0.03909  0.61181  0.90865  1.0000
  C   C142      1.0  0.06715  0.64576  0.72362  1.0000
  S   S46       1.0  0.05871  0.58662  0.93890  1.0000
  H   H239      1.0  0.41882  0.56601  0.78136  1.0000
  S   S47       1.0  0.02303  0.59252  0.87242  1.0000
  S   S48       1.0  0.05765  0.63812  0.88087  1.0000
  C   C143      1.0  0.05830  0.58602  0.97569  1.0000
  C   C144      1.0  0.11664  0.61686  0.99899  1.0000
  H   H240      1.0  0.32333  0.60467  0.93098  1.0000
  C   C145      1.0  0.37167  0.60216  0.86972  1.0000
  H   H241      1.0  0.30078  0.61341  0.84002  1.0000
  H   H242      1.0  0.08139  0.55480  0.97765  1.0000
  H   H243      1.0  0.03559  0.61711  0.98082  1.0000
  H   H244      1.0  0.26260  0.64668  0.65199  1.0000
  C   C146      1.0  0.08171  0.62602  0.73043  1.0000
  C   C147      1.0  0.07940  0.61473  0.75649  1.0000
  C   C148      1.0  0.06298  0.62341  0.77622  1.0000
  C   C149      1.0  0.04881  0.64355  0.76973  1.0000
  H   H245      1.0  0.37872  0.60875  0.88975  1.0000
  H   H246      1.0  0.09437  0.61910  0.71536  1.0000
  H   H247      1.0  0.09032  0.59909  0.76131  1.0000
  H   H248      1.0  0.36138  0.64230  0.84035  1.0000
  H   H249      1.0  0.41749  0.65390  0.74978  1.0000
  H   H250      1.0  0.13252  0.62424  0.56464  1.0000
  H   H251      1.0  0.41808  0.60023  0.71509  1.0000
  H   H252      1.0  0.16866  0.61369  0.53159  1.0000
  H   H253      1.0  0.37498  0.64737  0.89216  1.0000
  C   C150      1.0  0.46344  0.56196  0.96943  1.0000
  C   C151      1.0  0.40519  0.60089  0.93957  1.0000
  C   C152      1.0  0.39800  0.57993  0.95333  1.0000
  C   C153      1.0  0.40158  0.65094  0.70884  1.0000
  C   C154      1.0  0.39623  0.62298  0.94872  1.0000
  H   H254      1.0  0.40457  0.56274  0.94615  1.0000
  H   H255      1.0  0.03612  0.65039  0.78479  1.0000
  H   H256      1.0  0.40167  0.63927  0.93843  1.0000
  C   C155      1.0  0.24521  0.59287  0.64180  1.0000
  C   C156      1.0  0.23302  0.60880  0.62390  1.0000
  C   C157      1.0  0.20776  0.60895  0.62278  1.0000
  C   C158      1.0  0.19479  0.59241  0.63860  1.0000
  C   C159      1.0  0.20713  0.57596  0.65554  1.0000
  C   C160      1.0  0.23215  0.57646  0.65748  1.0000
  H   H257      1.0  0.24307  0.62100  0.61116  1.0000
  H   H258      1.0  0.19840  0.62143  0.60925  1.0000
  H   H259      1.0  0.19729  0.56301  0.66760  1.0000
  H   H260      1.0  0.24145  0.56401  0.67122  1.0000
  C   C161      1.0  0.38229  0.64248  0.69296  1.0000
  S   S49       1.0  0.49177  0.58060  0.80679  1.0000
  C   C162      1.0  0.40274  0.64694  0.73782  1.0000
  C   C163      1.0  0.38467  0.63426  0.75126  1.0000
  C   C164      1.0  0.36523  0.62604  0.73546  1.0000
  C   C165      1.0  0.36403  0.63012  0.70648  1.0000
  H   H261      1.0  0.33164  0.64710  0.85237  1.0000
  H   H262      1.0  0.44936  0.54924  0.96326  1.0000
  H   H263      1.0  0.35108  0.61632  0.74562  1.0000
  H   H264      1.0  0.34910  0.62346  0.69454  1.0000
  C   C166      1.0  0.04572  0.60306  0.99130  1.0000
  C   C167      1.0  0.11738  0.61542  0.96690  1.0000
  C   C168      1.0  0.37424  0.60309  0.98624  1.0000
  C   C169      1.0  0.38260  0.58099  0.97651  1.0000
  C   C170      1.0  0.43888  0.60610  0.67900  1.0000
  H   H265      1.0  0.48134  0.50305  0.87894  1.0000
  Fe  Fe25      1.0  0.10097  0.65353  0.66292  1.0000
  H   H266      1.0  0.45331  0.59836  0.66595  1.0000
  H   H267      1.0  0.25039  0.66181  0.61242  1.0000
  H   H268      1.0  0.00829  0.57427  0.75291  1.0000
  H   H269      1.0  0.44277  0.62483  0.68470  1.0000
  C   C171      1.0  0.16678  0.60853  0.55369  1.0000
  H   H270      1.0  0.15993  0.57789  0.50868  1.0000
  C   C172      1.0  0.10112  0.58840  0.56107  1.0000
  C   C173      1.0  0.32916  0.60730  0.88621  1.0000
  S   S50       1.0  0.38228  0.64697  0.65630  1.0000
  C   C174      1.0  0.33868  0.60622  0.91646  1.0000
  H   H271      1.0  0.48074  0.62148  0.70022  1.0000
  H   H272      1.0  0.42504  0.59633  0.77289  1.0000
  H   H273      1.0  0.00887  0.60000  0.81179  1.0000
  H   H274      1.0  0.19379  0.65941  0.68514  1.0000
  C   C175      1.0  0.20687  0.66290  0.70196  1.0000
  H   H275      1.0  0.15166  0.54733  0.50695  1.0000
  H   H276      1.0  0.00798  0.55669  0.82768  1.0000
  H   H277      1.0  0.35865  0.56636  0.88210  1.0000
  H   H278      1.0  0.16457  0.61718  0.98748  1.0000
  H   H279      1.0  0.21140  0.65963  0.64355  1.0000
  H   H280      1.0  0.08320  0.57509  0.59809  1.0000
  H   H281      1.0  0.43973  0.55179  0.73845  1.0000
  H   H282      1.0  0.48253  0.53406  0.87300  1.0000
  C   C176      1.0  0.25141  0.65094  0.67038  1.0000
  H   H283      1.0  0.14867  0.57918  0.98280  1.0000
  Fe  Fe26      1.0  0.11742  0.66225  0.60222  1.0000
  H   H284      1.0  0.42223  0.51072  0.99863  1.0000
  S   S51       1.0  0.31299  0.65247  0.64209  1.0000
  C   C177      1.0  0.43331  0.59077  0.70483  1.0000
  H   H285      1.0  0.33553  0.58166  0.83971  1.0000
  C   C178      1.0  0.42215  0.57846  0.76375  1.0000
  H   H286      1.0  0.12127  0.55244  0.53715  1.0000
  C   C179      1.0  0.38077  0.62403  0.97190  1.0000
  H   H287      1.0  0.02064  0.60156  0.76408  1.0000
  H   H288      1.0  0.35258  0.60239  0.82032  1.0000
  H   H289      1.0  0.37718  0.56474  0.98692  1.0000
  H   H290      1.0  0.30862  0.59931  0.80784  1.0000
  S   S52       1.0  0.13857  0.64682  0.67804  1.0000
  H   H291      1.0  0.41564  0.66076  0.69864  1.0000
  H   H292      1.0  0.45824  0.56581  0.76351  1.0000
  H   H293      1.0  0.47968  0.55742  0.95710  1.0000
  H   H294      1.0  0.17737  0.59203  0.55833  1.0000
  H   H295      1.0  0.34400  0.65617  0.89888  1.0000
  N   N12       1.0  0.45355  0.58617  0.72516  1.0000
  Fe  Fe27      1.0  0.45630  0.66406  0.84152  1.0000
  H   H296      1.0  0.21521  0.64578  0.70898  1.0000
  C   C180      1.0  0.01006  0.54488  0.92621  1.0000
  C   C181      1.0  0.00380  0.59349  0.75639  1.0000
  H   H297      1.0  0.35033  0.59027  0.92020  1.0000
  S   S53       1.0  0.15636  0.65705  0.61267  1.0000
  C   C182      1.0  0.37360  0.57458  0.87056  1.0000
  H   H298      1.0  0.11423  0.57948  0.60397  1.0000
  H   H299      1.0  0.08728  0.58014  0.54776  1.0000
  H   H300      1.0  0.42605  0.57351  0.69721  1.0000
  H   H301      1.0  0.01285  0.59776  0.71266  1.0000
  C   C183      1.0  0.47381  0.57313  0.71071  1.0000
  C   C184      1.0  0.14060  0.60595  0.56314  1.0000
  H   H302      1.0  0.25561  0.62762  0.51248  1.0000
  H   H303      1.0  0.28360  0.64254  0.51810  1.0000
  H   H304      1.0  0.02141  0.53809  0.94357  1.0000
  H   H305      1.0  0.14190  0.59946  0.58485  1.0000
  H   H306      1.0  0.34857  0.62231  0.92259  1.0000
  H   H307      1.0  0.48412  0.52297  0.90830  1.0000
  H   H308      1.0  0.50257  0.47028  0.87605  1.0000
  H   H309      1.0  0.10428  0.55411  0.58416  1.0000
  S   S54       1.0  0.33729  0.60633  0.52908  1.0000
  H   H310      1.0  0.42258  0.60708  0.66567  1.0000
  C   C185      1.0  0.33860  0.60115  0.83675  1.0000
  H   H311      1.0  0.17286  0.55655  0.53239  1.0000
  H   H312      1.0  0.31430  0.62082  0.88571  1.0000
  N   N13       1.0  0.12477  0.59012  0.54592  1.0000
  H   H313      1.0  0.17511  0.62299  0.56596  1.0000
  C   C186      1.0  0.31515  0.61155  0.82426  1.0000
  H   H314      1.0  0.11476  0.59691  0.95932  1.0000
  H   H315      1.0  0.13408  0.62277  0.95814  1.0000
  N   N14       1.0  0.34710  0.61239  0.86348  1.0000
  H   H316      1.0  0.40565  0.57877  0.75083  1.0000
  S   S55       1.0  0.34660  0.65902  0.58615  1.0000
  H   H317      1.0  0.02217  0.56130  0.79512  1.0000
  C   C187      1.0  0.44427  0.56951  0.74744  1.0000
  C   C188      1.0  0.46131  0.60907  0.73876  1.0000
  H   H318      1.0  0.48918  0.48282  0.92241  1.0000
  H   H319      1.0  0.49741  0.62319  0.73235  1.0000
  H   H320      1.0  0.47392  0.64391  0.72508  1.0000
  H   H321      1.0  0.15108  0.66141  0.54559  1.0000
  H   H322      1.0  0.39062  0.56911  0.88101  1.0000
  H   H323      1.0  0.38471  0.60842  0.85389  1.0000
  H   H324      1.0  0.32032  0.58980  0.88280  1.0000
  Fe  Fe28      1.0  0.02417  0.66118  0.88425  1.0000
  C   C189      1.0  0.26756  0.64677  0.69613  1.0000
  C   C190      1.0  0.34921  0.63895  0.85830  1.0000
  H   H325      1.0  0.25779  0.64923  0.71595  1.0000
  C   C191      1.0  0.07167  0.56810  0.98962  1.0000
  H   H326      1.0  0.45344  0.33833  0.99801  1.0000
  H   H327      1.0  0.28365  0.65813  0.69577  1.0000
  H   H328      1.0  0.43154  0.59109  0.99495  1.0000
  H   H329      1.0  0.23757  0.63684  0.67071  1.0000
  H   H330      1.0  0.37421  0.64121  0.97914  1.0000
  C   C192      1.0  0.47932  0.62479  0.72275  1.0000
  H   H331      1.0  0.27421  0.62792  0.69592  1.0000
  C   C193      1.0  0.14047  0.66193  0.52675  1.0000
  C   C194      1.0  0.48985  0.51949  0.88656  1.0000
  H   H332      1.0  0.34442  0.65660  0.51554  1.0000
  H   H333      1.0  0.09895  0.60986  0.00548  1.0000
  H   H334      1.0  0.48127  0.58365  0.69332  1.0000
  H   H335      1.0  0.46711  0.55655  0.70070  1.0000
  H   H336      1.0  0.45800  0.58039  0.96313  1.0000
  C   C195      1.0  0.15603  0.56201  0.52153  1.0000
  H   H337      1.0  0.49082  0.55023  0.74298  1.0000
  H   H338      1.0  0.01078  0.52258  0.99164  1.0000
  S   S56       1.0  0.00635  0.64502  0.84670  1.0000
  Fe  Fe29      1.0  0.30885  0.66749  0.59894  1.0000
  C   C196      1.0  0.13913  0.57906  0.00313  1.0000
  H   H339      1.0  0.13605  0.60876  0.50817  1.0000
  H   H340      1.0  0.00741  0.57968  0.94312  1.0000
  S   S57       1.0  0.00682  0.63573  0.91484  1.0000
  H   H341      1.0  0.12113  0.57165  0.99878  1.0000
  S   S58       1.0  0.06822  0.65914  0.69024  1.0000
  C   C197      1.0  0.49522  0.56571  0.72946  1.0000
  H   H342      1.0  0.41893  0.55129  0.99536  1.0000
  H   H343      1.0  0.50152  0.58058  0.74263  1.0000
  C   C198      1.0  0.11600  0.66755  0.52810  1.0000
  H   H344      1.0  0.11598  0.63626  0.00408  1.0000
  H   H345      1.0  0.47894  0.54274  0.00378  1.0000
  H   H346      1.0  0.48359  0.57371  0.00513  1.0000
  H   H347      1.0  0.45288  0.51534  0.00431  1.0000
  C   C199      1.0  0.00456  0.56224  0.80581  1.0000
  H   H348      1.0  0.26240  0.90243  0.47034  1.0000
  S   S59       1.0  0.30695  0.71164  0.29865  1.0000
  Fe  Fe30      1.0  0.30905  0.84712  0.36448  1.0000
  S   S60       1.0  0.32093  0.88495  0.36686  1.0000
  S   S61       1.0  0.27511  0.83830  0.38656  1.0000
  Fe  Fe31      1.0  0.35580  0.83048  0.33990  1.0000
  S   S62       1.0  0.37201  0.86722  0.34130  1.0000
  S   S63       1.0  0.37561  0.79689  0.32744  1.0000
  Fe  Fe32      1.0  0.35515  0.86929  0.38403  1.0000
  S   S64       1.0  0.36847  0.88570  0.42435  1.0000
  Fe  Fe33      1.0  0.33615  0.87932  0.32398  1.0000
  S   S65       1.0  0.32743  0.90870  0.29203  1.0000
  S   S66       1.0  0.34220  0.83173  0.38367  1.0000
  S   S67       1.0  0.32099  0.84237  0.32029  1.0000
  Fe  Fe34      1.0  0.35969  0.94013  0.13299  1.0000
  S   S68       1.0  0.35616  0.97970  0.14031  1.0000
  S   S69       1.0  0.36437  0.91103  0.16625  1.0000
  Fe  Fe35      1.0  0.36150  0.94652  0.06868  1.0000
  S   S70       1.0  0.35803  0.98660  0.07197  1.0000
  H   H349      1.0  0.26742  0.84012  0.48171  1.0000
  Fe  Fe36      1.0  0.38464  0.98383  0.10735  1.0000
  Fe  Fe37      1.0  0.32974  0.97908  0.10448  1.0000
  H   H350      1.0  0.35351  0.69211  0.27942  1.0000
  S   S71       1.0  0.38965  0.94391  0.10198  1.0000
  S   S72       1.0  0.33177  0.93930  0.09925  1.0000
  H   H351      1.0  0.23516  0.86890  0.46404  1.0000
  S   S73       1.0  0.06407  0.71212  0.37478  1.0000
  Fe  Fe38      1.0  0.15125  0.96697  0.09972  1.0000
  S   S74       1.0  0.12684  0.93541  0.09488  1.0000
  C   C200      1.0  0.22157  0.99259  0.09808  1.0000
  H   H352      1.0  0.07557  0.85829  0.43973  1.0000
  S   S75       1.0  0.08116  0.97144  0.10528  1.0000
  Fe  Fe39      1.0  0.10734  0.95016  0.13216  1.0000
  S   S76       1.0  0.09435  0.92599  0.16738  1.0000
  Fe  Fe40      1.0  0.10324  0.95937  0.06853  1.0000
  H   H353      1.0  0.43469  0.85952  0.02345  1.0000
  S   S77       1.0  0.13282  0.98028  0.13853  1.0000
  C   C201      1.0  0.14373  0.80025  0.44005  1.0000
  Fe  Fe41      1.0  0.15843  0.83780  0.32806  1.0000
  S   S78       1.0  0.16687  0.87473  0.34232  1.0000
  S   S79       1.0  0.18772  0.81524  0.30932  1.0000
  Fe  Fe42      1.0  0.10703  0.84234  0.34595  1.0000
  S   S80       1.0  0.11102  0.88027  0.36079  1.0000
  S   S81       1.0  0.07215  0.82317  0.35051  1.0000
  Fe  Fe43      1.0  0.13223  0.88522  0.32096  1.0000
  S   S82       1.0  0.13444  0.91783  0.29209  1.0000
  Fe  Fe44      1.0  0.14512  0.86621  0.38053  1.0000
  S   S83       1.0  0.16078  0.86915  0.42443  1.0000
  S   S84       1.0  0.12515  0.84838  0.30479  1.0000
  S   S85       1.0  0.13968  0.82816  0.36744  1.0000
  C   C202      1.0  0.14592  0.87478  0.45651  1.0000
  C   C203      1.0  0.15763  0.86841  0.48147  1.0000
  H   H354      1.0  0.18842  0.67395  0.37700  1.0000
  C   C204      1.0  0.12312  0.88549  0.45785  1.0000
  H   H355      1.0  0.17529  0.86022  0.48071  1.0000
  H   H356      1.0  0.11399  0.89075  0.43885  1.0000
  C   C205      1.0  0.10698  0.92313  0.20135  1.0000
  C   C206      1.0  0.12415  0.93896  0.21134  1.0000
  C   C207      1.0  0.13254  0.93694  0.23902  1.0000
  C   C208      1.0  0.12426  0.91883  0.25691  1.0000
  C   C209      1.0  0.10742  0.90275  0.24674  1.0000
  C   C210      1.0  0.09869  0.90505  0.21924  1.0000
  H   H357      1.0  0.13071  0.95298  0.19790  1.0000
  H   H358      1.0  0.14550  0.94953  0.24666  1.0000
  H   H359      1.0  0.10073  0.88884  0.26025  1.0000
  H   H360      1.0  0.08535  0.89276  0.21182  1.0000
  H   H361      1.0  0.10571  0.76768  0.24849  1.0000
  H   H362      1.0  0.06952  0.82969  0.47450  1.0000
  H   H363      1.0  0.05848  0.96387  0.15862  1.0000
  C   C211      1.0  0.06740  0.74307  0.36968  1.0000
  C   C212      1.0  0.04730  0.75653  0.36139  1.0000
  C   C213      1.0  0.04914  0.78104  0.35596  1.0000
  C   C214      1.0  0.07107  0.79249  0.35895  1.0000
  C   C215      1.0  0.09114  0.77930  0.36835  1.0000
  C   C216      1.0  0.08934  0.75452  0.37357  1.0000
  H   H364      1.0  0.03026  0.74784  0.35866  1.0000
  H   H365      1.0  0.03350  0.79112  0.34905  1.0000
  H   H366      1.0  0.10802  0.78804  0.37138  1.0000
  H   H367      1.0  0.10480  0.74427  0.38057  1.0000
  C   C217      1.0  0.26512  0.98711  0.10295  1.0000
  H   H368      1.0  0.24802  0.67223  0.46318  1.0000
  H   H369      1.0  0.45598  0.95398  0.20691  1.0000
  C   C218      1.0  0.21847  0.96779  0.09846  1.0000
  C   C219      1.0  0.23880  0.95277  0.10134  1.0000
  C   C220      1.0  0.26193  0.96234  0.10392  1.0000
  H   H370      1.0  0.34868  0.71415  0.33467  1.0000
  H   H371      1.0  0.25520  0.69428  0.38662  1.0000
  H   H372      1.0  0.23663  0.93357  0.10187  1.0000
  H   H373      1.0  0.27727  0.95058  0.10679  1.0000
  H   H374      1.0  0.03948  0.95084  0.18487  1.0000
  C   C221      1.0  0.11241  0.89008  0.48393  1.0000
  C   C222      1.0  0.36202  0.72464  0.24178  1.0000
  C   C223      1.0  0.25139  0.83124  0.36464  1.0000
  C   C224      1.0  0.25524  0.82478  0.33689  1.0000
  C   C225      1.0  0.23571  0.81886  0.31996  1.0000
  C   C226      1.0  0.21245  0.82008  0.33066  1.0000
  C   C227      1.0  0.20877  0.82644  0.35837  1.0000
  C   C228      1.0  0.22821  0.83176  0.37541  1.0000
  H   H375      1.0  0.27319  0.82404  0.32861  1.0000
  H   H376      1.0  0.23853  0.81412  0.29840  1.0000
  H   H377      1.0  0.19089  0.82741  0.36681  1.0000
  H   H378      1.0  0.22512  0.83676  0.39681  1.0000
  C   C229      1.0  0.36930  0.86871  0.45566  1.0000
  C   C230      1.0  0.36871  0.84369  0.45550  1.0000
  H   H379      1.0  0.41424  0.83597  0.02767  1.0000
  C   C231      1.0  0.37071  0.88056  0.48134  1.0000
  H   H380      1.0  0.36817  0.83428  0.43595  1.0000
  H   H381      1.0  0.37141  0.89989  0.48169  1.0000
  C   C232      1.0  0.33712  0.90867  0.25682  1.0000
  C   C233      1.0  0.33062  0.92799  0.23928  1.0000
  C   C234      1.0  0.33846  0.92889  0.21138  1.0000
  C   C235      1.0  0.35280  0.91037  0.20070  1.0000
  C   C236      1.0  0.35905  0.89096  0.21817  1.0000
  C   C237      1.0  0.35130  0.89010  0.24606  1.0000
  H   H382      1.0  0.31961  0.94243  0.24738  1.0000
  H   H383      1.0  0.33345  0.94392  0.19820  1.0000
  H   H384      1.0  0.37013  0.87654  0.21014  1.0000
  H   H385      1.0  0.35640  0.87511  0.25926  1.0000
  C   C238      1.0  0.32568  0.73529  0.30781  1.0000
  C   C239      1.0  0.32127  0.75806  0.29641  1.0000
  C   C240      1.0  0.33616  0.77718  0.30309  1.0000
  C   C241      1.0  0.35595  0.77344  0.32054  1.0000
  C   C242      1.0  0.36056  0.75059  0.33166  1.0000
  C   C243      1.0  0.34523  0.73160  0.32563  1.0000
  H   H386      1.0  0.30639  0.76094  0.28226  1.0000
  H   H387      1.0  0.33279  0.79467  0.29405  1.0000
  H   H388      1.0  0.37588  0.74766  0.34517  1.0000
  H   H389      1.0  0.24708  0.72295  0.39950  1.0000
  H   H390      1.0  0.29843  0.92077  0.44985  1.0000
  N   N15       1.0  0.36840  0.69845  0.23869  1.0000
  H   H391      1.0  0.32544  0.77290  0.50226  1.0000
  H   H392      1.0  0.21113  0.90096  0.06515  1.0000
  H   H393      1.0  0.32637  0.99460  0.01796  1.0000
  H   H394      1.0  0.30819  0.86820  0.43243  1.0000
  C   C244      1.0  0.39174  0.68877  0.28476  1.0000
  H   H395      1.0  0.38675  0.69652  0.30524  1.0000
  S   S86       1.0  0.11032  0.67676  0.32922  1.0000
  H   H396      1.0  0.40586  0.94787  0.01866  1.0000
  H   H397      1.0  0.44426  0.95942  0.25547  1.0000
  C   C245      1.0  0.39155  0.69578  0.22277  1.0000
  C   C246      1.0  0.20474  0.90950  0.04550  1.0000
  H   H398      1.0  0.38195  0.73501  0.27945  1.0000
  H   H399      1.0  0.16139  0.79551  0.44944  1.0000
  H   H400      1.0  0.02669  0.96410  0.15428  1.0000
  H   H401      1.0  0.21015  0.92842  0.04659  1.0000
  H   H402      1.0  0.40650  0.70530  0.23268  1.0000
  H   H403      1.0  0.29010  0.89936  0.05137  1.0000
  H   H404      1.0  0.10360  0.98277  0.23289  1.0000
  H   H405      1.0  0.32165  0.87768  0.48926  1.0000
  H   H406      1.0  0.01023  0.93452  0.02281  1.0000
  H   H407      1.0  0.31141  0.67862  0.21827  1.0000
  H   H408      1.0  0.16915  0.91228  0.06334  1.0000
  H   H409      1.0  0.28155  0.88516  0.42766  1.0000
  C   C247      1.0  0.39800  0.99807  0.19458  1.0000
  H   H410      1.0  0.13003  0.91591  0.03834  1.0000
  Fe  Fe45      1.0  0.10762  0.00092  0.10972  1.0000
  C   C248      1.0  0.32335  0.68869  0.23238  1.0000
  N   N16       1.0  0.12116  0.76145  0.28962  1.0000
  C   C249      1.0  0.13301  0.77688  0.31113  1.0000
  C   C250      1.0  0.11027  0.77771  0.26766  1.0000
  C   C251      1.0  0.13901  0.74474  0.27612  1.0000
  C   C252      1.0  0.10235  0.74664  0.30372  1.0000
  C   C253      1.0  0.14858  0.76366  0.33314  1.0000
  C   C254      1.0  0.08773  0.79205  0.27654  1.0000
  C   C255      1.0  0.16082  0.75683  0.26263  1.0000
  C   C256      1.0  0.08783  0.73000  0.28470  1.0000
  H   H411      1.0  0.14445  0.79052  0.30109  1.0000
  H   H412      1.0  0.11942  0.78755  0.32267  1.0000
  H   H413      1.0  0.14577  0.73105  0.29125  1.0000
  H   H414      1.0  0.13026  0.73423  0.25943  1.0000
  H   H415      1.0  0.11059  0.73468  0.31976  1.0000
  H   H416      1.0  0.08958  0.75791  0.31577  1.0000
  H   H417      1.0  0.16418  0.75426  0.32379  1.0000
  H   H418      1.0  0.15595  0.77705  0.34771  1.0000
  H   H419      1.0  0.13819  0.75087  0.34577  1.0000
  H   H420      1.0  0.08254  0.80470  0.25958  1.0000
  H   H421      1.0  0.07220  0.78027  0.28011  1.0000
  C   C257      1.0  0.44384  0.97495  0.24106  1.0000
  C   C258      1.0  0.29631  0.88175  0.44273  1.0000
  H   H422      1.0  0.09720  0.71249  0.28207  1.0000
  H   H423      1.0  0.08407  0.73777  0.26392  1.0000
  H   H424      1.0  0.06999  0.72694  0.29424  1.0000
  H   H425      1.0  0.17161  0.76695  0.27783  1.0000
  H   H426      1.0  0.08664  0.96749  0.25823  1.0000
  H   H427      1.0  0.30821  0.92310  0.01737  1.0000
  N   N17       1.0  0.41733  0.95617  0.20295  1.0000
  C   C259      1.0  0.41774  0.95140  0.17202  1.0000
  C   C260      1.0  0.39658  0.97313  0.20844  1.0000
  C   C261      1.0  0.41367  0.93259  0.21797  1.0000
  C   C262      1.0  0.43494  0.93125  0.16217  1.0000
  C   C263      1.0  0.24653  0.85779  0.45021  1.0000
  C   C264      1.0  0.40075  0.93326  0.24639  1.0000
  H   H428      1.0  0.39954  0.94682  0.16446  1.0000
  H   H429      1.0  0.42286  0.96764  0.16009  1.0000
  H   H430      1.0  0.39426  0.97657  0.23098  1.0000
  H   H431      1.0  0.37947  0.96488  0.20158  1.0000
  H   H432      1.0  0.40258  0.92044  0.20516  1.0000
  H   H433      1.0  0.43104  0.92286  0.22101  1.0000
  H   H434      1.0  0.43004  0.91347  0.17060  1.0000
  H   H435      1.0  0.43361  0.92991  0.13916  1.0000
  H   H436      1.0  0.31949  0.95806  0.03710  1.0000
  H   H437      1.0  0.08023  0.79378  0.50543  1.0000
  H   H438      1.0  0.40146  0.91509  0.25592  1.0000
  H   H439      1.0  0.38150  0.93792  0.24374  1.0000
  H   H440      1.0  0.40861  0.94575  0.26145  1.0000
  H   H441      1.0  0.23178  0.98806  0.02625  1.0000
  H   H442      1.0  0.21266  0.75218  0.39213  1.0000
  H   H443      1.0  0.29498  0.96812  0.05726  1.0000
  H   H444      1.0  0.21359  0.73345  0.33209  1.0000
  C   C265      1.0  0.28245  0.91777  0.04937  1.0000
  C   C266      1.0  0.20107  0.68064  0.33543  1.0000
  H   H445      1.0  0.27695  0.69948  0.44573  1.0000
  N   N18       1.0  0.24551  0.89976  0.30132  1.0000
  C   C267      1.0  0.26013  0.90313  0.27526  1.0000
  C   C268      1.0  0.23113  0.92233  0.30647  1.0000
  C   C269      1.0  0.22851  0.87923  0.29835  1.0000
  C   C270      1.0  0.26237  0.89425  0.32520  1.0000
  C   C271      1.0  0.27320  0.88058  0.26425  1.0000
  C   C272      1.0  0.24587  0.94497  0.31205  1.0000
  C   C273      1.0  0.21042  0.88107  0.27408  1.0000
  C   C274      1.0  0.25119  0.89487  0.35458  1.0000
  H   H446      1.0  0.24895  0.91064  0.25801  1.0000
  H   H447      1.0  0.27435  0.91658  0.27870  1.0000
  H   H448      1.0  0.21838  0.91984  0.32402  1.0000
  H   H449      1.0  0.21960  0.92681  0.28819  1.0000
  H   H450      1.0  0.23856  0.86208  0.29612  1.0000
  H   H451      1.0  0.21758  0.87698  0.31745  1.0000
  H   H452      1.0  0.27058  0.87609  0.32292  1.0000
  H   H453      1.0  0.27780  0.90667  0.32521  1.0000
  H   H454      1.0  0.28543  0.87250  0.28002  1.0000
  H   H455      1.0  0.26054  0.86699  0.25662  1.0000
  H   H456      1.0  0.28456  0.88577  0.24630  1.0000
  H   H457      1.0  0.25837  0.94281  0.32985  1.0000
  H   H458      1.0  0.25602  0.95053  0.29334  1.0000
  H   H459      1.0  0.23339  0.95997  0.31718  1.0000
  H   H460      1.0  0.19687  0.89550  0.27749  1.0000
  H   H461      1.0  0.20034  0.86409  0.27304  1.0000
  H   H462      1.0  0.21920  0.88354  0.25365  1.0000
  H   H463      1.0  0.24498  0.91306  0.36048  1.0000
  H   H464      1.0  0.26505  0.88939  0.37004  1.0000
  H   H465      1.0  0.23621  0.88225  0.35686  1.0000
  N   N19       1.0  0.24749  0.74602  0.34796  1.0000
  C   C275      1.0  0.25582  0.75347  0.31935  1.0000
  C   C276      1.0  0.25620  0.76449  0.36823  1.0000
  C   C277      1.0  0.22046  0.74645  0.34743  1.0000
  C   C278      1.0  0.25732  0.72125  0.35413  1.0000
  C   C279      1.0  0.24706  0.73821  0.29474  1.0000
  C   C280      1.0  0.28349  0.76869  0.36832  1.0000
  C   C281      1.0  0.20763  0.74031  0.37477  1.0000
  C   C282      1.0  0.25930  0.71363  0.38504  1.0000
  H   H466      1.0  0.25049  0.77234  0.31483  1.0000
  H   H467      1.0  0.27566  0.75287  0.31818  1.0000
  H   H468      1.0  0.25112  0.76036  0.38992  1.0000
  H   H469      1.0  0.24724  0.78201  0.36398  1.0000
  H   H470      1.0  0.21362  0.76439  0.34047  1.0000
  H   H471      1.0  0.27808  0.71530  0.39246  1.0000
  H   H472      1.0  0.24660  0.70757  0.34325  1.0000
  H   H473      1.0  0.27580  0.71937  0.34564  1.0000
  H   H474      1.0  0.25706  0.74345  0.27575  1.0000
  H   H475      1.0  0.25060  0.71884  0.29806  1.0000
  H   H476      1.0  0.22779  0.74151  0.29018  1.0000
  H   H477      1.0  0.28832  0.77943  0.38685  1.0000
  H   H478      1.0  0.29403  0.75172  0.36915  1.0000
  H   H479      1.0  0.28905  0.77931  0.34989  1.0000
  H   H480      1.0  0.21033  0.72119  0.38040  1.0000
  C   C283      1.0  0.27400  0.89210  0.48519  1.0000
  H   H481      1.0  0.23669  0.84097  0.44650  1.0000
  H   H482      1.0  0.45391  0.93501  0.16702  1.0000
  H   H483      1.0  0.31810  0.84890  0.47460  1.0000
  H   H484      1.0  0.09089  0.80293  0.29536  1.0000
  C   C284      1.0  0.44103  0.96690  0.21069  1.0000
  H   H485      1.0  0.18803  0.74278  0.37157  1.0000
  S   S87       1.0  0.35913  0.92575  0.02770  1.0000
  C   C285      1.0  0.08589  0.98270  0.24321  1.0000
  S   S88       1.0  0.17653  0.69891  0.32659  1.0000
  H   H486      1.0  0.21853  0.68425  0.29575  1.0000
  C   C286      1.0  0.40041  0.66977  0.21809  1.0000
  C   C287      1.0  0.08975  0.78861  0.44898  1.0000
  C   C288      1.0  0.21874  0.67530  0.31576  1.0000
  S   S89       1.0  0.09054  0.95494  0.02335  1.0000
  C   C289      1.0  0.04131  0.96585  0.16983  1.0000
  H   H487      1.0  0.09318  0.77543  0.46603  1.0000
  H   H488      1.0  0.26277  0.91633  0.05193  1.0000
  H   H489      1.0  0.34495  0.72692  0.25337  1.0000
  H   H490      1.0  0.11495  0.84149  0.43008  1.0000
  C   C290      1.0  0.07737  0.84377  0.42416  1.0000
  H   H491      1.0  0.09708  0.84271  0.48277  1.0000
  C   C291      1.0  0.12648  0.80825  0.46341  1.0000
  C   C292      1.0  0.16533  0.94496  0.02418  1.0000
  H   H492      1.0  0.17492  0.88657  0.04290  1.0000
  Fe  Fe46      1.0  0.31542  0.67642  0.31969  1.0000
  H   H493      1.0  0.09499  0.89881  0.48476  1.0000
  H   H494      1.0  0.13750  0.78429  0.42873  1.0000
  C   C293      1.0  0.17729  0.90626  0.04333  1.0000
  H   H495      1.0  0.28711  0.90528  0.49317  1.0000
  H   H496      1.0  0.15540  0.76884  0.24521  1.0000
  H   H497      1.0  0.06084  0.83319  0.42354  1.0000
  C   C294      1.0  0.28234  0.68028  0.44636  1.0000
  N   N20       1.0  0.28700  0.87221  0.47015  1.0000
  C   C295      1.0  0.27116  0.85137  0.46330  1.0000
  H   H498      1.0  0.28057  0.83889  0.44877  1.0000
  H   H499      1.0  0.35896  0.73305  0.22096  1.0000
  Fe  Fe47      1.0  0.09614  0.68755  0.37117  1.0000
  H   H500      1.0  0.15546  0.94928  0.04368  1.0000
  C   C296      1.0  0.13535  0.88321  0.01553  1.0000
  C   C297      1.0  0.08851  0.82513  0.47907  1.0000
  H   H501      1.0  0.14706  0.81502  0.42517  1.0000
  C   C298      1.0  0.30205  0.96789  0.03568  1.0000
  S   S90       1.0  0.13178  0.69641  0.38962  1.0000
  H   H502      1.0  0.28993  0.92836  0.06658  1.0000
  H   H503      1.0  0.12795  0.79430  0.47999  1.0000
  C   C299      1.0  0.03902  0.99036  0.18426  1.0000
  H   H504      1.0  0.44478  0.98263  0.19715  1.0000
  H   H505      1.0  0.10329  0.81760  0.41038  1.0000
  H   H506      1.0  0.39774  0.74111  0.24710  1.0000
  H   H507      1.0  0.37293  0.75905  0.25767  1.0000
  H   H508      1.0  0.08303  0.99914  0.25559  1.0000
  N   N21       1.0  0.06042  0.99790  0.20123  1.0000
  H   H509      1.0  0.05989  0.79207  0.41926  1.0000
  S   S91       1.0  0.12858  0.99029  0.07152  1.0000
  H   H510      1.0  0.05186  0.80080  0.45429  1.0000
  S   S92       1.0  0.19013  0.95443  0.09299  1.0000
  H   H511      1.0  0.31713  0.90960  0.42281  1.0000
  H   H512      1.0  0.34879  0.69544  0.19975  1.0000
  H   H513      1.0  0.18381  0.95127  0.02772  1.0000
  H   H514      1.0  0.07893  0.85269  0.40355  1.0000
  C   C300      1.0  0.36978  0.83069  0.48067  1.0000
  H   H515      1.0  0.05573  0.77033  0.44652  1.0000
  H   H516      1.0  0.12350  0.79118  0.26060  1.0000
  H   H517      1.0  0.07627  0.90548  0.03541  1.0000
  C   C301      1.0  0.38004  0.74036  0.25735  1.0000
  H   H518      1.0  0.25545  0.95546  0.04566  1.0000
  C   C302      1.0  0.31018  0.90548  0.44390  1.0000
  C   C303      1.0  0.13919  0.91037  0.01878  1.0000
  H   H519      1.0  0.09121  0.98400  0.17869  1.0000
  H   H520      1.0  0.31616  0.70728  0.23300  1.0000
  N   N22       1.0  0.28517  0.95480  0.01668  1.0000
  C   C304      1.0  0.06285  0.78835  0.44175  1.0000
  N   N23       1.0  0.10063  0.81258  0.45508  1.0000
  H   H521      1.0  0.38983  0.70449  0.20192  1.0000
  H   H522      1.0  0.09874  0.78014  0.43085  1.0000
  C   C305      1.0  0.30852  0.86324  0.48642  1.0000
  H   H523      1.0  0.07095  0.96130  0.21153  1.0000
  H   H524      1.0  0.34871  0.67769  0.47006  1.0000
  H   H525      1.0  0.39868  0.99718  0.17159  1.0000
  H   H526      1.0  0.32600  0.90459  0.45779  1.0000
  C   C306      1.0  0.34916  0.68731  0.22099  1.0000
  H   H527      1.0  0.13419  0.82475  0.47254  1.0000
  H   H528      1.0  0.36985  0.81134  0.48018  1.0000
  C   C307      1.0  0.10014  0.82840  0.42943  1.0000
  H   H529      1.0  0.24803  0.86678  0.42972  1.0000
  H   H530      1.0  0.04925  0.97407  0.23430  1.0000
  H   H531      1.0  0.17281  0.74274  0.25387  1.0000
  C   C308      1.0  0.06567  0.97823  0.22214  1.0000
  Fe  Fe48      1.0  0.14596  0.68224  0.34941  1.0000
  C   C309      1.0  0.36896  0.68597  0.26660  1.0000
  H   H532      1.0  0.02258  0.98990  0.19739  1.0000
  C   C310      1.0  0.30829  0.99395  0.02751  1.0000
  H   H533      1.0  0.36076  0.75051  0.50459  1.0000
  H   H534      1.0  0.26016  0.99788  0.03767  1.0000
  H   H535      1.0  0.32190  0.68019  0.25317  1.0000
  S   S93       1.0  0.29413  0.99992  0.10418  1.0000
  C   C311      1.0  0.25939  0.96048  0.02379  1.0000
  H   H536      1.0  0.42975  0.98798  0.24738  1.0000
  C   C312      1.0  0.28906  0.92814  0.02063  1.0000
  H   H537      1.0  0.40577  0.70031  0.27617  1.0000
  C   C313      1.0  0.07420  0.90884  0.01334  1.0000
  C   C314      1.0  0.25127  0.98685  0.02163  1.0000
  C   C315      1.0  0.42314  0.84712  0.01164  1.0000
  H   H538      1.0  0.08368  0.67338  0.50419  1.0000
  C   C316      1.0  0.10260  0.66891  0.50336  1.0000
  H   H539      1.0  0.41898  0.67004  0.20986  1.0000
  H   H540      1.0  0.39996  0.67090  0.28919  1.0000
  H   H541      1.0  0.21438  0.90055  0.02821  1.0000
  H   H542      1.0  0.13758  0.87378  0.03578  1.0000
  H   H543      1.0  0.46131  0.98399  0.24340  1.0000
  H   H544      1.0  0.29329  0.67760  0.46544  1.0000
  H   H545      1.0  0.29357  0.67705  0.42771  1.0000
  C   C317      1.0  0.20148  0.66916  0.36132  1.0000
  N   N24       1.0  0.16490  0.91835  0.01888  1.0000
  H   H546      1.0  0.24713  0.94978  0.01061  1.0000
  H   H547      1.0  0.11666  0.88007  0.00867  1.0000
  H   H548      1.0  0.24951  0.66877  0.42690  1.0000
  C   C318      1.0  0.37115  0.86757  0.50659  1.0000
  C   C319      1.0  0.08150  0.00132  0.18197  1.0000
  C   C320      1.0  0.37094  0.84253  0.50632  1.0000
  H   H549      1.0  0.15490  0.98016  0.00896  1.0000
  S   S94       1.0  0.29095  0.70245  0.58739  1.0000
  H   H550      1.0  0.02923  0.80123  0.76712  1.0000
  S   S95       1.0  0.47131  0.70201  0.83624  1.0000
  Fe  Fe49      1.0  0.33751  0.82094  0.63235  1.0000
  S   S96       1.0  0.37571  0.82603  0.62005  1.0000
  S   S97       1.0  0.32884  0.78861  0.65800  1.0000
  Fe  Fe50      1.0  0.32142  0.86821  0.60719  1.0000
  S   S98       1.0  0.35868  0.87774  0.59394  1.0000
  S   S99       1.0  0.29038  0.89085  0.59198  1.0000
  Fe  Fe51      1.0  0.36091  0.83975  0.57923  1.0000
  S   S100      1.0  0.37277  0.82532  0.53736  1.0000
  Fe  Fe52      1.0  0.36988  0.86328  0.63622  1.0000
  S   S101      1.0  0.39857  0.87995  0.66340  1.0000
  S   S102      1.0  0.32307  0.83101  0.59036  1.0000
  S   S103      1.0  0.33218  0.85745  0.65063  1.0000
  Fe  Fe53      1.0  0.45310  0.84704  0.86552  1.0000
  S   S104      1.0  0.41845  0.86790  0.86944  1.0000
  S   S105      1.0  0.44756  0.80814  0.87993  1.0000
  Fe  Fe54      1.0  0.47938  0.89262  0.84524  1.0000
  S   S106      1.0  0.44573  0.91525  0.84638  1.0000
  C   C321      1.0  0.37314  0.75389  0.60203  1.0000
  Fe  Fe55      1.0  0.43952  0.89767  0.88814  1.0000
  S   S107      1.0  0.43391  0.92073  0.92706  1.0000
  Fe  Fe56      1.0  0.42766  0.88325  0.82736  1.0000
  S   S108      1.0  0.39677  0.88081  0.79616  1.0000
  S   S109      1.0  0.47388  0.87588  0.88749  1.0000
  S   S110      1.0  0.46167  0.86165  0.82305  1.0000
  S   S111      1.0  0.16947  0.70796  0.66854  1.0000
  S   S112      1.0  0.03278  0.70053  0.89266  1.0000
  H   H551      1.0  0.06433  0.73358  0.84180  1.0000
  S   S113      1.0  0.04963  0.83960  0.87168  1.0000
  H   H552      1.0  0.23896  0.72182  0.64090  1.0000
  S   S114      1.0  0.04563  0.89765  0.86677  1.0000
  Fe  Fe57      1.0  0.05102  0.86687  0.83705  1.0000
  S   S115      1.0  0.08100  0.86650  0.80464  1.0000
  Fe  Fe58      1.0  0.04030  0.87028  0.90033  1.0000
  S   S116      1.0  0.05294  0.87090  0.94563  1.0000
  H   H553      1.0  0.32922  0.96024  0.98906  1.0000
  Fe  Fe59      1.0  0.15927  0.87112  0.63086  1.0000
  S   S117      1.0  0.12385  0.89078  0.62600  1.0000
  S   S118      1.0  0.19147  0.88334  0.65521  1.0000
  Fe  Fe60      1.0  0.14086  0.82650  0.60388  1.0000
  S   S119      1.0  0.10410  0.84191  0.59808  1.0000
  S   S120      1.0  0.14933  0.79141  0.58382  1.0000
  Fe  Fe61      1.0  0.12340  0.87435  0.58279  1.0000
  S   S121      1.0  0.10999  0.88978  0.54137  1.0000
  Fe  Fe62      1.0  0.10788  0.85635  0.64166  1.0000
  S   S122      1.0  0.07715  0.85112  0.67272  1.0000
  S   S123      1.0  0.16011  0.85799  0.58686  1.0000
  S   S124      1.0  0.14319  0.83771  0.64845  1.0000
  H   H554      1.0  0.08842  0.73072  0.66550  1.0000
  H   H555      1.0  0.21301  0.75676  0.62279  1.0000
  H   H556      1.0  0.46789  0.86989  0.99389  1.0000
  H   H557      1.0  0.03162  0.94441  0.90083  1.0000
  C   C322      1.0  0.07975  0.86079  0.76823  1.0000
  C   C323      1.0  0.10013  0.86519  0.75193  1.0000
  C   C324      1.0  0.09973  0.86209  0.72280  1.0000
  C   C325      1.0  0.07888  0.85447  0.70954  1.0000
  C   C326      1.0  0.05857  0.84971  0.72589  1.0000
  C   C327      1.0  0.05897  0.85279  0.75505  1.0000
  H   H558      1.0  0.11633  0.87134  0.76184  1.0000
  H   H559      1.0  0.11551  0.86583  0.71058  1.0000
  H   H560      1.0  0.04232  0.84385  0.71587  1.0000
  H   H561      1.0  0.04308  0.84946  0.76720  1.0000
  H   H562      1.0  0.35742  0.71451  0.57127  1.0000
  H   H563      1.0  0.48387  0.79377  0.94508  1.0000
  C   C328      1.0  0.06339  0.89454  0.96682  1.0000
  C   C329      1.0  0.06871  0.91709  0.95591  1.0000
  C   C330      1.0  0.07671  0.93537  0.97364  1.0000
  S   S125      1.0  0.01214  0.86491  0.82610  1.0000
  H   H564      1.0  0.06685  0.92036  0.93381  1.0000
  C   C331      1.0  0.15505  0.96145  0.00122  1.0000
  H   H565      1.0  0.37393  0.78110  0.56991  1.0000
  H   H566      1.0  0.39111  0.96273  0.66576  1.0000
  C   C332      1.0  0.25056  0.71981  0.65948  1.0000
  C   C333      1.0  0.02349  0.77256  0.88239  1.0000
  C   C334      1.0  0.03232  0.74969  0.89014  1.0000
  H   H567      1.0  0.03268  0.78840  0.88917  1.0000
  H   H568      1.0  0.04831  0.74820  0.90286  1.0000
  C   C335      1.0  0.16657  0.73135  0.64469  1.0000
  C   C336      1.0  0.16739  0.75504  0.65371  1.0000
  C   C337      1.0  0.16234  0.77372  0.63495  1.0000
  C   C338      1.0  0.15737  0.76867  0.60712  1.0000
  C   C339      1.0  0.15771  0.74503  0.59788  1.0000
  C   C340      1.0  0.16195  0.72635  0.61676  1.0000
  H   H569      1.0  0.17082  0.75888  0.67539  1.0000
  H   H570      1.0  0.16221  0.79193  0.64210  1.0000
  H   H571      1.0  0.15378  0.74107  0.57633  1.0000
  H   H572      1.0  0.16136  0.70808  0.60968  1.0000
  H   H573      1.0  0.09828  0.71986  0.58788  1.0000
  H   H574      1.0  0.03841  0.75175  0.78889  1.0000
  C   C341      1.0  0.39101  0.90956  0.95364  1.0000
  C   C342      1.0  0.41256  0.92200  0.95450  1.0000
  C   C343      1.0  0.41768  0.93583  0.97810  1.0000
  H   H575      1.0  0.23759  0.68470  0.71129  1.0000
  H   H576      1.0  0.38668  0.89913  0.93546  1.0000
  H   H577      1.0  0.01755  0.91150  0.97906  1.0000
  C   C344      1.0  0.26311  0.88811  0.60979  1.0000
  C   C345      1.0  0.26252  0.88644  0.63883  1.0000
  C   C346      1.0  0.24038  0.88549  0.65264  1.0000
  C   C347      1.0  0.21886  0.88543  0.63744  1.0000
  C   C348      1.0  0.21955  0.88678  0.60843  1.0000
  C   C349      1.0  0.24161  0.88848  0.59468  1.0000
  H   H578      1.0  0.27903  0.88630  0.65062  1.0000
  H   H579      1.0  0.23989  0.88450  0.67513  1.0000
  H   H580      1.0  0.20306  0.88721  0.59660  1.0000
  H   H581      1.0  0.24193  0.89010  0.57228  1.0000
  C   C350      1.0  0.39840  0.87851  0.70033  1.0000
  C   C351      1.0  0.41890  0.88525  0.71525  1.0000
  C   C352      1.0  0.41898  0.88551  0.74461  1.0000
  C   C353      1.0  0.39828  0.87960  0.75931  1.0000
  C   C354      1.0  0.37781  0.87280  0.74438  1.0000
  C   C355      1.0  0.37796  0.87187  0.71510  1.0000
  H   H582      1.0  0.43481  0.89042  0.70404  1.0000
  H   H583      1.0  0.43485  0.89083  0.75582  1.0000
  H   H584      1.0  0.36173  0.86814  0.75557  1.0000
  H   H585      1.0  0.36212  0.86639  0.70401  1.0000
  C   C356      1.0  0.17804  0.91190  0.99250  1.0000
  Fe  Fe63      1.0  0.14795  0.67807  0.65122  1.0000
  S   S126      1.0  0.11026  0.68636  0.63847  1.0000
  H   H586      1.0  0.38635  0.82670  0.76904  1.0000
  C   C357      1.0  0.46344  0.73147  0.84774  1.0000
  C   C358      1.0  0.44558  0.73583  0.86756  1.0000
  C   C359      1.0  0.44085  0.75940  0.87684  1.0000
  C   C360      1.0  0.45357  0.77901  0.86619  1.0000
  C   C361      1.0  0.47109  0.77473  0.84600  1.0000
  C   C362      1.0  0.47603  0.75113  0.83698  1.0000
  H   H587      1.0  0.43579  0.72097  0.87616  1.0000
  H   H588      1.0  0.00488  0.97546  0.96381  1.0000
  H   H589      1.0  0.48139  0.78946  0.83797  1.0000
  H   H590      1.0  0.05273  0.90409  0.71005  1.0000
  C   C363      1.0  0.30100  0.72624  0.60750  1.0000
  C   C364      1.0  0.29620  0.74973  0.59870  1.0000
  C   C365      1.0  0.30501  0.76900  0.61395  1.0000
  C   C366      1.0  0.31794  0.76479  0.63849  1.0000
  C   C367      1.0  0.32221  0.74130  0.64763  1.0000
  C   C368      1.0  0.31416  0.72201  0.63184  1.0000
  H   H591      1.0  0.28614  0.75298  0.57975  1.0000
  H   H592      1.0  0.30149  0.78709  0.60696  1.0000
  H   H593      1.0  0.33232  0.73800  0.66655  1.0000
  H   H594      1.0  0.31817  0.70392  0.63857  1.0000
  H   H595      1.0  0.05523  0.81654  0.80551  1.0000
  C   C369      1.0  0.36410  0.76429  0.57406  1.0000
  H   H596      1.0  0.42733  0.76240  0.89257  1.0000
  H   H597      1.0  0.35833  0.90116  0.97536  1.0000
  H   H598      1.0  0.42751  0.75070  0.79498  1.0000
  H   H599      1.0  0.26630  0.73140  0.65623  1.0000
  H   H600      1.0  0.43427  0.94557  0.97897  1.0000
  H   H601      1.0  0.09449  0.76840  0.68838  1.0000
  H   H602      1.0  0.09131  0.76314  0.83218  1.0000
  C   C370      1.0  0.09652  0.80082  0.83066  1.0000
  H   H603      1.0  0.06143  0.71685  0.65368  1.0000
  H   H604      1.0  0.27635  0.95048  0.97314  1.0000
  H   H605      1.0  0.11928  0.75870  0.66658  1.0000
  H   H606      1.0  0.07712  0.74152  0.57583  1.0000
  H   H607      1.0  0.07826  0.82209  0.52248  1.0000
  N   N25       1.0  0.36563  0.74759  0.54959  1.0000
  H   H608      1.0  0.19449  0.92283  0.99050  1.0000
  N   N26       1.0  0.41423  0.79933  0.77294  1.0000
  H   H609      1.0  0.45957  0.80652  0.79721  1.0000
  C   C371      1.0  0.35803  0.76122  0.52383  1.0000
  H   H610      1.0  0.42837  0.78957  0.81389  1.0000
  H   H611      1.0  0.18431  0.89289  0.99369  1.0000
  C   C372      1.0  0.00547  0.92747  0.92735  1.0000
  H   H612      1.0  0.42816  0.74797  0.54084  1.0000
  C   C373      1.0  0.43281  0.81750  0.76522  1.0000
  H   H613      1.0  0.21558  0.69860  0.69017  1.0000
  H   H614      1.0  0.14733  0.87491  0.99990  1.0000
  H   H615      1.0  0.39610  0.72554  0.56252  1.0000
  C   C374      1.0  0.39038  0.80822  0.76172  1.0000
  H   H616      1.0  0.42304  0.83379  0.92300  1.0000
  C   C375      1.0  0.39512  0.83792  0.95329  1.0000
  C   C376      1.0  0.21984  0.82207  0.57717  1.0000
  H   H617      1.0  0.36980  0.77679  0.52041  1.0000
  H   H618      1.0  0.08089  0.95272  0.96498  1.0000
  N   N27       1.0  0.04670  0.93673  0.77211  1.0000
  C   C377      1.0  0.05391  0.92940  0.80125  1.0000
  C   C378      1.0  0.01996  0.94092  0.77137  1.0000
  C   C379      1.0  0.05885  0.95943  0.76333  1.0000
  C   C380      1.0  0.05412  0.91694  0.75258  1.0000
  C   C381      1.0  0.08109  0.92913  0.80748  1.0000
  C   C382      1.0  0.00451  0.91873  0.77679  1.0000
  C   C383      1.0  0.05457  0.98124  0.78239  1.0000
  C   C384      1.0  0.04588  0.91972  0.72204  1.0000
  H   H619      1.0  0.04499  0.94093  0.81710  1.0000
  H   H620      1.0  0.04765  0.91100  0.80595  1.0000
  H   H621      1.0  0.01422  0.94897  0.75114  1.0000
  H   H622      1.0  0.01447  0.95414  0.78749  1.0000
  H   H623      1.0  0.07854  0.95647  0.76121  1.0000
  H   H624      1.0  0.05267  0.96522  0.74230  1.0000
  H   H625      1.0  0.07395  0.91481  0.75198  1.0000
  H   H626      1.0  0.04742  0.89950  0.76021  1.0000
  H   H627      1.0  0.09131  0.91755  0.79296  1.0000
  H   H628      1.0  0.08872  0.94731  0.80733  1.0000
  H   H629      1.0  0.08415  0.92162  0.82867  1.0000
  H   H630      1.0  0.00797  0.91107  0.79771  1.0000
  H   H631      1.0  0.25624  0.86561  0.51362  1.0000
  H   H632      1.0  0.00701  0.90469  0.76082  1.0000
  C   C385      1.0  0.22337  0.67537  0.64272  1.0000
  H   H633      1.0  0.41192  0.76818  0.56253  1.0000
  S   S127      1.0  0.10108  0.67150  0.56020  1.0000
  H   H634      1.0  0.02611  0.91978  0.71995  1.0000
  H   H635      1.0  0.35441  0.98825  0.69764  1.0000
  N   N28       1.0  0.23999  0.67545  0.66755  1.0000
  N   N29       1.0  0.07966  0.76831  0.62915  1.0000
  C   C386      1.0  0.06734  0.78328  0.60689  1.0000
  C   C387      1.0  0.09638  0.75120  0.61432  1.0000
  C   C388      1.0  0.09427  0.78498  0.64678  1.0000
  C   C389      1.0  0.06085  0.75583  0.64620  1.0000
  C   C390      1.0  0.05034  0.80348  0.61704  1.0000
  C   C391      1.0  0.08442  0.73293  0.59495  1.0000
  C   C392      1.0  0.10735  0.77389  0.67208  1.0000
  C   C393      1.0  0.06891  0.73331  0.66299  1.0000
  H   H636      1.0  0.08080  0.79174  0.59295  1.0000
  H   H637      1.0  0.05619  0.77191  0.59323  1.0000
  H   H638      1.0  0.10809  0.74094  0.62881  1.0000
  H   H639      1.0  0.10908  0.76137  0.60116  1.0000
  H   H640      1.0  0.10793  0.79410  0.63374  1.0000
  H   H641      1.0  0.08288  0.79943  0.65577  1.0000
  H   H642      1.0  0.05255  0.76860  0.66119  1.0000
  H   H643      1.0  0.04597  0.74996  0.63245  1.0000
  H   H644      1.0  0.04018  0.81082  0.59893  1.0000
  C   C394      1.0  0.06618  0.89056  0.99560  1.0000
  H   H645      1.0  0.06030  0.81874  0.62578  1.0000
  H   H646      1.0  0.07026  0.72261  0.60546  1.0000
  C   C395      1.0  0.22565  0.68149  0.69317  1.0000
  H   H647      1.0  0.32282  0.96454  0.61612  1.0000
  H   H648      1.0  0.06099  0.77749  0.76193  1.0000
  H   H649      1.0  0.08182  0.79748  0.77500  1.0000
  H   H650      1.0  0.37230  0.87691  0.52619  1.0000
  C   C396      1.0  0.16383  0.91408  0.96481  1.0000
  C   C397      1.0  0.46452  0.87648  0.97245  1.0000
  H   H651      1.0  0.06206  0.87319  0.00427  1.0000
  N   N30       1.0  0.34532  0.93720  0.65886  1.0000
  C   C398      1.0  0.32600  0.92983  0.63865  1.0000
  C   C399      1.0  0.34645  0.91842  0.68151  1.0000
  C   C400      1.0  0.36875  0.93707  0.64326  1.0000
  C   C401      1.0  0.33924  0.96187  0.66968  1.0000
  C   C402      1.0  0.32347  0.94508  0.61188  1.0000
  C   C403      1.0  0.32298  0.91447  0.69765  1.0000
  C   C404      1.0  0.39133  0.94357  0.65990  1.0000
  H   H652      1.0  0.05945  0.97762  0.80438  1.0000
  H   H653      1.0  0.32882  0.91092  0.63201  1.0000
  H   H654      1.0  0.30803  0.93036  0.64865  1.0000
  H   H655      1.0  0.36052  0.92195  0.69714  1.0000
  H   H656      1.0  0.35186  0.90089  0.67255  1.0000
  H   H657      1.0  0.37215  0.91914  0.63385  1.0000
  H   H658      1.0  0.36819  0.94999  0.62561  1.0000
  H   H659      1.0  0.34439  0.97578  0.65421  1.0000
  H   H660      1.0  0.31946  0.96386  0.67225  1.0000
  H   H661      1.0  0.33798  0.94082  0.59687  1.0000
  H   H662      1.0  0.30639  0.94059  0.60132  1.0000
  C   C405      1.0  0.33226  0.77176  0.52396  1.0000
  H   H663      1.0  0.32696  0.90347  0.71650  1.0000
  H   H664      1.0  0.31454  0.93146  0.70457  1.0000
  H   H665      1.0  0.30998  0.90426  0.68505  1.0000
  H   H666      1.0  0.17609  0.92023  0.94816  1.0000
  H   H667      1.0  0.39434  0.93199  0.67838  1.0000
  C   C406      1.0  0.04550  0.79959  0.80922  1.0000
  C   C407      1.0  0.05965  0.73255  0.81935  1.0000
  C   C408      1.0  0.41056  0.75722  0.54345  1.0000
  H   H668      1.0  0.27882  0.91792  0.00482  1.0000
  H   H669      1.0  0.16646  0.96115  0.98238  1.0000
  H   H670      1.0  0.28626  0.97924  0.98112  1.0000
  H   H671      1.0  0.26352  0.82240  0.60731  1.0000
  H   H672      1.0  0.47967  0.83319  0.96252  1.0000
  H   H673      1.0  0.03936  0.66975  0.73818  1.0000
  H   H674      1.0  0.20403  0.83005  0.56631  1.0000
  H   H675      1.0  0.36936  0.81537  0.72430  1.0000
  H   H676      1.0  0.38216  0.83121  0.93769  1.0000
  C   C409      1.0  0.34962  0.72654  0.55494  1.0000
  C   C410      1.0  0.22278  0.76346  0.60439  1.0000
  H   H677      1.0  0.42663  0.87427  0.96660  1.0000
  H   H678      1.0  0.39206  0.72746  0.52611  1.0000
  H   H679      1.0  0.31728  0.96151  0.95452  1.0000
  H   H680      1.0  0.40814  0.76914  0.52511  1.0000
  H   H681      1.0  0.49001  0.74800  0.82181  1.0000
  H   H682      1.0  0.40723  0.94076  0.64637  1.0000
  H   H683      1.0  0.10502  0.75567  0.79132  1.0000
  C   C411      1.0  0.37493  0.91085  0.97624  1.0000
  H   H684      1.0  0.03702  0.79712  0.63233  1.0000
  H   H685      1.0  0.41781  0.83365  0.81703  1.0000
  H   H686      1.0  0.40307  0.76511  0.75647  1.0000
  C   C412      1.0  0.42037  0.82901  0.94531  1.0000
  C   C413      1.0  0.46368  0.82692  0.95097  1.0000
  H   H687      1.0  0.01299  0.81673  0.79349  1.0000
  Fe  Fe64      1.0  0.00613  0.89400  0.85798  1.0000
  H   H688      1.0  0.42781  0.77776  0.73878  1.0000
  H   H689      1.0  0.29939  0.86800  0.53068  1.0000
  C   C414      1.0  0.35023  0.96887  0.69808  1.0000
  H   H690      1.0  0.48083  0.87381  0.95960  1.0000
  H   H691      1.0  0.11888  0.78773  0.68152  1.0000
  H   H692      1.0  0.27680  0.79818  0.65177  1.0000
  H   H693      1.0  0.10889  0.79924  0.84875  1.0000
  H   H694      1.0  0.03334  0.95451  0.93578  1.0000
  C   C415      1.0  0.41168  0.79649  0.80405  1.0000
  H   H695      1.0  0.36702  0.95941  0.70387  1.0000
  H   H696      1.0  0.19644  0.67011  0.71978  1.0000
  C   C416      1.0  0.39083  0.73820  0.54551  1.0000
  H   H697      1.0  0.43432  0.81905  0.74224  1.0000
  H   H698      1.0  0.25379  0.99456  0.00059  1.0000
  H   H699      1.0  0.37558  0.79689  0.76965  1.0000
  H   H700      1.0  0.27115  0.68888  0.64611  1.0000
  C   C417      1.0  0.34432  0.71058  0.52967  1.0000
  C   C418      1.0  0.02057  0.72876  0.88191  1.0000
  H   H701      1.0  0.34526  0.77029  0.57752  1.0000
  H   H702      1.0  0.15598  0.86745  0.52639  1.0000
  H   H703      1.0  0.40006  0.82239  0.72009  1.0000
  C   C419      1.0  0.02377  0.80029  0.78923  1.0000
  H   H704      1.0  0.44305  0.86933  0.93622  1.0000
  H   H705      1.0  0.24080  0.72681  0.67784  1.0000
  H   H706      1.0  0.05319  0.93589  0.71196  1.0000
  C   C420      1.0  0.00755  0.92891  0.97825  1.0000
  H   H707      1.0  0.06134  0.73422  0.68432  1.0000
  C   C421      1.0  0.00263  0.77486  0.86635  1.0000
  H   H708      1.0  0.19321  0.82402  0.66546  1.0000
  C   C422      1.0  0.07430  0.77941  0.77899  1.0000
  H   H709      1.0  0.37074  0.76767  0.61842  1.0000
  H   H710      1.0  0.28725  0.82806  0.64735  1.0000
  N   N31       1.0  0.44095  0.83796  0.96259  1.0000
  H   H711      1.0  0.20984  0.77033  0.58862  1.0000
  C   C423      1.0  0.25935  0.69372  0.66391  1.0000
  C   C424      1.0  0.22237  0.79935  0.65328  1.0000
  H   H712      1.0  0.24223  0.69276  0.60796  1.0000
  H   H713      1.0  0.26353  0.82253  0.67120  1.0000
  C   C425      1.0  0.21293  0.81641  0.60752  1.0000
  H   H714      1.0  0.44098  0.74227  0.76289  1.0000
  H   H715      1.0  0.45364  0.76594  0.78245  1.0000
  H   H716      1.0  0.45313  0.79079  0.93700  1.0000
  H   H717      1.0  0.46291  0.79194  0.97302  1.0000
  H   H718      1.0  0.20679  0.83368  0.61680  1.0000
  H   H719      1.0  0.21492  0.81753  0.69255  1.0000
  H   H720      1.0  0.07572  0.72772  0.80715  1.0000
  C   C426      1.0  0.04711  0.75581  0.80916  1.0000
  C   C427      1.0  0.27104  0.81719  0.65077  1.0000
  H   H721      1.0  0.22199  0.83773  0.66553  1.0000
  H   H722      1.0  0.39797  0.78278  0.80887  1.0000
  H   H723      1.0  0.23542  0.78916  0.66651  1.0000
  H   H724      1.0  0.24647  0.84081  0.62926  1.0000
  Fe  Fe65      1.0  0.01036  0.83874  0.86215  1.0000
  H   H725      1.0  0.40468  0.81505  0.84282  1.0000
  C   C428      1.0  0.21253  0.82092  0.66992  1.0000
  C   C429      1.0  0.23544  0.67492  0.61383  1.0000
  C   C430      1.0  0.07957  0.77926  0.83085  1.0000
  H   H726      1.0  0.33215  0.73238  0.56363  1.0000
  H   H727      1.0  0.20720  0.78692  0.65142  1.0000
  H   H728      1.0  0.39247  0.74914  0.60152  1.0000
  H   H729      1.0  0.25453  0.77286  0.62664  1.0000
  H   H730      1.0  0.42741  0.83594  0.77155  1.0000
  C   C431      1.0  0.41984  0.77532  0.75983  1.0000
  H   H731      1.0  0.12856  0.91937  0.00224  1.0000
  N   N32       1.0  0.23246  0.80502  0.62501  1.0000
  C   C432      1.0  0.24175  0.78210  0.61223  1.0000
  C   C433      1.0  0.25304  0.82212  0.62700  1.0000
  H   H732      1.0  0.23200  0.74771  0.59500  1.0000
  H   H733      1.0  0.46638  0.83269  0.92895  1.0000
  H   H734      1.0  0.10677  0.76788  0.75770  1.0000
  H   H735      1.0  0.31711  0.93386  0.97319  1.0000
  H   H736      1.0  0.25233  0.78577  0.59312  1.0000
  H   H737      1.0  0.22194  0.67008  0.59788  1.0000
  H   H738      1.0  0.40872  0.85747  0.00108  1.0000
  H   H739      1.0  0.46803  0.79962  0.76162  1.0000
  H   H740      1.0  0.19666  0.80522  0.60726  1.0000
  H   H741      1.0  0.36273  0.73813  0.60866  1.0000
  N   N33       1.0  0.06210  0.77808  0.80689  1.0000
  H   H742      1.0  0.33692  0.96676  0.71503  1.0000
  C   C434      1.0  0.45860  0.81259  0.77533  1.0000
  H   H743      1.0  0.43115  0.81220  0.99423  1.0000
  C   C435      1.0  0.40161  0.93716  0.00067  1.0000
  H   H744      1.0  0.39337  0.85765  0.95293  1.0000
  H   H745      1.0  0.06969  0.77946  0.85101  1.0000
  C   C436      1.0  0.43651  0.75791  0.77619  1.0000
  C   C437      1.0  0.40471  0.81927  0.82021  1.0000
  C   C438      1.0  0.28947  0.96015  0.98631  1.0000
  H   H746      1.0  0.06592  0.99618  0.77512  1.0000
  H   H747      1.0  0.33199  0.78997  0.53316  1.0000
  C   C439      1.0  0.02065  0.94921  0.91929  1.0000
  H   H748      1.0  0.38643  0.82593  0.81502  1.0000
  H   H749      1.0  0.01160  0.78505  0.79267  1.0000
  H   H750      1.0  0.39045  0.79151  0.71979  1.0000
  C   C440      1.0  0.38785  0.80924  0.72966  1.0000
  H   H751      1.0  0.14850  0.92678  0.96486  1.0000
  H   H752      1.0  0.46859  0.82962  0.77495  1.0000
  H   H753      1.0  0.03214  0.75870  0.82404  1.0000
  H   H754      1.0  0.13627  0.95740  0.99585  1.0000
  H   H755      1.0  0.38957  0.83057  0.97372  1.0000
  H   H756      1.0  0.41943  0.80918  0.94610  1.0000
  H   H757      1.0  0.04694  0.71751  0.81747  1.0000
  H   H758      1.0  0.21114  0.69122  0.64283  1.0000
  H   H759      1.0  0.03820  0.80093  0.83069  1.0000
  C   C441      1.0  0.09393  0.76045  0.77301  1.0000
  C   C442      1.0  0.07957  0.93135  0.00242  1.0000
  H   H760      1.0  0.22506  0.80579  0.56548  1.0000
  H   H761      1.0  0.15756  0.89626  0.95802  1.0000
  C   C443      1.0  0.38011  0.92466  0.99989  1.0000
  H   H762      1.0  0.10776  0.80135  0.81169  1.0000
  H   H763      1.0  0.23434  0.83542  0.57607  1.0000
  C   C444      1.0  0.31475  0.95351  0.97549  1.0000
  C   C445      1.0  0.44265  0.86468  0.95877  1.0000
  H   H764      1.0  0.27130  0.69406  0.68242  1.0000
  C   C446      1.0  0.43850  0.83059  0.99272  1.0000
  H   H765      1.0  0.03572  0.98773  0.78128  1.0000
  H   H766      1.0  0.50047  0.94620  0.86836  1.0000
  H   H767      1.0  0.31937  0.76060  0.53542  1.0000
  H   H768      1.0  0.08607  0.74400  0.76416  1.0000
  H   H769      1.0  0.08676  0.81808  0.83305  1.0000
  H   H770      1.0  0.10708  0.80958  0.51579  1.0000
  H   H771      1.0  0.01777  0.91158  0.92860  1.0000
  C   C447      1.0  0.46558  0.79930  0.95182  1.0000
  H   H772      1.0  0.45654  0.82965  0.00269  1.0000
  H   H773      1.0  0.02187  0.94231  0.97655  1.0000
  H   H774      1.0  0.23965  0.89259  0.50729  1.0000
  H   H775      1.0  0.36177  0.67250  0.87497  1.0000
  H   H776      1.0  0.00915  0.96461  0.91281  1.0000
  H   H777      1.0  0.46131  0.89613  0.97358  1.0000
  H   H778      1.0  0.33312  0.69543  0.53668  1.0000
  H   H779      1.0  0.36089  0.70280  0.52054  1.0000
  H   H780      1.0  0.26519  0.89290  0.52963  1.0000
  H   H781      1.0  0.33381  0.72027  0.51344  1.0000
  C   C448      1.0  0.30421  0.85346  0.51603  1.0000
  C   C449      1.0  0.25803  0.88504  0.51016  1.0000
  H   H782      1.0  0.32131  0.84564  0.52402  1.0000
  C   C450      1.0  0.12407  0.88355  0.50892  1.0000
  H   H783      1.0  0.29100  0.83895  0.51699  1.0000
  C   C451      1.0  0.08872  0.81151  0.50708  1.0000
  C   C452      1.0  0.14668  0.87246  0.50747  1.0000
  H   H784      1.0  0.87567  0.07174  0.48502  1.0000
  S   S128      1.0  0.59974  0.30207  0.26658  1.0000
  H   H785      1.0  0.86929  0.15662  0.50604  1.0000
  S   S129      1.0  0.55046  0.16162  0.08547  1.0000
  H   H786      1.0  0.95512  0.20212  0.22109  1.0000
  S   S130      1.0  0.52528  0.10918  0.09548  1.0000
  Fe  Fe66      1.0  0.54287  0.13723  0.12196  1.0000
  S   S131      1.0  0.57068  0.12754  0.15518  1.0000
  Fe  Fe67      1.0  0.52946  0.13523  0.05982  1.0000
  H   H787      1.0  0.50784  0.08579  0.04431  1.0000
  Fe  Fe68      1.0  0.64955  0.13791  0.33235  1.0000
  S   S132      1.0  0.61172  0.14057  0.34846  1.0000
  S   S133      1.0  0.66858  0.10232  0.33608  1.0000
  Fe  Fe69      1.0  0.65079  0.18993  0.31597  1.0000
  S   S134      1.0  0.61353  0.19683  0.33134  1.0000
  S   S135      1.0  0.67266  0.22018  0.29920  1.0000
  Fe  Fe70      1.0  0.62421  0.17449  0.36851  1.0000
  S   S136      1.0  0.61991  0.19029  0.41186  1.0000
  Fe  Fe71      1.0  0.60479  0.16242  0.30938  1.0000
  S   S137      1.0  0.57141  0.16224  0.28165  1.0000
  S   S138      1.0  0.66230  0.17036  0.35457  1.0000
  S   S139      1.0  0.64171  0.15701  0.29194  1.0000
  S   S140      1.0  0.97996  0.30714  0.13111  1.0000
  S   S141      1.0  0.87704  0.28443  0.36571  1.0000
  Fe  Fe72      1.0  0.84891  0.13498  0.34317  1.0000
  S   S142      1.0  0.81021  0.14101  0.33157  1.0000
  S   S143      1.0  0.87738  0.11984  0.31384  1.0000
  Fe  Fe73      1.0  0.83965  0.14730  0.40553  1.0000
  S   S144      1.0  0.80071  0.15466  0.39810  1.0000
  S   S145      1.0  0.85629  0.15206  0.44842  1.0000
  Fe  Fe74      1.0  0.80186  0.12193  0.37153  1.0000
  S   S146      1.0  0.77573  0.09234  0.37844  1.0000
  Fe  Fe75      1.0  0.81282  0.17317  0.35920  1.0000
  S   S147      1.0  0.79602  0.20898  0.34982  1.0000
  S   S148      1.0  0.84031  0.11313  0.38132  1.0000
  S   S149      1.0  0.85207  0.16855  0.36849  1.0000
  Fe  Fe76      1.0  0.95195  0.16622  0.10801  1.0000
  S   S150      1.0  0.91338  0.15883  0.11639  1.0000
  S   S151      1.0  0.95512  0.20270  0.08628  1.0000
  Fe  Fe77      1.0  0.96702  0.11583  0.12840  1.0000
  S   S152      1.0  0.92870  0.10663  0.13888  1.0000
  H   H788      1.0  0.59791  0.26924  0.43364  1.0000
  Fe  Fe78      1.0  0.91950  0.12282  0.09738  1.0000
  S   S153      1.0  0.88928  0.10845  0.07041  1.0000
  Fe  Fe79      1.0  0.92567  0.14334  0.15722  1.0000
  S   S154      1.0  0.90170  0.15813  0.19178  1.0000
  S   S155      1.0  0.95746  0.13073  0.08583  1.0000
  S   S156      1.0  0.96445  0.15211  0.14988  1.0000
  H   H789      1.0  0.82744  0.12962  0.17914  1.0000
  H   H790      1.0  0.57503  0.25404  0.41364  1.0000
  N   N34       1.0  0.86030  0.22824  0.44263  1.0000
  H   H791      1.0  0.93778  0.19567  0.19060  1.0000
  C   C453      1.0  0.84010  0.14637  0.47940  1.0000
  C   C454      1.0  0.81678  0.13759  0.47873  1.0000
  C   C455      1.0  0.52425  0.09477  0.23548  1.0000
  Fe  Fe80      1.0  0.51482  0.17877  0.09580  1.0000
  H   H792      1.0  0.80792  0.13510  0.45896  1.0000
  C   C456      1.0  0.84002  0.04212  0.46822  1.0000
  C   C457      1.0  0.88402  0.13086  0.28001  1.0000
  C   C458      1.0  0.90131  0.11878  0.26383  1.0000
  C   C459      1.0  0.90715  0.12693  0.23688  1.0000
  C   C460      1.0  0.89573  0.14731  0.22585  1.0000
  C   C461      1.0  0.87844  0.15939  0.24201  1.0000
  C   C462      1.0  0.87257  0.15122  0.26891  1.0000
  H   H793      1.0  0.91031  0.10306  0.27227  1.0000
  H   H794      1.0  0.92056  0.11750  0.22477  1.0000
  H   H795      1.0  0.86942  0.17512  0.23365  1.0000
  H   H796      1.0  0.85924  0.16067  0.28111  1.0000
  C   C463      1.0  0.85425  0.26441  0.35792  1.0000
  C   C464      1.0  0.85965  0.24225  0.34593  1.0000
  C   C465      1.0  0.84147  0.22553  0.34204  1.0000
  C   C466      1.0  0.81810  0.23080  0.35075  1.0000
  C   C467      1.0  0.81264  0.25324  0.36192  1.0000
  C   C468      1.0  0.83061  0.27013  0.36516  1.0000
  H   H797      1.0  0.87786  0.23794  0.33991  1.0000
  H   H798      1.0  0.84559  0.20853  0.33245  1.0000
  H   H799      1.0  0.79480  0.25728  0.36926  1.0000
  H   H800      1.0  0.82627  0.28720  0.37432  1.0000
  C   C469      1.0  0.97109  0.27827  0.11971  1.0000
  C   C470      1.0  0.95448  0.27507  0.09824  1.0000
  C   C471      1.0  0.94945  0.25181  0.08862  1.0000
  C   C472      1.0  0.96033  0.23142  0.10090  1.0000
  H   H801      1.0  0.88534  0.19100  0.02938  1.0000
  H   H802      1.0  0.52770  0.26822  0.02432  1.0000
  H   H803      1.0  0.94617  0.29054  0.08836  1.0000
  H   H804      1.0  0.93727  0.24964  0.07132  1.0000
  H   H805      1.0  0.89413  0.21228  0.38375  1.0000
  H   H806      1.0  0.96443  0.16499  0.03845  1.0000
  C   C473      1.0  0.69889  0.10070  0.34621  1.0000
  C   C474      1.0  0.70829  0.07836  0.35422  1.0000
  C   C475      1.0  0.73193  0.07613  0.36373  1.0000
  C   C476      1.0  0.74666  0.09611  0.36472  1.0000
  C   C477      1.0  0.73757  0.11852  0.35615  1.0000
  C   C478      1.0  0.71354  0.12088  0.34718  1.0000
  H   H807      1.0  0.69709  0.06273  0.35344  1.0000
  H   H808      1.0  0.73884  0.05879  0.37023  1.0000
  H   H809      1.0  0.74894  0.13403  0.35674  1.0000
  H   H810      1.0  0.70646  0.13815  0.34069  1.0000
  C   C479      1.0  0.61965  0.17311  0.44282  1.0000
  C   C480      1.0  0.61076  0.14986  0.44352  1.0000
  C   C481      1.0  0.57945  0.19694  0.15074  1.0000
  C   C482      1.0  0.87399  0.22972  0.49428  1.0000
  C   C483      1.0  0.62708  0.18375  0.46775  1.0000
  H   H811      1.0  0.60487  0.14152  0.42446  1.0000
  H   H812      1.0  0.63402  0.20172  0.46737  1.0000
  C   C484      1.0  0.57013  0.13666  0.19052  1.0000
  C   C485      1.0  0.55156  0.15096  0.20118  1.0000
  C   C486      1.0  0.55205  0.15829  0.22921  1.0000
  C   C487      1.0  0.57137  0.15195  0.24674  1.0000
  C   C488      1.0  0.59000  0.13777  0.23603  1.0000
  C   C489      1.0  0.58924  0.12998  0.20817  1.0000
  H   H813      1.0  0.53697  0.15659  0.18777  1.0000
  H   H814      1.0  0.53759  0.16932  0.23727  1.0000
  H   H815      1.0  0.60494  0.13264  0.24927  1.0000
  H   H816      1.0  0.60376  0.11899  0.20015  1.0000
  H   H817      1.0  0.78216  0.28709  0.28104  1.0000
  H   H818      1.0  0.60235  0.29309  0.32487  1.0000
  H   H819      1.0  0.85206  0.11032  0.23192  1.0000
  C   C490      1.0  0.62076  0.27916  0.27212  1.0000
  C   C491      1.0  0.61344  0.25538  0.27215  1.0000
  C   C492      1.0  0.62972  0.23709  0.27946  1.0000
  C   C493      1.0  0.65327  0.24258  0.28660  1.0000
  C   C494      1.0  0.66082  0.26631  0.28538  1.0000
  C   C495      1.0  0.64452  0.28464  0.27828  1.0000
  H   H820      1.0  0.59501  0.25115  0.26749  1.0000
  H   H821      1.0  0.62398  0.21872  0.27979  1.0000
  H   H822      1.0  0.67897  0.27066  0.29078  1.0000
  H   H823      1.0  0.65030  0.30303  0.27785  1.0000
  H   H824      1.0  0.54399  0.22864  0.48224  1.0000
  H   H825      1.0  0.53826  0.08629  0.15065  1.0000
  C   C496      1.0  0.91478  0.16436  0.03469  1.0000
  H   H826      1.0  0.63892  0.30804  0.42726  1.0000
  H   H827      1.0  0.59560  0.23743  0.43473  1.0000
  H   H828      1.0  0.85861  0.03518  0.47167  1.0000
  C   C497      1.0  0.85851  0.05619  0.42405  1.0000
  H   H829      1.0  0.90666  0.21203  0.41776  1.0000
  H   H830      1.0  0.61657  0.22822  0.15587  1.0000
  N   N35       1.0  0.58624  0.21173  0.17575  1.0000
  C   C498      1.0  0.56338  0.21809  0.19087  1.0000
  C   C499      1.0  0.60243  0.19649  0.19412  1.0000
  C   C500      1.0  0.59914  0.23352  0.16532  1.0000
  C   C501      1.0  0.60461  0.20350  0.22495  1.0000
  C   C502      1.0  0.60516  0.25303  0.18676  1.0000
  H   H831      1.0  0.56671  0.22757  0.21064  1.0000
  H   H832      1.0  0.55403  0.20151  0.19731  1.0000
  H   H833      1.0  0.59624  0.17771  0.19445  1.0000
  H   H834      1.0  0.62096  0.19567  0.18561  1.0000
  H   H835      1.0  0.81671  0.07623  0.41354  1.0000
  H   H836      1.0  0.58764  0.20072  0.23643  1.0000
  H   H837      1.0  0.61063  0.22200  0.22766  1.0000
  H   H838      1.0  0.61819  0.19160  0.23515  1.0000
  H   H839      1.0  0.62329  0.24990  0.19581  1.0000
  H   H840      1.0  0.59208  0.25494  0.20383  1.0000
  H   H841      1.0  0.60493  0.27070  0.17613  1.0000
  H   H842      1.0  0.66870  0.10618  0.48126  1.0000
  S   S157      1.0  0.98990  0.08184  0.13596  1.0000
  H   H843      1.0  0.80467  0.02496  0.46595  1.0000
  S   S158      1.0  0.50953  0.21840  0.10692  1.0000
  H   H844      1.0  0.68255  0.17581  0.45628  1.0000
  Fe  Fe81      1.0  0.85948  0.32043  0.36976  1.0000
  H   H845      1.0  0.85876  0.01718  0.41829  1.0000
  C   C503      1.0  0.88937  0.17414  0.04079  1.0000
  C   C504      1.0  0.85527  0.03375  0.40608  1.0000
  C   C505      1.0  0.85126  0.14982  0.50529  1.0000
  C   C506      1.0  0.65521  0.25237  0.36396  1.0000
  H   H846      1.0  0.55875  0.17838  0.46254  1.0000
  S   S159      1.0  0.53170  0.12087  0.01523  1.0000
  H   H847      1.0  0.83765  0.03324  0.39548  1.0000
  C   C507      1.0  0.87320  0.09094  0.02033  1.0000
  H   H848      1.0  0.93191  0.09511  0.03832  1.0000
  H   H849      1.0  0.58039  0.20155  0.46824  1.0000
  H   H850      1.0  0.87667  0.24931  0.49541  1.0000
  H   H851      1.0  0.51178  0.30614  0.09967  1.0000
  C   C508      1.0  0.50793  0.09905  0.17499  1.0000
  H   H852      1.0  0.78731  0.12410  0.50295  1.0000
  H   H853      1.0  0.87157  0.10352  0.48423  1.0000
  C   C509      1.0  0.79508  0.07355  0.45031  1.0000
  H   H854      1.0  0.51683  0.05439  0.08002  1.0000
  S   S160      1.0  0.52111  0.31722  0.04088  1.0000
  H   H855      1.0  0.65840  0.13406  0.46602  1.0000
  H   H856      1.0  0.89649  0.22600  0.45908  1.0000
  H   H857      1.0  0.86894  0.03390  0.38930  1.0000
  N   N36       1.0  0.70095  0.13023  0.43692  1.0000
  C   C510      1.0  0.72663  0.13670  0.43086  1.0000
  C   C511      1.0  0.68520  0.14892  0.42289  1.0000
  C   C512      1.0  0.69647  0.10585  0.42459  1.0000
  C   C513      1.0  0.69785  0.12972  0.46806  1.0000
  C   C514      1.0  0.74597  0.11821  0.44006  1.0000
  C   C515      1.0  0.68732  0.17465  0.43393  1.0000
  C   C516      1.0  0.67041  0.09970  0.41691  1.0000
  C   C517      1.0  0.81579  0.22430  0.42872  1.0000
  H   H858      1.0  0.72919  0.13980  0.40813  1.0000
  H   H859      1.0  0.73147  0.15375  0.44112  1.0000
  H   H860      1.0  0.66591  0.14466  0.42418  1.0000
  H   H861      1.0  0.68907  0.14932  0.40016  1.0000
  H   H862      1.0  0.70664  0.10366  0.40491  1.0000
  H   H863      1.0  0.70327  0.09136  0.43867  1.0000
  H   H864      1.0  0.70903  0.11514  0.47747  1.0000
  H   H865      1.0  0.70488  0.14617  0.47796  1.0000
  H   H866      1.0  0.74679  0.11605  0.46297  1.0000
  H   H867      1.0  0.74363  0.10058  0.43003  1.0000
  H   H868      1.0  0.76377  0.12470  0.43334  1.0000
  H   H869      1.0  0.55675  0.20581  0.44354  1.0000
  C   C518      1.0  0.57808  0.32026  0.20159  1.0000
  C   C519      1.0  0.80514  0.13139  0.50368  1.0000
  H   H870      1.0  0.65777  0.10192  0.43438  1.0000
  H   H871      1.0  0.66981  0.08067  0.41036  1.0000
  H   H872      1.0  0.66403  0.11039  0.39872  1.0000
  H   H873      1.0  0.99490  0.26008  0.14849  1.0000
  C   C520      1.0  0.67238  0.12558  0.47906  1.0000
  S   S161      1.0  0.63798  0.33498  0.32491  1.0000
  N   N37       1.0  0.92139  0.24271  0.19073  1.0000
  C   C521      1.0  0.91866  0.26863  0.19929  1.0000
  C   C522      1.0  0.90315  0.22871  0.20696  1.0000
  C   C523      1.0  0.91568  0.24146  0.16007  1.0000
  C   C524      1.0  0.94685  0.23460  0.19653  1.0000
  C   C525      1.0  0.93381  0.28688  0.18297  1.0000
  C   C526      1.0  0.90568  0.22961  0.23892  1.0000
  C   C527      1.0  0.91503  0.21644  0.14691  1.0000
  C   C528      1.0  0.95175  0.20730  0.19906  1.0000
  H   H874      1.0  0.89959  0.27473  0.19751  1.0000
  H   H875      1.0  0.92361  0.27096  0.22155  1.0000
  H   H876      1.0  0.90325  0.20955  0.20142  1.0000
  H   H877      1.0  0.88467  0.23506  0.20163  1.0000
  H   H878      1.0  0.89800  0.25025  0.15568  1.0000
  H   H879      1.0  0.92906  0.25143  0.14767  1.0000
  H   H880      1.0  0.95906  0.24159  0.18027  1.0000
  H   H881      1.0  0.95326  0.24249  0.21640  1.0000
  H   H882      1.0  0.93221  0.30465  0.19314  1.0000
  H   H883      1.0  0.95312  0.28196  0.18271  1.0000
  H   H884      1.0  0.92721  0.28949  0.16134  1.0000
  H   H885      1.0  0.89381  0.21600  0.24836  1.0000
  H   H886      1.0  0.92416  0.22539  0.24601  1.0000
  H   H887      1.0  0.89981  0.24723  0.24725  1.0000
  H   H888      1.0  0.90166  0.20459  0.15660  1.0000
  H   H889      1.0  0.93300  0.20776  0.14674  1.0000
  H   H890      1.0  0.90973  0.21842  0.12471  1.0000
  H   H891      1.0  0.96847  0.20267  0.18766  1.0000
  H   H892      1.0  0.82669  0.01144  0.44346  1.0000
  H   H893      1.0  0.79614  0.09327  0.45231  1.0000
  C   C529      1.0  0.51454  0.24555  0.08842  1.0000
  C   C530      1.0  0.59390  0.25334  0.42085  1.0000
  C   C531      1.0  0.84544  0.08497  0.45887  1.0000
  C   C532      1.0  0.61161  0.25024  0.39649  1.0000
  H   H894      1.0  0.60621  0.23411  0.38458  1.0000
  H   H895      1.0  0.57536  0.27871  0.37790  1.0000
  H   H896      1.0  0.62899  0.24509  0.40613  1.0000
  H   H897      1.0  0.58446  0.25760  0.35223  1.0000
  C   C533      1.0  0.58975  0.27452  0.36268  1.0000
  H   H898      1.0  0.72909  0.22121  0.30670  1.0000
  N   N38       1.0  0.61373  0.27133  0.37697  1.0000
  C   C534      1.0  0.61927  0.29427  0.39189  1.0000
  C   C535      1.0  0.64153  0.29426  0.41089  1.0000
  H   H899      1.0  0.62448  0.25511  0.33780  1.0000
  H   H900      1.0  0.60362  0.30105  0.40403  1.0000
  H   H901      1.0  0.75851  0.24825  0.34942  1.0000
  H   H902      1.0  0.64451  0.27732  0.42241  1.0000
  H   H903      1.0  0.58931  0.24225  0.14769  1.0000
  H   H904      1.0  0.51936  0.11423  0.18087  1.0000
  H   H905      1.0  0.83288  0.08913  0.47620  1.0000
  H   H906      1.0  0.50335  0.13614  0.22534  1.0000
  H   H907      1.0  0.82617  0.12878  0.22807  1.0000
  C   C536      1.0  0.63228  0.26607  0.35481  1.0000
  H   H908      1.0  0.56696  0.18245  0.15681  1.0000
  H   H909      1.0  0.58860  0.31262  0.35033  1.0000
  H   H910      1.0  0.85992  0.07169  0.40950  1.0000
  H   H911      1.0  0.92727  0.17487  0.04743  1.0000
  C   C537      1.0  0.75042  0.24831  0.32829  1.0000
  H   H912      1.0  0.87883  0.20035  0.46599  1.0000
  H   H913      1.0  0.65782  0.29879  0.39884  1.0000
  H   H914      1.0  0.63819  0.28287  0.34455  1.0000
  H   H915      1.0  0.76493  0.24084  0.31497  1.0000
  H   H916      1.0  0.62225  0.30891  0.37660  1.0000
  H   H917      1.0  0.72403  0.29318  0.25302  1.0000
  H   H918      1.0  0.94580  0.20340  0.02560  1.0000
  H   H919      1.0  0.87394  0.05214  0.17081  1.0000
  H   H920      1.0  0.73472  0.21515  0.34311  1.0000
  H   H921      1.0  0.84175  0.26333  0.47771  1.0000
  H   H922      1.0  0.56952  0.20794  0.13498  1.0000
  H   H923      1.0  0.82653  0.11760  0.12393  1.0000
  H   H924      1.0  0.85069  0.13190  0.10638  1.0000
  H   H925      1.0  0.90230  0.06233  0.18255  1.0000
  H   H926      1.0  0.79390  0.26570  0.30636  1.0000
  H   H927      1.0  0.60965  0.17085  0.14798  1.0000
  H   H928      1.0  0.71275  0.23665  0.33363  1.0000
  H   H929      1.0  0.71981  0.26033  0.28660  1.0000
  H   H930      1.0  0.55962  0.31315  0.20079  1.0000
  H   H931      1.0  0.83919  0.14489  0.13746  1.0000
  C   C538      1.0  0.84328  0.12756  0.12722  1.0000
  H   H932      1.0  0.83453  0.04967  0.48871  1.0000
  C   C539      1.0  0.58811  0.29465  0.34066  1.0000
  H   H933      1.0  0.65144  0.23316  0.36782  1.0000
  C   C540      1.0  0.60870  0.13765  0.46912  1.0000
  H   H934      1.0  0.67433  0.18634  0.42247  1.0000
  H   H935      1.0  0.87039  0.09998  0.12931  1.0000
  Fe  Fe82      1.0  0.61226  0.33468  0.28897  1.0000
  H   H936      1.0  0.74971  0.26318  0.27584  1.0000
  H   H937      1.0  0.58999  0.30480  0.20644  1.0000
  H   H938      1.0  0.87698  0.12543  0.14880  1.0000
  C   C541      1.0  0.52067  0.24602  0.06023  1.0000
  H   H939      1.0  0.81594  0.09322  0.16326  1.0000
  H   H940      1.0  0.85684  0.13553  0.19066  1.0000
  C   C542      1.0  0.86216  0.11297  0.14387  1.0000
  C   C543      1.0  0.84361  0.12098  0.18860  1.0000
  H   H941      1.0  0.50683  0.26729  0.12432  1.0000
  C   C544      1.0  0.51161  0.26743  0.10252  1.0000
  C   C545      1.0  0.60043  0.18472  0.13506  1.0000
  H   H942      1.0  0.57075  0.29354  0.32943  1.0000
  H   H943      1.0  0.72044  0.30273  0.33130  1.0000
  H   H944      1.0  0.55289  0.25091  0.16756  1.0000
  H   H945      1.0  0.77760  0.06973  0.44030  1.0000
  C   C546      1.0  0.56128  0.19799  0.46423  1.0000
  N   N39       1.0  0.85325  0.10122  0.17018  1.0000
  C   C547      1.0  0.83620  0.11367  0.21838  1.0000
  C   C548      1.0  0.83550  0.06795  0.13858  1.0000
  C   C549      1.0  0.83350  0.08358  0.16506  1.0000
  H   H946      1.0  0.52383  0.04450  0.04593  1.0000
  H   H947      1.0  0.85634  0.28771  0.46150  1.0000
  H   H948      1.0  0.88445  0.08925  0.45477  1.0000
  H   H949      1.0  0.91599  0.14602  0.04382  1.0000
  H   H950      1.0  0.86900  0.08264  0.20583  1.0000
  C   C550      1.0  0.72887  0.29625  0.27513  1.0000
  H   H951      1.0  0.82437  0.09793  0.21868  1.0000
  H   H952      1.0  0.83174  0.07130  0.18326  1.0000
  H   H953      1.0  0.85371  0.06545  0.13009  1.0000
  H   H954      1.0  0.82886  0.04975  0.14342  1.0000
  C   C551      1.0  0.88599  0.06775  0.17065  1.0000
  H   H955      1.0  0.89193  0.07161  0.14917  1.0000
  H   H956      1.0  0.52299  0.22937  0.04908  1.0000
  H   H957      1.0  0.79522  0.06536  0.47136  1.0000
  C   C552      1.0  0.52515  0.07881  0.16556  1.0000
  N   N40       1.0  0.83963  0.06121  0.44579  1.0000
  C   C553      1.0  0.52338  0.26810  0.04626  1.0000
  H   H958      1.0  0.59321  0.17518  0.11675  1.0000
  H   H959      1.0  0.84308  0.09984  0.44349  1.0000
  C   C554      1.0  0.72303  0.28331  0.33578  1.0000
  C   C555      1.0  0.73568  0.27200  0.28881  1.0000
  H   H960      1.0  0.75954  0.30831  0.31896  1.0000
  H   H961      1.0  0.70569  0.27523  0.32988  1.0000
  H   H962      1.0  0.88849  0.10284  0.18882  1.0000
  C   C556      1.0  0.87423  0.08949  0.18501  1.0000
  H   H963      1.0  0.65442  0.32280  0.20704  1.0000
  C   C557      1.0  0.52010  0.28998  0.06026  1.0000
  H   H964      1.0  0.60147  0.11978  0.46957  1.0000
  H   H965      1.0  0.61353  0.19771  0.12704  1.0000
  H   H966      1.0  0.62446  0.32534  0.21953  1.0000
  H   H967      1.0  0.62445  0.30945  0.16084  1.0000
  H   H968      1.0  0.72545  0.26203  0.37459  1.0000
  H   H969      1.0  0.71042  0.29032  0.37770  1.0000
  H   H970      1.0  0.80938  0.04682  0.42278  1.0000
  C   C558      1.0  0.89339  0.09582  0.03686  1.0000
  H   H971      1.0  0.82928  0.22763  0.47019  1.0000
  C   C559      1.0  0.98186  0.25787  0.13206  1.0000
  H   H972      1.0  0.66387  0.26012  0.38243  1.0000
  C   C560      1.0  0.81553  0.06391  0.43175  1.0000
  C   C561      1.0  0.50870  0.04959  0.05971  1.0000
  C   C562      1.0  0.72578  0.28098  0.36762  1.0000
  H   H973      1.0  0.82807  0.00661  0.48012  1.0000
  H   H974      1.0  0.98267  0.14900  0.01451  1.0000
  H   H975      1.0  0.74229  0.28957  0.37527  1.0000
  C   C563      1.0  0.87810  0.22031  0.46461  1.0000
  H   H976      1.0  0.88005  0.26119  0.43842  1.0000
  N   N41       1.0  0.74344  0.27319  0.31879  1.0000
  C   C564      1.0  0.76472  0.28924  0.32228  1.0000
  H   H977      1.0  0.81579  0.24289  0.42065  1.0000
  H   H978      1.0  0.94386  0.13196  0.00961  1.0000
  H   H979      1.0  0.77158  0.28843  0.34402  1.0000
  H   H980      1.0  0.82947  0.27734  0.44666  1.0000
  H   H981      1.0  0.85545  0.09399  0.02869  1.0000
  H   H982      1.0  0.85471  0.22077  0.39888  1.0000
  H   H983      1.0  0.87654  0.05402  0.43372  1.0000
  C   C565      1.0  0.78641  0.28399  0.30331  1.0000
  C   C566      1.0  0.54520  0.23370  0.17443  1.0000
  C   C567      1.0  0.89249  0.22052  0.40467  1.0000
  H   H984      1.0  0.89586  0.23990  0.40194  1.0000
  H   H985      1.0  0.86564  0.19593  0.41849  1.0000
  C   C568      1.0  0.73051  0.22945  0.32762  1.0000
  H   H986      1.0  0.88776  0.17787  0.06339  1.0000
  H   H987      1.0  0.53576  0.07117  0.18308  1.0000
  C   C569      1.0  0.86120  0.25494  0.43772  1.0000
  C   C570      1.0  0.54483  0.20919  0.48658  1.0000
  H   H988      1.0  0.58416  0.12455  0.02002  1.0000
  C   C571      1.0  0.82393  0.02019  0.46376  1.0000
  H   H989      1.0  0.63472  0.29813  0.20457  1.0000
  C   C572      1.0  0.91622  0.09172  0.02577  1.0000
  H   H990      1.0  0.79805  0.22117  0.43838  1.0000
  S   S162      1.0  0.83442  0.32975  0.40441  1.0000
  C   C573      1.0  0.84617  0.27115  0.45727  1.0000
  H   H991      1.0  0.57810  0.33327  0.21887  1.0000
  H   H992      1.0  0.83621  0.20005  0.45477  1.0000
  H   H993      1.0  0.53784  0.22405  0.15635  1.0000
  H   H994      1.0  0.66846  0.25295  0.34681  1.0000
  C   C574      1.0  0.83569  0.21968  0.45052  1.0000
  H   H995      1.0  0.81734  0.21159  0.41110  1.0000
  H   H996      1.0  0.85477  0.25926  0.41632  1.0000
  H   H997      1.0  0.98507  0.21916  0.13241  1.0000
  H   H998      1.0  0.82349  0.07502  0.12190  1.0000
  C   C575      1.0  0.86716  0.21566  0.41601  1.0000
  C   C576      1.0  0.63557  0.31791  0.20264  1.0000
  H   H999      1.0  0.52630  0.20295  0.48233  1.0000
  H   H1000     1.0  0.70527  0.18219  0.43022  1.0000
  H   H1001     1.0  0.74389  0.30900  0.27525  1.0000
  H   H1002     1.0  0.71297  0.30469  0.28509  1.0000
  H   H1003     1.0  0.80095  0.29651  0.30873  1.0000
  H   H1004     1.0  0.91745  0.21873  0.01998  1.0000
  H   H1005     1.0  0.53750  0.08149  0.24377  1.0000
  C   C577      1.0  0.51446  0.28951  0.08860  1.0000
  H   H1006     1.0  0.52974  0.23807  0.18810  1.0000
  S   S163      1.0  0.83496  0.33286  0.33542  1.0000
  H   H1007     1.0  0.87566  0.16060  0.03580  1.0000
  S   S164      1.0  0.50829  0.15516  0.13318  1.0000
  C   C578      1.0  0.97627  0.23459  0.12304  1.0000
  C   C579      1.0  0.87082  0.08709  0.47134  1.0000
  H   H1008     1.0  0.85637  0.22473  0.50290  1.0000
  H   H1009     1.0  0.53448  0.10554  0.22049  1.0000
  C   C580      1.0  0.62546  0.17138  0.49322  1.0000
  H   H1010     1.0  0.51567  0.06448  0.15436  1.0000
  C   C581      1.0  0.61589  0.14841  0.49410  1.0000
  H   H1011     1.0  0.64470  0.33332  0.16300  1.0000
  H   H1012     1.0  0.67033  0.13413  0.49976  1.0000
  C   C582      1.0  0.96724  0.16172  0.01600  1.0000
  H   H1013     1.0  0.51851  0.10638  0.25302  1.0000
  H   H1014     1.0  0.58238  0.31648  0.15811  1.0000
  C   C583      1.0  0.62829  0.32594  0.17281  1.0000
  H   H1015     1.0  0.50881  0.06273  0.21866  1.0000
  C   C584      1.0  0.93242  0.20886  0.00979  1.0000
  C   C585      1.0  0.58393  0.33145  0.17312  1.0000
  C   C586      1.0  0.50275  0.08146  0.22287  1.0000
  H   H1016     1.0  0.59651  0.23376  0.49352  1.0000
  H   H1017     1.0  0.58460  0.33264  0.11550  1.0000
  H   H1018     1.0  0.61544  0.32167  0.11720  1.0000
  H   H1019     1.0  0.56961  0.24912  0.50527  1.0000
  S   S165      1.0  0.56399  0.31689  0.57736  1.0000
  Fe  Fe83      1.0  0.59534  0.03176  0.85799  1.0000
  S   S166      1.0  0.58625  0.07113  0.86046  1.0000
  Fe  Fe84      1.0  0.64946  0.04197  0.85479  1.0000
  S   S167      1.0  0.64372  0.08181  0.85698  1.0000
  S   S168      1.0  0.68553  0.02248  0.84877  1.0000
  Fe  Fe85      1.0  0.61666  0.07379  0.89069  1.0000
  S   S169      1.0  0.61738  0.09353  0.93227  1.0000
  Fe  Fe86      1.0  0.61363  0.07603  0.82643  1.0000
  S   S170      1.0  0.60358  0.10276  0.79178  1.0000
  S   S171      1.0  0.62445  0.03424  0.89038  1.0000
  S   S172      1.0  0.62074  0.03648  0.82200  1.0000
  Fe  Fe87      1.0  0.59720  0.18435  0.60876  1.0000
  S   S173      1.0  0.59351  0.14471  0.60282  1.0000
  S   S174      1.0  0.56473  0.20802  0.61420  1.0000
  Fe  Fe88      1.0  0.65032  0.18259  0.60238  1.0000
  S   S175      1.0  0.65158  0.14292  0.59548  1.0000
  S   S176      1.0  0.68161  0.20697  0.59920  1.0000
  Fe  Fe89      1.0  0.61965  0.14979  0.56774  1.0000
  S   S177      1.0  0.61302  0.13248  0.52580  1.0000
  Fe  Fe90      1.0  0.62540  0.14118  0.63136  1.0000
  S   S178      1.0  0.63037  0.11029  0.66259  1.0000
  S   S179      1.0  0.62077  0.18953  0.57191  1.0000
  S   S180      1.0  0.62692  0.18071  0.64017  1.0000
  S   S181      1.0  0.81452  0.29280  0.67207  1.0000
  Fe  Fe91      1.0  0.79401  0.15665  0.65730  1.0000
  S   S182      1.0  0.79501  0.11925  0.64116  1.0000
  S   S183      1.0  0.76348  0.17312  0.68078  1.0000
  Fe  Fe92      1.0  0.84468  0.16612  0.64046  1.0000
  S   S184      1.0  0.85082  0.12898  0.62348  1.0000
  S   S185      1.0  0.86942  0.19742  0.63842  1.0000
  Fe  Fe93      1.0  0.81435  0.13449  0.60402  1.0000
  S   S186      1.0  0.80157  0.12520  0.56032  1.0000
  Fe  Fe94      1.0  0.83105  0.11688  0.66213  1.0000
  S   S187      1.0  0.83750  0.08390  0.68933  1.0000
  S   S188      1.0  0.80975  0.17225  0.61872  1.0000
  S   S189      1.0  0.82853  0.15352  0.68052  1.0000
  H   H1020     1.0  0.53577  0.08444  0.73479  1.0000
  S   S190      1.0  0.89412  0.04394  0.87430  1.0000
  Fe  Fe95      1.0  0.82609  0.04295  0.89214  1.0000
  S   S191      1.0  0.84794  0.07662  0.89160  1.0000
  S   S192      1.0  0.78656  0.05080  0.90208  1.0000
  Fe  Fe96      1.0  0.86336  0.06219  0.85193  1.0000
  S   S193      1.0  0.86819  0.08915  0.81671  1.0000
  Fe  Fe97      1.0  0.87653  0.05571  0.91436  1.0000
  S   S194      1.0  0.90309  0.07035  0.94629  1.0000
  S   S195      1.0  0.84050  0.02954  0.85134  1.0000
  S   S196      1.0  0.85388  0.02277  0.91809  1.0000
  C   C587      1.0  0.89861  0.07900  0.98150  1.0000
  H   H1021     1.0  0.56218  0.04667  0.74033  1.0000
  C   C588      1.0  0.73433  0.01743  0.85699  1.0000
  C   C589      1.0  0.87577  0.08255  0.99282  1.0000
  H   H1022     1.0  0.56034  0.07605  0.80822  1.0000
  N   N42       1.0  0.54364  0.05158  0.77971  1.0000
  H   H1023     1.0  0.86009  0.07916  0.98024  1.0000
  C   C590      1.0  0.84433  0.08622  0.72520  1.0000
  C   C591      1.0  0.84119  0.06626  0.74269  1.0000
  C   C592      1.0  0.84747  0.06717  0.77108  1.0000
  C   C593      1.0  0.85764  0.08782  0.78200  1.0000
  C   C594      1.0  0.86049  0.10785  0.76460  1.0000
  C   C595      1.0  0.85367  0.10716  0.73640  1.0000
  H   H1024     1.0  0.83402  0.04999  0.73413  1.0000
  H   H1025     1.0  0.84489  0.05182  0.78436  1.0000
  H   H1026     1.0  0.86833  0.12390  0.77291  1.0000
  H   H1027     1.0  0.85636  0.12256  0.72312  1.0000
  C   C596      1.0  0.90843  0.14320  0.95867  1.0000
  H   H1028     1.0  0.74059  0.12967  0.65148  1.0000
  N   N43       1.0  0.88590  0.20620  0.72974  1.0000
  H   H1029     1.0  0.90450  0.19447  0.98489  1.0000
  C   C597      1.0  0.82956  0.26664  0.66116  1.0000
  C   C598      1.0  0.85111  0.26762  0.64644  1.0000
  C   C599      1.0  0.86319  0.24632  0.63902  1.0000
  C   C600      1.0  0.85340  0.22405  0.64561  1.0000
  C   C601      1.0  0.83148  0.22315  0.65957  1.0000
  C   C602      1.0  0.81977  0.24435  0.66764  1.0000
  H   H1030     1.0  0.85873  0.28476  0.64125  1.0000
  H   H1031     1.0  0.88015  0.24713  0.62822  1.0000
  H   H1032     1.0  0.82386  0.20610  0.66502  1.0000
  H   H1033     1.0  0.80324  0.24344  0.67924  1.0000
  C   C603      1.0  0.70403  0.19717  0.62196  1.0000
  C   C604      1.0  0.70252  0.20257  0.65028  1.0000
  C   C605      1.0  0.72103  0.19537  0.66835  1.0000
  C   C606      1.0  0.74086  0.18266  0.65805  1.0000
  C   C607      1.0  0.74225  0.17716  0.62976  1.0000
  C   C608      1.0  0.72386  0.18453  0.61166  1.0000
  H   H1034     1.0  0.68719  0.21242  0.65817  1.0000
  H   H1035     1.0  0.71996  0.19955  0.69027  1.0000
  H   H1036     1.0  0.75735  0.16700  0.62182  1.0000
  H   H1037     1.0  0.72496  0.18032  0.58974  1.0000
  C   C609      1.0  0.69751  0.09283  0.67768  1.0000
  C   C610      1.0  0.67507  0.14449  0.69048  1.0000
  H   H1038     1.0  0.93142  0.20548  0.78054  1.0000
  C   C611      1.0  0.71349  0.03070  0.86370  1.0000
  C   C612      1.0  0.71547  0.04997  0.88197  1.0000
  C   C613      1.0  0.73793  0.05573  0.89351  1.0000
  C   C614      1.0  0.75879  0.04256  0.88673  1.0000
  C   C615      1.0  0.52945  0.24142  0.53495  1.0000
  C   C616      1.0  0.90301  0.14959  0.98924  1.0000
  H   H1039     1.0  0.69965  0.06030  0.88751  1.0000
  H   H1040     1.0  0.89823  0.25325  0.74003  1.0000
  H   H1041     1.0  0.54303  0.02163  0.80912  1.0000
  H   H1042     1.0  0.50948  0.06450  0.76366  1.0000
  C   C617      1.0  0.61215  0.10475  0.75618  1.0000
  C   C618      1.0  0.60526  0.12521  0.74072  1.0000
  C   C619      1.0  0.61071  0.12727  0.71214  1.0000
  C   C620      1.0  0.62290  0.10870  0.69856  1.0000
  C   C621      1.0  0.62981  0.08822  0.71400  1.0000
  C   C622      1.0  0.62457  0.08626  0.74265  1.0000
  H   H1043     1.0  0.59556  0.13957  0.75092  1.0000
  H   H1044     1.0  0.60530  0.14313  0.70061  1.0000
  H   H1045     1.0  0.63922  0.07372  0.70372  1.0000
  H   H1046     1.0  0.62988  0.07037  0.75419  1.0000
  C   C623      1.0  0.59841  0.11048  0.98141  1.0000
  C   C624      1.0  0.59330  0.10030  0.95535  1.0000
  C   C625      1.0  0.56937  0.09625  0.94829  1.0000
  C   C626      1.0  0.55452  0.02929  0.79273  1.0000
  C   C627      1.0  0.57639  0.21244  0.52392  1.0000
  H   H1047     1.0  0.56514  0.08855  0.92831  1.0000
  C   C628      1.0  0.75686  0.02336  0.86832  1.0000
  C   C629      1.0  0.56517  0.28646  0.58669  1.0000
  C   C630      1.0  0.58546  0.27204  0.58176  1.0000
  C   C631      1.0  0.58553  0.24769  0.58958  1.0000
  C   C632      1.0  0.56542  0.23792  0.60263  1.0000
  C   C633      1.0  0.54513  0.25233  0.60700  1.0000
  C   C634      1.0  0.54493  0.27641  0.59886  1.0000
  H   H1048     1.0  0.60094  0.27965  0.57176  1.0000
  H   H1049     1.0  0.60121  0.23665  0.58584  1.0000
  H   H1050     1.0  0.52949  0.24490  0.61689  1.0000
  H   H1051     1.0  0.52912  0.28742  0.60244  1.0000
  N   N44       1.0  0.76232  0.25465  0.60292  1.0000
  C   C635      1.0  0.74336  0.27376  0.59825  1.0000
  C   C636      1.0  0.78634  0.26663  0.60481  1.0000
  C   C637      1.0  0.75801  0.24109  0.62956  1.0000
  C   C638      1.0  0.76140  0.23722  0.57915  1.0000
  C   C639      1.0  0.71718  0.26518  0.59795  1.0000
  C   C640      1.0  0.79674  0.27580  0.57711  1.0000
  C   C641      1.0  0.75467  0.25650  0.65582  1.0000
  C   C642      1.0  0.78065  0.21704  0.57946  1.0000
  H   H1052     1.0  0.74469  0.28806  0.61417  1.0000
  H   H1053     1.0  0.74620  0.28308  0.57805  1.0000
  H   H1054     1.0  0.80012  0.25463  0.61444  1.0000
  H   H1055     1.0  0.78543  0.28232  0.61900  1.0000
  H   H1056     1.0  0.74199  0.22975  0.62768  1.0000
  H   H1057     1.0  0.77307  0.22827  0.63395  1.0000
  H   H1058     1.0  0.74393  0.22789  0.57888  1.0000
  H   H1059     1.0  0.76187  0.24659  0.55866  1.0000
  H   H1060     1.0  0.71193  0.25638  0.61768  1.0000
  H   H1061     1.0  0.70510  0.28096  0.59516  1.0000
  H   H1062     1.0  0.71346  0.25313  0.58027  1.0000
  H   H1063     1.0  0.78468  0.28909  0.56690  1.0000
  H   H1064     1.0  0.81397  0.28479  0.58144  1.0000
  H   H1065     1.0  0.80099  0.26096  0.56264  1.0000
  H   H1066     1.0  0.75374  0.24448  0.67427  1.0000
  H   H1067     1.0  0.73772  0.26708  0.65517  1.0000
  H   H1068     1.0  0.76984  0.26866  0.65920  1.0000
  H   H1069     1.0  0.77289  0.20018  0.58747  1.0000
  H   H1070     1.0  0.79663  0.22101  0.59217  1.0000
  H   H1071     1.0  0.78721  0.21377  0.55800  1.0000
  N   N45       1.0  0.77258  0.07604  0.80635  1.0000
  C   C643      1.0  0.76880  0.05042  0.79769  1.0000
  C   C644      1.0  0.74915  0.08516  0.81818  1.0000
  C   C645      1.0  0.79191  0.07625  0.82847  1.0000
  C   C646      1.0  0.78026  0.08990  0.78098  1.0000
  C   C647      1.0  0.79130  0.03634  0.78816  1.0000
  C   C648      1.0  0.72740  0.08501  0.79834  1.0000
  C   C649      1.0  0.79143  0.09731  0.84912  1.0000
  C   C650      1.0  0.78382  0.11699  0.78440  1.0000
  H   H1072     1.0  0.76075  0.04004  0.81502  1.0000
  H   H1073     1.0  0.75585  0.04940  0.78013  1.0000
  H   H1074     1.0  0.75043  0.10373  0.82594  1.0000
  H   H1075     1.0  0.74429  0.07438  0.83688  1.0000
  H   H1076     1.0  0.79103  0.05989  0.84178  1.0000
  H   H1077     1.0  0.81009  0.07573  0.81892  1.0000
  H   H1078     1.0  0.79784  0.08301  0.77342  1.0000
  H   H1079     1.0  0.76820  0.08693  0.76292  1.0000
  H   H1080     1.0  0.79852  0.04351  0.76841  1.0000
  H   H1081     1.0  0.80551  0.03570  0.80427  1.0000
  H   H1082     1.0  0.78627  0.01751  0.78412  1.0000
  H   H1083     1.0  0.71195  0.09388  0.80885  1.0000
  H   H1084     1.0  0.73073  0.09508  0.77885  1.0000
  H   H1085     1.0  0.72162  0.06654  0.79369  1.0000
  H   H1086     1.0  0.77629  0.09570  0.86396  1.0000
  H   H1087     1.0  0.79071  0.11504  0.83890  1.0000
  H   H1088     1.0  0.80801  0.09668  0.86184  1.0000
  H   H1089     1.0  0.80192  0.12068  0.79294  1.0000
  H   H1090     1.0  0.76995  0.12576  0.79733  1.0000
  H   H1091     1.0  0.78219  0.12585  0.76372  1.0000
  H   H1092     1.0  0.67823  0.13033  0.64919  1.0000
  C   C651      1.0  0.55430  0.08399  0.74309  1.0000
  H   H1093     1.0  0.89869  0.18240  0.76238  1.0000
  H   H1094     1.0  0.64614  0.23970  0.65030  1.0000
  C   C652      1.0  0.64518  0.26396  0.61559  1.0000
  C   C653      1.0  0.86596  0.21671  0.74721  1.0000
  C   C654      1.0  0.55486  0.16708  0.54955  1.0000
  H   H1095     1.0  0.56788  0.29992  0.66171  1.0000
  C   C655      1.0  0.89828  0.24997  0.71743  1.0000
  S   S197      1.0  0.56308  0.00722  0.86398  1.0000
  C   C656      1.0  0.72654  0.33346  0.62880  1.0000
  H   H1096     1.0  0.88487  0.00932  0.82280  1.0000
  H   H1097     1.0  0.53369  0.04963  0.83896  1.0000
  C   C657      1.0  0.64220  0.28708  0.66948  1.0000
  H   H1098     1.0  0.55710  0.09937  0.75718  1.0000
  H   H1099     1.0  0.51097  0.07209  0.99722  1.0000
  H   H1100     1.0  0.57924  0.24493  0.67775  1.0000
  H   H1101     1.0  0.68527  0.15643  0.70441  1.0000
  C   C658      1.0  0.55153  0.17676  0.51967  1.0000
  H   H1102     1.0  0.86706  0.00255  0.76232  1.0000
  H   H1103     1.0  0.92693  0.01476  0.83028  1.0000
  H   H1104     1.0  0.65457  0.31378  0.69861  1.0000
  C   C659      1.0  0.92891  0.02118  0.80844  1.0000
  H   H1105     1.0  0.50414  0.01154  0.77257  1.0000
  H   H1106     1.0  0.51474  0.24630  0.54948  1.0000
  H   H1107     1.0  0.57008  0.17547  0.56028  1.0000
  H   H1108     1.0  0.66020  0.27812  0.66930  1.0000
  C   C660      1.0  0.92784  0.04872  0.80905  1.0000
  C   C661      1.0  0.92282  0.18846  0.99136  1.0000
  H   H1109     1.0  0.92213  0.12864  0.95726  1.0000
  C   C662      1.0  0.56074  0.05994  0.75744  1.0000
  H   H1110     1.0  0.91384  0.04846  0.73441  1.0000
  H   H1111     1.0  0.61079  0.26584  0.70552  1.0000
  C   C663      1.0  0.52732  0.06580  0.82756  1.0000
  H   H1112     1.0  0.53394  0.08771  0.79229  1.0000
  H   H1113     1.0  0.64488  0.28705  0.71521  1.0000
  C   C664      1.0  0.91878  0.08355  0.99820  1.0000
  S   S198      1.0  0.67985  0.32170  0.61889  1.0000
  H   H1114     1.0  0.58845  0.26910  0.64122  1.0000
  H   H1115     1.0  0.52195  0.03977  0.74530  1.0000
  N   N46       1.0  0.70911  0.11662  0.67240  1.0000
  C   C665      1.0  0.68486  0.08086  0.65297  1.0000
  H   H1116     1.0  0.57922  0.06153  0.76607  1.0000
  H   H1117     1.0  0.63157  0.17964  0.51218  1.0000
  H   H1118     1.0  0.62332  0.30869  0.70164  1.0000
  C   C666      1.0  0.51949  0.04727  0.76656  1.0000
  C   C667      1.0  0.87564  0.18503  0.71457  1.0000
  H   H1119     1.0  0.92844  0.22815  0.75470  1.0000
  H   H1120     1.0  0.94128  0.22225  0.99627  1.0000
  C   C668      1.0  0.91813  0.21515  0.76720  1.0000
  C   C669      1.0  0.81646  0.13443  0.52959  1.0000
  H   H1121     1.0  0.56610  0.16816  0.50726  1.0000
  H   H1122     1.0  0.93397  0.01727  0.75489  1.0000
  H   H1123     1.0  0.91557  0.25676  0.70939  1.0000
  H   H1124     1.0  0.88538  0.03551  0.73810  1.0000
  C   C670      1.0  0.84388  0.22610  0.73095  1.0000
  S   S199      1.0  0.81575  0.33306  0.60720  1.0000
  H   H1125     1.0  0.54552  0.25071  0.54274  1.0000
  C   C671      1.0  0.58668  0.29883  0.66940  1.0000
  H   H1126     1.0  0.73913  0.07050  0.90789  1.0000
  C   C672      1.0  0.59654  0.23621  0.68352  1.0000
  H   H1127     1.0  0.95073  0.14899  0.97939  1.0000
  C   C673      1.0  0.55085  0.10261  0.96693  1.0000
  H   H1128     1.0  0.64828  0.25011  0.59945  1.0000
  H   H1129     1.0  0.63277  0.24470  0.69555  1.0000
  C   C674      1.0  0.61658  0.25461  0.68778  1.0000
  H   H1130     1.0  0.88154  0.03339  0.79967  1.0000
  H   H1131     1.0  0.57821  0.21366  0.54691  1.0000
  H   H1132     1.0  0.72657  0.14302  0.69799  1.0000
  C   C675      1.0  0.90209  0.03942  0.74971  1.0000
  H   H1133     1.0  0.52935  0.08097  0.84220  1.0000
  H   H1134     1.0  0.86195  0.19109  0.69912  1.0000
  N   N47       1.0  0.55176  0.20370  0.51632  1.0000
  Fe  Fe98      1.0  0.82579  0.32726  0.65169  1.0000
  C   C676      1.0  0.89552  0.22356  0.70845  1.0000
  C   C677      1.0  0.50271  0.02970  0.78180  1.0000
  H   H1135     1.0  0.94057  0.05506  0.82512  1.0000
  H   H1136     1.0  0.75207  0.11624  0.72623  1.0000
  H   H1137     1.0  0.88423  0.26144  0.70741  1.0000
  H   H1138     1.0  0.63444  0.27852  0.60579  1.0000
  H   H1139     1.0  0.69759  0.06945  0.64103  1.0000
  C   C678      1.0  0.88615  0.01410  0.80033  1.0000
  H   H1140     1.0  0.83340  0.21133  0.72188  1.0000
  H   H1141     1.0  0.61839  0.24091  0.63243  1.0000
  H   H1142     1.0  0.90569  0.22448  0.78155  1.0000
  C   C679      1.0  0.69063  0.13584  0.66587  1.0000
  H   H1143     1.0  0.65960  0.15513  0.68235  1.0000
  H   H1144     1.0  0.75979  0.11368  0.69062  1.0000
  H   H1145     1.0  0.53836  0.16952  0.56213  1.0000
  H   H1146     1.0  0.84840  0.14640  0.55007  1.0000
  C   C680      1.0  0.54205  0.07108  0.80125  1.0000
  C   C681      1.0  0.72194  0.12373  0.69879  1.0000
  H   H1147     1.0  0.84886  0.23891  0.71439  1.0000
  C   C682      1.0  0.74540  0.10991  0.70583  1.0000
  H   H1148     1.0  0.69951  0.15199  0.65754  1.0000
  H   H1149     1.0  0.71005  0.12172  0.71723  1.0000
  H   H1150     1.0  0.70769  0.10194  0.61216  1.0000
  H   H1151     1.0  0.91399  0.15895  0.94630  1.0000
  C   C683      1.0  0.57990  0.11664  0.00017  1.0000
  H   H1152     1.0  0.90507  0.17998  0.68416  1.0000
  H   H1153     1.0  0.85950  0.20316  0.76246  1.0000
  H   H1154     1.0  0.66781  0.12949  0.70278  1.0000
  H   H1155     1.0  0.74290  0.09035  0.70761  1.0000
  H   H1156     1.0  0.73795  0.09800  0.65084  1.0000
  H   H1157     1.0  0.53243  0.09977  0.96098  1.0000
  C   C684      1.0  0.72740  0.11504  0.64929  1.0000
  H   H1158     1.0  0.73414  0.11781  0.60496  1.0000
  H   H1159     1.0  0.87199  0.23172  0.76023  1.0000
  C   C685      1.0  0.71832  0.11734  0.61895  1.0000
  H   H1160     1.0  0.93653  0.08075  0.98971  1.0000
  H   H1161     1.0  0.68459  0.09380  0.69524  1.0000
  H   H1162     1.0  0.71103  0.07941  0.68491  1.0000
  H   H1163     1.0  0.91004  0.05595  0.81499  1.0000
  H   H1164     1.0  0.88361  0.22415  0.68990  1.0000
  H   H1165     1.0  0.70818  0.13423  0.61497  1.0000
  H   H1166     1.0  0.67575  0.09358  0.63867  1.0000
  H   H1167     1.0  0.67022  0.06947  0.66098  1.0000
  H   H1168     1.0  0.66303  0.27090  0.62130  1.0000
  H   H1169     1.0  0.60129  0.22249  0.66785  1.0000
  C   C686      1.0  0.83947  0.14399  0.53029  1.0000
  H   H1170     1.0  0.64294  0.30135  0.65325  1.0000
  H   H1171     1.0  0.88768  0.22140  0.50827  1.0000
  H   H1172     1.0  0.80535  0.32526  0.54129  1.0000
  H   H1173     1.0  0.90485  0.15797  0.71225  1.0000
  H   H1174     1.0  0.92032  0.18848  0.73617  1.0000
  H   H1175     1.0  0.91317  0.21717  0.70045  1.0000
  H   H1176     1.0  0.59508  0.24622  0.52713  1.0000
  H   H1177     1.0  0.86610  0.17293  0.72924  1.0000
  C   C687      1.0  0.90562  0.19681  0.74854  1.0000
  H   H1178     1.0  0.59409  0.31715  0.66916  1.0000
  H   H1179     1.0  0.83168  0.23581  0.74538  1.0000
  C   C688      1.0  0.89363  0.16929  0.69819  1.0000
  H   H1180     1.0  0.88354  0.15681  0.68476  1.0000
  H   H1181     1.0  0.93368  0.05656  0.78899  1.0000
  C   C689      1.0  0.55597  0.11287  0.99294  1.0000
  H   H1182     1.0  0.53748  0.20979  0.55773  1.0000
  N   N48       1.0  0.62285  0.26941  0.66255  1.0000
  H   H1183     1.0  0.77387  0.32987  0.53569  1.0000
  H   H1184     1.0  0.58522  0.29231  0.69104  1.0000
  H   H1185     1.0  0.97273  0.17840  0.00534  1.0000
  H   H1186     1.0  0.56659  0.08668  0.72520  1.0000
  H   H1187     1.0  0.59024  0.19915  0.51733  1.0000
  Fe  Fe99      1.0  0.87034  0.01209  0.87696  1.0000
  H   H1188     1.0  0.59356  0.22648  0.70341  1.0000
  C   C690      1.0  0.64075  0.29970  0.69790  1.0000
  H   H1189     1.0  0.60628  0.29319  0.63212  1.0000
  C   C691      1.0  0.60118  0.28201  0.65027  1.0000
  C   C692      1.0  0.63273  0.25238  0.64091  1.0000
  H   H1190     1.0  0.53447  0.16930  0.51159  1.0000
  H   H1191     1.0  0.89813  0.05273  0.76601  1.0000
  H   H1192     1.0  0.55872  0.14752  0.54876  1.0000
  C   C693      1.0  0.53306  0.21406  0.53563  1.0000
  H   H1193     1.0  0.89196  0.13601  0.94893  1.0000
  C   C694      1.0  0.58424  0.23668  0.51139  1.0000
  H   H1194     1.0  0.93370  0.18794  0.97198  1.0000
  H   H1195     1.0  0.57138  0.03369  0.80384  1.0000
  N   N49       1.0  0.92178  0.16382  0.00439  1.0000
  C   C695      1.0  0.56036  0.00877  0.77238  1.0000
  H   H1196     1.0  0.50514  0.02837  0.80456  1.0000
  H   H1197     1.0  0.88543  0.15926  0.98901  1.0000
  H   H1198     1.0  0.50794  0.06481  0.82278  1.0000
  H   H1199     1.0  0.61683  0.11374  0.98707  1.0000
  H   H1200     1.0  0.51532  0.20588  0.53152  1.0000
  S   S200      1.0  0.63164  0.32891  0.55827  1.0000
  C   C696      1.0  0.94543  0.15062  0.00158  1.0000
  C   C697      1.0  0.91454  0.01593  0.75975  1.0000
  H   H1201     1.0  0.94761  0.01673  0.80228  1.0000
  H   H1202     1.0  0.72596  0.32100  0.64609  1.0000
  N   N50       1.0  0.91113  0.00890  0.78986  1.0000
  H   H1203     1.0  0.77265  0.01286  0.86316  1.0000
  H   H1204     1.0  0.52407  0.24836  0.51421  1.0000
  H   H1205     1.0  0.86959  0.31731  0.50745  1.0000
  H   H1206     1.0  0.54542  0.00532  0.75781  1.0000
  H   H1207     1.0  0.89959  0.13251  0.00026  1.0000
  H   H1208     1.0  0.73302  0.00238  0.84305  1.0000
  H   H1209     1.0  0.84832  0.00854  0.79171  1.0000
  H   H1210     1.0  0.57694  0.01244  0.76048  1.0000
  H   H1211     1.0  0.50489  0.04174  0.00569  1.0000
  Fe  Fe100     1.0  0.53939  0.40527  0.04926  1.0000
  H   H1212     1.0  0.57246  0.48081  0.49018  1.0000
  C   C698      1.0  0.56186  0.44364  0.48281  1.0000
  Fe  Fe101     1.0  0.52777  0.38718  0.10822  1.0000
  H   H1213     1.0  0.97881  0.51521  0.07488  1.0000
  S   S201      1.0  0.53161  0.37821  0.15421  1.0000
  Fe  Fe102     1.0  0.51881  0.35536  0.05784  1.0000
  S   S202      1.0  0.55178  0.37299  0.07433  1.0000
  S   S203      1.0  0.51843  0.42130  0.08518  1.0000
  Fe  Fe103     1.0  0.65422  0.36633  0.30303  1.0000
  S   S204      1.0  0.63064  0.39412  0.32358  1.0000
  S   S205      1.0  0.69329  0.36972  0.29225  1.0000
  Fe  Fe104     1.0  0.81125  0.34533  0.37049  1.0000
  H   H1214     1.0  0.00155  0.51753  0.04951  1.0000
  Fe  Fe105     1.0  0.60571  0.38844  0.28703  1.0000
  S   S206      1.0  0.58939  0.41694  0.25854  1.0000
  Fe  Fe106     1.0  0.61264  0.36226  0.34336  1.0000
  H   H1215     1.0  0.60750  0.34750  0.09692  1.0000
  S   S207      1.0  0.63078  0.36326  0.26542  1.0000
  H   H1216     1.0  0.85505  0.42886  0.15818  1.0000
  Fe  Fe107     1.0  0.97189  0.39639  0.14413  1.0000
  S   S208      1.0  0.93444  0.40819  0.13293  1.0000
  H   H1217     1.0  0.63232  0.39125  0.20752  1.0000
  H   H1218     1.0  0.99221  0.47251  0.08598  1.0000
  S   S209      1.0  0.92475  0.35337  0.11175  1.0000
  Fe  Fe108     1.0  0.94020  0.38725  0.09353  1.0000
  S   S210      1.0  0.93449  0.40996  0.05409  1.0000
  Fe  Fe109     1.0  0.92219  0.37372  0.15222  1.0000
  S   S211      1.0  0.88889  0.36660  0.17827  1.0000
  S   S212      1.0  0.97840  0.37652  0.10438  1.0000
  S   S213      1.0  0.95902  0.36348  0.16672  1.0000
  Fe  Fe110     1.0  0.85402  0.36779  0.34023  1.0000
  H   H1219     1.0  0.54982  0.47757  0.46475  1.0000
  S   S214      1.0  0.87030  0.39130  0.30624  1.0000
  Fe  Fe111     1.0  0.85221  0.36518  0.40464  1.0000
  C   C699      1.0  0.91424  0.41101  0.02538  1.0000
  S   S215      1.0  0.85713  0.38636  0.44441  1.0000
  C   C700      1.0  0.61454  0.35532  0.46974  1.0000
  H   H1220     1.0  0.58894  0.33868  0.44254  1.0000
  C   C701      1.0  0.86042  0.37352  0.08823  1.0000
  S   S216      1.0  0.87996  0.35441  0.37302  1.0000
  S   S217      1.0  0.82777  0.38169  0.37239  1.0000
  C   C702      1.0  0.85992  0.37193  0.47717  1.0000
  H   H1221     1.0  0.59488  0.37733  0.18624  1.0000
  H   H1222     1.0  0.80912  0.38965  0.47855  1.0000
  C   C703      1.0  0.99751  0.50941  0.07012  1.0000
  H   H1223     1.0  0.64876  0.36603  0.19470  1.0000
  H   H1224     1.0  0.85198  0.45396  0.03973  1.0000
  C   C704      1.0  0.88576  0.37208  0.21457  1.0000
  C   C705      1.0  0.89886  0.38973  0.22813  1.0000
  C   C706      1.0  0.89420  0.39509  0.25630  1.0000
  C   C707      1.0  0.87689  0.38247  0.27149  1.0000
  C   C708      1.0  0.86433  0.36430  0.25816  1.0000
  H   H1225     1.0  0.85081  0.35459  0.26945  1.0000
  H   H1226     1.0  0.91204  0.39978  0.21669  1.0000
  H   H1227     1.0  0.90392  0.40927  0.26631  1.0000
  C   C709      1.0  0.51261  0.45138  0.15128  1.0000
  H   H1228     1.0  0.65859  0.39226  0.44798  1.0000
  H   H1229     1.0  0.55809  0.37758  0.47785  1.0000
  H   H1230     1.0  0.61042  0.45048  0.47076  1.0000
  C   C710      1.0  0.79354  0.36721  0.44792  1.0000
  C   C711      1.0  0.86852  0.35940  0.22978  1.0000
  C   C712      1.0  0.71502  0.36162  0.31720  1.0000
  C   C713      1.0  0.73933  0.36411  0.31066  1.0000
  C   C714      1.0  0.75715  0.35732  0.32992  1.0000
  H   H1231     1.0  0.89433  0.37988  0.03681  1.0000
  Fe  Fe112     1.0  0.96231  0.34425  0.12573  1.0000
  H   H1232     1.0  0.60688  0.34799  0.48855  1.0000
  H   H1233     1.0  0.74438  0.37134  0.29062  1.0000
  H   H1234     1.0  0.77587  0.35915  0.32466  1.0000
  H   H1235     1.0  0.84270  0.36920  0.09715  1.0000
  S   S218      1.0  0.50781  0.38680  0.03053  1.0000
  C   C715      1.0  0.61373  0.35997  0.41902  1.0000
  C   C716      1.0  0.63302  0.37782  0.19053  1.0000
  C   C717      1.0  0.58692  0.43075  0.42584  1.0000
  C   C718      1.0  0.63369  0.37472  0.42069  1.0000
  H   H1236     1.0  0.59384  0.39292  0.50068  1.0000
  H   H1237     1.0  0.64099  0.38250  0.40192  1.0000
  C   C719      1.0  0.54707  0.39044  0.18285  1.0000
  C   C720      1.0  0.55936  0.41206  0.18137  1.0000
  C   C721      1.0  0.57184  0.42040  0.20490  1.0000
  C   C722      1.0  0.57277  0.40682  0.22964  1.0000
  C   C723      1.0  0.56044  0.38527  0.23099  1.0000
  C   C724      1.0  0.54731  0.37739  0.20790  1.0000
  H   H1238     1.0  0.55953  0.42218  0.16215  1.0000
  H   H1239     1.0  0.58135  0.43711  0.20376  1.0000
  H   H1240     1.0  0.56085  0.37477  0.24997  1.0000
  C   C725      1.0  0.56685  0.46939  0.47255  1.0000
  H   H1241     1.0  0.79891  0.33698  0.49308  1.0000
  H   H1242     1.0  0.54519  0.43757  0.47240  1.0000
  H   H1243     1.0  0.88115  0.44676  0.16047  1.0000
  N   N51       1.0  0.89903  0.43195  0.38524  1.0000
  C   C726      1.0  0.90736  0.41536  0.40835  1.0000
  C   C727      1.0  0.90134  0.41849  0.35825  1.0000
  C   C728      1.0  0.87299  0.43853  0.39057  1.0000
  C   C729      1.0  0.91455  0.45379  0.38574  1.0000
  C   C730      1.0  0.90490  0.42523  0.43821  1.0000
  C   C731      1.0  0.92659  0.40912  0.35059  1.0000
  C   C732      1.0  0.85680  0.44362  0.36498  1.0000
  C   C733      1.0  0.91091  0.47186  0.36180  1.0000
  H   H1244     1.0  0.89746  0.39819  0.40754  1.0000
  H   H1245     1.0  0.92661  0.41040  0.40602  1.0000
  H   H1246     1.0  0.89509  0.42941  0.34021  1.0000
  H   H1247     1.0  0.88940  0.40277  0.35868  1.0000
  H   H1248     1.0  0.86377  0.42378  0.40180  1.0000
  H   H1249     1.0  0.87149  0.45429  0.40456  1.0000
  H   H1250     1.0  0.91163  0.46406  0.40524  1.0000
  H   H1251     1.0  0.93384  0.44846  0.38596  1.0000
  H   H1252     1.0  0.88646  0.43152  0.44302  1.0000
  H   H1253     1.0  0.90915  0.41056  0.45324  1.0000
  H   H1254     1.0  0.91777  0.43973  0.44225  1.0000
  H   H1255     1.0  0.93266  0.39438  0.36458  1.0000
  H   H1256     1.0  0.92579  0.40135  0.32935  1.0000
  H   H1257     1.0  0.93997  0.42354  0.34997  1.0000
  H   H1258     1.0  0.85323  0.42691  0.35336  1.0000
  H   H1259     1.0  0.86416  0.45690  0.35036  1.0000
  H   H1260     1.0  0.83914  0.45059  0.37216  1.0000
  H   H1261     1.0  0.91433  0.46381  0.34113  1.0000
  H   H1262     1.0  0.92397  0.48652  0.36424  1.0000
  H   H1263     1.0  0.89288  0.48030  0.36241  1.0000
  N   N52       1.0  0.85981  0.41885  0.09989  1.0000
  C   C734      1.0  0.87311  0.43637  0.11790  1.0000
  C   C735      1.0  0.86289  0.42701  0.07014  1.0000
  C   C736      1.0  0.87186  0.39467  0.10348  1.0000
  C   C737      1.0  0.83399  0.41829  0.10909  1.0000
  C   C738      1.0  0.87325  0.43126  0.14957  1.0000
  C   C739      1.0  0.85203  0.45179  0.06275  1.0000
  H   H1264     1.0  0.74351  0.38327  0.45833  1.0000
  C   C740      1.0  0.81535  0.40921  0.08778  1.0000
  H   H1265     1.0  0.89215  0.43770  0.11114  1.0000
  H   H1266     1.0  0.86530  0.45469  0.11563  1.0000
  H   H1267     1.0  0.85560  0.41417  0.05500  1.0000
  H   H1268     1.0  0.88230  0.42775  0.06493  1.0000
  H   H1269     1.0  0.89093  0.39551  0.09675  1.0000
  H   H1270     1.0  0.87220  0.38908  0.12567  1.0000
  H   H1271     1.0  0.83232  0.40713  0.12828  1.0000
  H   H1272     1.0  0.82782  0.43660  0.11514  1.0000
  H   H1273     1.0  0.88471  0.41560  0.15515  1.0000
  N   N53       1.0  0.78045  0.37095  0.49931  1.0000
  C   C741      1.0  0.58109  0.41437  0.45066  1.0000
  H   H1274     1.0  0.86312  0.46643  0.07111  1.0000
  H   H1275     1.0  0.73290  0.39201  0.49253  1.0000
  H   H1276     1.0  0.83332  0.45403  0.06994  1.0000
  H   H1277     1.0  0.78022  0.39924  0.46807  1.0000
  S   S219      1.0  0.56463  0.42879  0.02398  1.0000
  H   H1278     1.0  0.75891  0.34396  0.47918  1.0000
  H   H1279     1.0  0.80295  0.39682  0.09848  1.0000
  H   H1280     1.0  0.82272  0.39936  0.06983  1.0000
  H   H1281     1.0  0.80395  0.42428  0.07998  1.0000
  H   H1282     1.0  0.63563  0.38803  0.17097  1.0000
  C   C742      1.0  0.73775  0.37668  0.47902  1.0000
  C   C743      1.0  0.64361  0.38024  0.44684  1.0000
  C   C744      1.0  0.75067  0.34773  0.35567  1.0000
  C   C745      1.0  0.99212  0.55888  0.09604  1.0000
  C   C746      1.0  0.75661  0.35990  0.49278  1.0000
  C   C747      1.0  0.86336  0.34715  0.47945  1.0000
  H   H1283     1.0  0.85815  0.34583  0.21949  1.0000
  S   S220      1.0  0.59859  0.35497  0.38719  1.0000
  H   H1284     1.0  0.53771  0.36075  0.20932  1.0000
  H   H1285     1.0  0.57255  0.44433  0.42226  1.0000
  H   H1286     1.0  0.87195  0.35735  0.09142  1.0000
  H   H1287     1.0  0.62039  0.42162  0.47971  1.0000
  H   H1288     1.0  0.59384  0.39898  0.44966  1.0000
  C   C748      1.0  0.57806  0.40532  0.50018  1.0000
  H   H1289     1.0  0.93044  0.44248  0.00796  1.0000
  S   S221      1.0  0.99614  0.42359  0.16530  1.0000
  H   H1290     1.0  0.85628  0.40492  0.49993  1.0000
  H   H1291     1.0  0.60602  0.35838  0.21215  1.0000
  C   C749      1.0  0.72636  0.34537  0.36232  1.0000
  H   H1292     1.0  0.85904  0.37631  0.06548  1.0000
  H   H1293     1.0  0.57990  0.47088  0.45544  1.0000
  H   H1294     1.0  0.98264  0.47761  0.05100  1.0000
  H   H1295     1.0  0.80074  0.37828  0.43068  1.0000
  H   H1296     1.0  0.86443  0.33636  0.46087  1.0000
  C   C750      1.0  0.55574  0.38980  0.49582  1.0000
  C   C751      1.0  0.79086  0.38299  0.47401  1.0000
  S   S222      1.0  0.58549  0.35937  0.30859  1.0000
  H   H1297     1.0  0.98599  0.51378  0.12235  1.0000
  C   C752      1.0  0.60630  0.43526  0.48465  1.0000
  C   C753      1.0  0.85881  0.38573  0.50150  1.0000
  C   C754      1.0  0.60442  0.35005  0.44362  1.0000
  H   H1298     1.0  0.50519  0.44935  0.20985  1.0000
  C   C755      1.0  0.63389  0.37088  0.47151  1.0000
  H   H1299     1.0  0.97839  0.55550  0.07988  1.0000
  C   C756      1.0  0.60831  0.35477  0.14133  1.0000
  C   C757      1.0  0.89580  0.39457  0.02223  1.0000
  C   C758      1.0  0.70852  0.35236  0.34314  1.0000
  H   H1300     1.0  0.52419  0.45984  0.16715  1.0000
  H   H1301     1.0  0.59475  0.36962  0.13950  1.0000
  H   H1302     1.0  0.60470  0.43915  0.42761  1.0000
  H   H1303     1.0  0.77629  0.36002  0.44049  1.0000
  H   H1304     1.0  0.68980  0.35052  0.34834  1.0000
  N   N54       1.0  0.58175  0.42527  0.47930  1.0000
  C   C759      1.0  0.60931  0.36400  0.19047  1.0000
  N   N55       1.0  0.60773  0.34364  0.17010  1.0000
  H   H1305     1.0  0.51722  0.45993  0.13110  1.0000
  H   H1306     1.0  0.56313  0.40701  0.44597  1.0000
  H   H1307     1.0  0.72104  0.36652  0.47558  1.0000
  H   H1308     1.0  0.56905  0.34420  0.16796  1.0000
  H   H1309     1.0  0.51771  0.43228  0.14965  1.0000
  H   H1310     1.0  0.62595  0.36305  0.13723  1.0000
  H   H1311     1.0  0.53916  0.40075  0.49325  1.0000
  H   H1312     1.0  0.58764  0.41962  0.40673  1.0000
  C   C760      1.0  0.60371  0.33783  0.11666  1.0000
  H   H1313     1.0  0.99577  0.57839  0.09548  1.0000
  C   C761      1.0  0.86625  0.33639  0.50586  1.0000
  S   S223      1.0  0.64501  0.38081  0.50400  1.0000
  H   H1314     1.0  0.80662  0.35238  0.45134  1.0000
  H   H1315     1.0  0.98474  0.55484  0.11688  1.0000
  C   C762      1.0  0.99677  0.48198  0.06641  1.0000
  H   H1316     1.0  0.72131  0.33805  0.38230  1.0000
  S   S224      1.0  0.77249  0.33712  0.37922  1.0000
  H   H1317     1.0  0.55727  0.44543  0.50528  1.0000
  Fe  Fe113     1.0  0.60754  0.49381  0.83103  1.0000
  S   S225      1.0  0.58339  0.46296  0.82182  1.0000
  S   S226      1.0  0.59436  0.53280  0.83381  1.0000
  Fe  Fe114     1.0  0.65037  0.46104  0.84719  1.0000
  S   S227      1.0  0.62806  0.42860  0.83948  1.0000
  S   S228      1.0  0.68687  0.44901  0.86493  1.0000
  Fe  Fe115     1.0  0.61551  0.44661  0.80003  1.0000
  S   S229      1.0  0.61529  0.41889  0.76489  1.0000
  Fe  Fe116     1.0  0.59814  0.44742  0.86175  1.0000
  S   S230      1.0  0.57290  0.42805  0.89141  1.0000
  S   S231      1.0  0.63923  0.47856  0.80662  1.0000
  S   S232      1.0  0.62090  0.47870  0.87211  1.0000
  Fe  Fe117     1.0  0.63157  0.36778  0.54609  1.0000
  H   H1318     1.0  0.61822  0.37846  0.98468  1.0000
  C   C763      1.0  0.95480  0.44189  0.79281  1.0000
  Fe  Fe118     1.0  0.61645  0.38452  0.60545  1.0000
  H   H1319     1.0  0.95663  0.64968  0.80076  1.0000
  S   S233      1.0  0.61198  0.41811  0.63183  1.0000
  C   C764      1.0  0.53570  0.57752  0.83480  1.0000
  H   H1320     1.0  0.96188  0.62385  0.82160  1.0000
  C   C765      1.0  0.86510  0.35018  0.53022  1.0000
  S   S234      1.0  0.65179  0.37931  0.58420  1.0000
  S   S235      1.0  0.59613  0.37682  0.56587  1.0000
  H   H1321     1.0  0.52361  0.53258  0.89946  1.0000
  S   S236      1.0  0.95359  0.60313  0.87641  1.0000
  Fe  Fe119     1.0  0.82713  0.47364  0.87612  1.0000
  S   S237      1.0  0.82838  0.43424  0.88409  1.0000
  S   S238      1.0  0.79180  0.49364  0.86774  1.0000
  Fe  Fe120     1.0  0.88210  0.47692  0.87327  1.0000
  S   S239      1.0  0.88639  0.43698  0.88032  1.0000
  S   S240      1.0  0.91834  0.49497  0.86560  1.0000
  Fe  Fe121     1.0  0.85583  0.43306  0.85009  1.0000
  S   S241      1.0  0.85193  0.40279  0.81880  1.0000
  Fe  Fe122     1.0  0.85880  0.44146  0.91383  1.0000
  S   S242      1.0  0.85884  0.41922  0.95417  1.0000
  S   S243      1.0  0.85344  0.47225  0.84048  1.0000
  S   S244      1.0  0.85564  0.48162  0.90847  1.0000
  Fe  Fe123     1.0  0.84671  0.37670  0.65782  1.0000
  S   S245      1.0  0.80994  0.36242  0.66572  1.0000
  S   S246      1.0  0.86159  0.40524  0.68674  1.0000
  Fe  Fe124     1.0  0.85184  0.34935  0.60231  1.0000
  H   H1322     1.0  0.59005  0.45888  0.98567  1.0000
  H   H1323     1.0  0.91413  0.44549  0.74591  1.0000
  Fe  Fe125     1.0  0.80378  0.36944  0.62034  1.0000
  S   S247      1.0  0.77078  0.38446  0.59989  1.0000
  H   H1324     1.0  0.61706  0.41022  0.98415  1.0000
  S   S248      1.0  0.83915  0.38650  0.61280  1.0000
  H   H1325     1.0  0.66636  0.47335  0.95217  1.0000
  H   H1326     1.0  0.94839  0.55453  0.92501  1.0000
  H   H1327     1.0  0.76560  0.40338  0.83949  1.0000
  H   H1328     1.0  0.53213  0.45941  0.87253  1.0000
  H   H1329     1.0  0.92680  0.57328  0.78258  1.0000
  C   C766      1.0  0.85350  0.40425  0.78203  1.0000
  C   C767      1.0  0.85784  0.42565  0.76786  1.0000
  C   C768      1.0  0.86027  0.42571  0.73866  1.0000
  C   C769      1.0  0.85750  0.40456  0.72329  1.0000
  C   C770      1.0  0.85229  0.38335  0.73743  1.0000
  C   C771      1.0  0.85054  0.38317  0.76667  1.0000
  H   H1330     1.0  0.85930  0.44207  0.77940  1.0000
  H   H1331     1.0  0.86408  0.44225  0.72785  1.0000
  H   H1332     1.0  0.85015  0.36695  0.72586  1.0000
  H   H1333     1.0  0.84701  0.36654  0.77743  1.0000
  N   N56       1.0  0.98404  0.59629  0.77767  1.0000
  H   H1334     1.0  0.50675  0.45530  0.92011  1.0000
  C   C772      1.0  0.88103  0.41605  0.98070  1.0000
  C   C773      1.0  0.89983  0.43214  0.98348  1.0000
  C   C774      1.0  0.92373  0.42810  0.74599  1.0000
  H   H1335     1.0  0.92552  0.52399  0.95219  1.0000
  H   H1336     1.0  0.90150  0.44670  0.96872  1.0000
  C   C775      1.0  0.94412  0.57302  0.87266  1.0000
  C   C776      1.0  0.91967  0.56780  0.87570  1.0000
  C   C777      1.0  0.91144  0.54407  0.87386  1.0000
  C   C778      1.0  0.92757  0.52525  0.86862  1.0000
  C   C779      1.0  0.95202  0.53050  0.86538  1.0000
  C   C780      1.0  0.96028  0.55418  0.86752  1.0000
  H   H1337     1.0  0.90698  0.58219  0.87975  1.0000
  H   H1338     1.0  0.89259  0.54039  0.87635  1.0000
  H   H1339     1.0  0.96469  0.51610  0.86138  1.0000
  H   H1340     1.0  0.97914  0.55780  0.86546  1.0000
  H   H1341     1.0  0.95224  0.59187  0.75240  1.0000
  H   H1342     1.0  0.62303  0.39219  0.88314  1.0000
  C   C781      1.0  0.72743  0.36689  0.58529  1.0000
  C   C782      1.0  0.74698  0.36472  0.60336  1.0000
  C   C783      1.0  0.70751  0.35234  0.58892  1.0000
  H   H1343     1.0  0.62771  0.45422  0.51515  1.0000
  H   H1344     1.0  0.68501  0.34535  0.68039  1.0000
  H   H1345     1.0  0.72758  0.37993  0.56858  1.0000
  H   H1346     1.0  0.57076  0.57543  0.85394  1.0000
  H   H1347     1.0  0.94676  0.58306  0.97543  1.0000
  C   C784      1.0  0.97770  0.60460  0.97695  1.0000
  H   H1348     1.0  0.79455  0.41369  0.55000  1.0000
  C   C785      1.0  0.96508  0.45737  0.81639  1.0000
  H   H1349     1.0  0.56315  0.53530  0.89665  1.0000
  C   C786      1.0  0.71568  0.46221  0.86605  1.0000
  C   C787      1.0  0.73482  0.44913  0.87815  1.0000
  C   C788      1.0  0.75820  0.45842  0.87881  1.0000
  C   C789      1.0  0.76267  0.48109  0.86762  1.0000
  C   C790      1.0  0.74346  0.49428  0.85583  1.0000
  C   C791      1.0  0.72012  0.48490  0.85494  1.0000
  H   H1350     1.0  0.73162  0.43159  0.88688  1.0000
  H   H1351     1.0  0.77271  0.44812  0.88813  1.0000
  H   H1352     1.0  0.74665  0.51189  0.84729  1.0000
  H   H1353     1.0  0.70559  0.49524  0.84568  1.0000
  C   C792      1.0  0.61335  0.41952  0.72792  1.0000
  C   C793      1.0  0.61183  0.39764  0.71366  1.0000
  C   C794      1.0  0.61100  0.39693  0.68434  1.0000
  C   C795      1.0  0.61181  0.41817  0.66884  1.0000
  C   C796      1.0  0.61322  0.44007  0.68306  1.0000
  C   C797      1.0  0.61403  0.44078  0.71243  1.0000
  H   H1354     1.0  0.61126  0.38110  0.72544  1.0000
  H   H1355     1.0  0.60982  0.37997  0.67377  1.0000
  H   H1356     1.0  0.61376  0.45661  0.67129  1.0000
  H   H1357     1.0  0.61519  0.45773  0.72307  1.0000
  C   C798      1.0  0.55546  0.41295  0.94175  1.0000
  C   C799      1.0  0.57030  0.42941  0.92820  1.0000
  C   C800      1.0  0.58258  0.44616  0.94417  1.0000
  C   C801      1.0  0.95662  0.54568  0.94354  1.0000
  H   H1358     1.0  0.54584  0.39996  0.92960  1.0000
  H   H1359     1.0  0.59387  0.45911  0.93402  1.0000
  C   C802      1.0  0.55621  0.49845  0.88242  1.0000
  H   H1360     1.0  0.51214  0.46674  0.82759  1.0000
  C   C803      1.0  0.99885  0.60431  0.72729  1.0000
  C   C804      1.0  0.55832  0.56673  0.84013  1.0000
  C   C805      1.0  0.56516  0.54506  0.82736  1.0000
  C   C806      1.0  0.54894  0.53417  0.80935  1.0000
  C   C807      1.0  0.52648  0.54514  0.80370  1.0000
  H   H1361     1.0  0.90072  0.40331  0.83659  1.0000
  H   H1362     1.0  0.55404  0.51773  0.79902  1.0000
  H   H1363     1.0  0.61385  0.42828  0.52897  1.0000
  N   N57       1.0  0.69184  0.40701  0.66904  1.0000
  C   C808      1.0  0.67934  0.40903  0.64122  1.0000
  C   C809      1.0  0.69872  0.38108  0.67366  1.0000
  C   C810      1.0  0.71409  0.42187  0.66984  1.0000
  C   C811      1.0  0.67498  0.41595  0.69121  1.0000
  C   C812      1.0  0.67438  0.43463  0.63022  1.0000
  C   C813      1.0  0.67784  0.36399  0.67946  1.0000
  C   C814      1.0  0.73308  0.41576  0.64763  1.0000
  C   C815      1.0  0.68423  0.41449  0.72152  1.0000
  H   H1364     1.0  0.68951  0.39928  0.62479  1.0000
  H   H1365     1.0  0.66164  0.40019  0.64204  1.0000
  H   H1366     1.0  0.71200  0.37889  0.69080  1.0000
  H   H1367     1.0  0.70814  0.37387  0.65508  1.0000
  H   H1368     1.0  0.70955  0.44129  0.66816  1.0000
  H   H1369     1.0  0.72328  0.41984  0.69032  1.0000
  H   H1370     1.0  0.67009  0.43508  0.68761  1.0000
  H   H1371     1.0  0.65752  0.40687  0.69013  1.0000
  H   H1372     1.0  0.69107  0.44446  0.62599  1.0000
  H   H1373     1.0  0.66464  0.43339  0.61009  1.0000
  H   H1374     1.0  0.66257  0.44510  0.64427  1.0000
  C   C816      1.0  0.96279  0.58186  0.76849  1.0000
  H   H1375     1.0  0.95576  0.59368  0.94223  1.0000
  H   H1376     1.0  0.91450  0.41668  0.73052  1.0000
  H   H1377     1.0  0.74109  0.39772  0.65121  1.0000
  H   H1378     1.0  0.74796  0.42868  0.64905  1.0000
  H   H1379     1.0  0.72593  0.41696  0.62613  1.0000
  H   H1380     1.0  0.69321  0.43133  0.72742  1.0000
  H   H1381     1.0  0.69666  0.39927  0.72543  1.0000
  H   H1382     1.0  0.66880  0.41168  0.73574  1.0000
  S   S249      1.0  0.87000  0.33612  0.56289  1.0000
  C   C817      1.0  0.99448  0.56647  0.93520  1.0000
  H   H1383     1.0  0.90157  0.48377  0.80677  1.0000
  C   C818      1.0  0.64760  0.39403  0.96143  1.0000
  H   H1384     1.0  0.86051  0.38572  0.54652  1.0000
  C   C819      1.0  0.79131  0.33902  0.53659  1.0000
  Fe  Fe126     1.0  0.99179  0.61748  0.87687  1.0000
  H   H1385     1.0  0.58888  0.51658  0.89426  1.0000
  C   C820      1.0  0.93576  0.53834  0.96263  1.0000
  C   C821      1.0  0.51976  0.56697  0.81619  1.0000
  H   H1386     1.0  0.54210  0.39971  0.98105  1.0000
  C   C822      1.0  0.56583  0.42921  0.98701  1.0000
  H   H1387     1.0  0.98055  0.51584  0.99992  1.0000
  H   H1388     1.0  0.52975  0.50357  0.93323  1.0000
  H   H1389     1.0  0.94926  0.55510  0.79825  1.0000
  H   H1390     1.0  0.54395  0.47590  0.92506  1.0000
  C   C823      1.0  0.61096  0.44375  0.51466  1.0000
  C   C824      1.0  0.56972  0.51674  0.90040  1.0000
  H   H1391     1.0  0.52237  0.52710  0.86383  1.0000
  C   C825      1.0  0.77678  0.38949  0.52165  1.0000
  H   H1392     1.0  0.65334  0.38409  0.89129  1.0000
  C   C826      1.0  0.50618  0.47382  0.92842  1.0000
  H   H1393     1.0  0.94189  0.53113  0.98296  1.0000
  C   C827      1.0  0.58033  0.44604  0.97343  1.0000
  H   H1394     1.0  0.92276  0.47638  0.78132  1.0000
  C   C828      1.0  0.55326  0.41279  0.97095  1.0000
  H   H1395     1.0  0.55865  0.50426  0.86056  1.0000
  H   H1396     1.0  0.65151  0.37595  0.95281  1.0000
  C   C829      1.0  0.95796  0.62983  0.80009  1.0000
  C   C830      1.0  0.86112  0.37489  0.52793  1.0000
  C   C831      1.0  0.91621  0.42969  0.00578  1.0000
  H   H1397     1.0  0.65872  0.39502  0.98061  1.0000
  H   H1398     1.0  0.96636  0.62090  0.97989  1.0000
  H   H1399     1.0  0.81032  0.40999  0.51804  1.0000
  H   H1400     1.0  0.96452  0.52896  0.93517  1.0000
  H   H1401     1.0  0.61989  0.41997  0.92156  1.0000
  H   H1402     1.0  0.93443  0.39879  0.77196  1.0000
  C   C832      1.0  0.94517  0.57376  0.79148  1.0000
  H   H1403     1.0  0.95347  0.40050  0.81740  1.0000
  S   S250      1.0  0.86321  0.34078  0.64660  1.0000
  N   N58       1.0  0.93176  0.42934  0.79948  1.0000
  H   H1404     1.0  0.95214  0.47135  0.82336  1.0000
  H   H1405     1.0  0.70112  0.43317  0.95683  1.0000
  H   H1406     1.0  0.94402  0.58540  0.80995  1.0000
  H   H1407     1.0  0.92286  0.55334  0.96587  1.0000
  H   H1408     1.0  0.51439  0.53681  0.78919  1.0000
  C   C833      1.0  0.63821  0.41380  0.91600  1.0000
  C   C834      1.0  0.78382  0.40224  0.83040  1.0000
  C   C835      1.0  0.69966  0.41370  0.95283  1.0000
  H   H1409     1.0  0.89242  0.46648  0.77742  1.0000
  N   N59       1.0  0.65442  0.41343  0.94109  1.0000
  H   H1410     1.0  0.66421  0.36454  0.66264  1.0000
  C   C836      1.0  0.67974  0.40849  0.93152  1.0000
  C   C837      1.0  0.65215  0.43724  0.95547  1.0000
  C   C838      1.0  0.62126  0.39435  0.97123  1.0000
  H   H1411     1.0  0.57657  0.41250  0.52168  1.0000
  C   C839      1.0  0.65932  0.45936  0.93815  1.0000
  C   C840      1.0  0.96269  0.58549  0.96199  1.0000
  H   H1412     1.0  0.60829  0.39328  0.95381  1.0000
  H   H1413     1.0  0.97104  0.44643  0.83450  1.0000
  H   H1414     1.0  0.63326  0.44074  0.96170  1.0000
  H   H1415     1.0  0.66203  0.43737  0.97562  1.0000
  H   H1416     1.0  0.50703  0.49769  0.83489  1.0000
  H   H1417     1.0  0.64440  0.42720  0.90044  1.0000
  H   H1418     1.0  0.95304  0.45375  0.77437  1.0000
  H   H1419     1.0  0.96891  0.42857  0.78679  1.0000
  H   H1420     1.0  0.90469  0.40916  0.77771  1.0000
  H   H1421     1.0  0.64364  0.46679  0.92659  1.0000
  H   H1422     1.0  0.67381  0.45567  0.92310  1.0000
  H   H1423     1.0  0.76210  0.34563  0.63851  1.0000
  H   H1424     1.0  0.94230  0.43033  0.73835  1.0000
  H   H1425     1.0  0.94017  0.62346  0.79332  1.0000
  H   H1426     1.0  0.50628  0.47204  0.95147  1.0000
  H   H1427     1.0  0.76623  0.38214  0.53925  1.0000
  C   C841      1.0  0.52082  0.47595  0.87029  1.0000
  H   H1428     1.0  0.79044  0.38357  0.83355  1.0000
  H   H1429     1.0  0.79612  0.41379  0.84219  1.0000
  C   C842      1.0  0.92333  0.41538  0.77454  1.0000
  C   C843      1.0  0.91239  0.44624  0.80969  1.0000
  C   C844      1.0  0.91726  0.39392  0.82992  1.0000
  C   C845      1.0  0.90719  0.46918  0.79246  1.0000
  H   H1430     1.0  0.91311  0.38164  0.81257  1.0000
  H   H1431     1.0  0.89504  0.43684  0.81143  1.0000
  H   H1432     1.0  0.91596  0.45195  0.83144  1.0000
  H   H1433     1.0  0.68396  0.41864  0.91224  1.0000
  H   H1434     1.0  0.62881  0.37544  0.91388  1.0000
  H   H1435     1.0  0.99334  0.61031  0.96470  1.0000
  H   H1436     1.0  0.53093  0.59438  0.84444  1.0000
  H   H1437     1.0  0.69283  0.35355  0.57434  1.0000
  H   H1438     1.0  0.00219  0.56201  0.98853  1.0000
  C   C846      1.0  0.93732  0.41158  0.82256  1.0000
  H   H1439     1.0  0.56922  0.51233  0.92289  1.0000
  C   C847      1.0  0.99196  0.52502  0.98439  1.0000
  N   N60       1.0  0.97512  0.56177  0.95630  1.0000
  H   H1440     1.0  0.71716  0.40774  0.94410  1.0000
  C   C848      1.0  0.52847  0.48778  0.91931  1.0000
  H   H1441     1.0  0.98657  0.57462  0.91600  1.0000
  S   S251      1.0  0.61501  0.34681  0.62140  1.0000
  N   N61       1.0  0.77573  0.43304  0.79081  1.0000
  C   C849      1.0  0.78402  0.40809  0.79895  1.0000
  C   C850      1.0  0.77442  0.43390  0.75946  1.0000
  C   C851      1.0  0.75109  0.43709  0.80305  1.0000
  C   C852      1.0  0.79345  0.45046  0.80260  1.0000
  C   C853      1.0  0.63602  0.38983  0.90052  1.0000
  C   C854      1.0  0.79839  0.43030  0.74410  1.0000
  C   C855      1.0  0.73497  0.45663  0.78959  1.0000
  C   C856      1.0  0.79090  0.47689  0.79355  1.0000
  H   H1442     1.0  0.77290  0.39436  0.78849  1.0000
  H   H1443     1.0  0.80271  0.40457  0.79202  1.0000
  H   H1444     1.0  0.76683  0.45109  0.75168  1.0000
  H   H1445     1.0  0.76188  0.42008  0.75173  1.0000
  H   H1446     1.0  0.74043  0.42039  0.80218  1.0000
  H   H1447     1.0  0.75248  0.44154  0.82546  1.0000
  H   H1448     1.0  0.66918  0.36773  0.69976  1.0000
  H   H1449     1.0  0.81230  0.44454  0.79874  1.0000
  C   C857      1.0  0.74690  0.34747  0.62461  1.0000
  H   H1450     1.0  0.94166  0.42092  0.84230  1.0000
  C   C858      1.0  0.79975  0.40037  0.53393  1.0000
  H   H1451     1.0  0.79541  0.43262  0.72137  1.0000
  H   H1452     1.0  0.81170  0.44377  0.75035  1.0000
  H   H1453     1.0  0.80589  0.41199  0.74703  1.0000
  H   H1454     1.0  0.71855  0.45889  0.80242  1.0000
  H   H1455     1.0  0.72880  0.45130  0.76859  1.0000
  H   H1456     1.0  0.74358  0.47427  0.78861  1.0000
  H   H1457     1.0  0.77856  0.48682  0.80758  1.0000
  H   H1458     1.0  0.78513  0.47955  0.77177  1.0000
  H   H1459     1.0  0.80874  0.48538  0.79485  1.0000
  H   H1460     1.0  0.79119  0.35162  0.55429  1.0000
  H   H1461     1.0  0.92320  0.38257  0.84777  1.0000
  C   C859      1.0  0.98560  0.55212  0.98315  1.0000
  H   H1462     1.0  0.56609  0.48103  0.88431  1.0000
  H   H1463     1.0  0.98368  0.59866  0.99793  1.0000
  H   H1464     1.0  0.99047  0.51538  0.96450  1.0000
  N   N62       1.0  0.53002  0.49536  0.88910  1.0000
  H   H1465     1.0  0.68204  0.38941  0.92535  1.0000
  C   C860      1.0  0.70657  0.33640  0.61136  1.0000
  H   H1466     1.0  0.79241  0.45072  0.82572  1.0000
  H   H1467     1.0  0.51050  0.55993  0.71622  1.0000
  Fe  Fe127     1.0  0.59756  0.33844  0.58047  1.0000
  H   H1468     1.0  0.69710  0.40395  0.97270  1.0000
  H   H1469     1.0  0.98112  0.46679  0.80858  1.0000
  H   H1470     1.0  0.99964  0.53035  0.91670  1.0000
  Fe  Fe128     1.0  0.64914  0.34103  0.59773  1.0000
  H   H1471     1.0  0.53705  0.48596  0.82992  1.0000
  C   C861      1.0  0.97769  0.62259  0.77935  1.0000
  H   H1472     1.0  0.86475  0.38465  0.99817  1.0000
  H   H1473     1.0  0.81127  0.38686  0.54463  1.0000
  H   H1474     1.0  0.97297  0.55566  0.00063  1.0000
  H   H1475     1.0  0.98102  0.58933  0.82234  1.0000
  H   H1476     1.0  0.96909  0.56506  0.75828  1.0000
  C   C862      1.0  0.51739  0.51908  0.88427  1.0000
  C   C863      1.0  0.51933  0.48230  0.83903  1.0000
  C   C864      1.0  0.87914  0.39727  0.00022  1.0000
  H   H1477     1.0  0.81597  0.35841  0.51084  1.0000
  H   H1478     1.0  0.55334  0.37818  0.51443  1.0000
  C   C865      1.0  0.99420  0.58800  0.80525  1.0000
  H   H1479     1.0  0.97116  0.62955  0.75895  1.0000
  H   H1480     1.0  0.99219  0.54918  0.79653  1.0000
  H   H1481     1.0  0.98120  0.59908  0.71886  1.0000
  H   H1482     1.0  0.59624  0.45531  0.52260  1.0000
  H   H1483     1.0  0.74810  0.35304  0.51210  1.0000
  H   H1484     1.0  0.76589  0.40487  0.51362  1.0000
  H   H1485     1.0  0.99395  0.63308  0.78449  1.0000
  H   H1486     1.0  0.00033  0.62412  0.72749  1.0000
  C   C866      1.0  0.79755  0.35143  0.50884  1.0000
  H   H1487     1.0  0.98565  0.91634  0.01353  1.0000
  H   H1488     1.0  0.98414  0.94844  0.00807  1.0000
  C   C867      1.0  0.99583  0.93230  0.00704  1.0000
  C   C868      1.0  0.91533  0.98219  0.79274  1.0000
  H   H1489     1.0  0.90759  0.00165  0.74591  1.0000
  H   H1490     1.0  0.51951  0.98468  0.88059  1.0000
  C   C869      1.0  0.95576  0.90464  0.93324  1.0000
  H   H1491     1.0  0.96624  0.90639  0.97569  1.0000
  C   C870      1.0  0.91340  0.96189  0.86743  1.0000
  C   C871      1.0  0.91692  0.93733  0.86216  1.0000
  C   C872      1.0  0.94014  0.92743  0.85872  1.0000
  C   C873      1.0  0.96017  0.94210  0.85994  1.0000
  C   C874      1.0  0.95674  0.96657  0.86586  1.0000
  C   C875      1.0  0.93355  0.97635  0.86999  1.0000
  H   H1492     1.0  0.90151  0.92594  0.86011  1.0000
  H   H1493     1.0  0.94240  0.90862  0.85399  1.0000
  H   H1494     1.0  0.97209  0.97811  0.86694  1.0000
  H   H1495     1.0  0.63527  0.98163  0.81429  1.0000
  H   H1496     1.0  0.57773  0.96900  0.82524  1.0000
  H   H1497     1.0  0.93121  0.99517  0.87454  1.0000
  C   C876      1.0  0.52827  0.93546  0.83995  1.0000
  H   H1498     1.0  0.65274  0.99457  0.93659  1.0000
  C   C877      1.0  0.52816  0.97292  0.86575  1.0000
  C   C878      1.0  0.55008  0.97960  0.85382  1.0000
  C   C879      1.0  0.56098  0.96413  0.83470  1.0000
  C   C880      1.0  0.55019  0.94218  0.82791  1.0000
  C   C881      1.0  0.65575  0.98383  0.91748  1.0000
  C   C882      1.0  0.99983  0.73101  0.86562  1.0000
  H   H1499     1.0  0.59244  0.96058  0.88152  1.0000
  H   H1500     1.0  0.98529  0.92419  0.77632  1.0000
  N   N63       1.0  0.63131  0.95851  0.88232  1.0000
  H   H1501     1.0  0.61739  0.98483  0.91113  1.0000
  C   C883      1.0  0.60135  0.92752  0.90227  1.0000
  H   H1502     1.0  0.61495  0.91289  0.90300  1.0000
  S   S252      1.0  0.98940  0.93140  0.85119  1.0000
  C   C884      1.0  0.60709  0.94683  0.88027  1.0000
  H   H1503     1.0  0.62925  0.95863  0.92740  1.0000
  H   H1504     1.0  0.56379  0.99204  0.78437  1.0000
  S   S253      1.0  0.88362  0.97392  0.86759  1.0000
  H   H1505     1.0  0.95323  0.97721  0.80483  1.0000
  C   C885      1.0  0.63222  0.97669  0.85898  1.0000
  C   C886      1.0  0.51729  0.95106  0.85887  1.0000
  C   C887      1.0  0.86588  0.00085  0.78524  1.0000
  H   H1506     1.0  0.68863  0.94296  0.89157  1.0000
  H   H1507     1.0  0.60481  0.93793  0.85985  1.0000
  H   H1508     1.0  0.61588  0.98842  0.85928  1.0000
  H   H1509     1.0  0.94230  0.91943  0.93406  1.0000
  H   H1510     1.0  0.96591  0.95300  0.93176  1.0000
  H   H1511     1.0  0.58405  0.91919  0.89657  1.0000
  H   H1512     1.0  0.68352  0.93843  0.85540  1.0000
  H   H1513     1.0  0.67017  0.97070  0.92264  1.0000
  H   H1514     1.0  0.98729  0.89080  0.95458  1.0000
  H   H1515     1.0  0.65162  0.92897  0.90013  1.0000
  H   H1516     1.0  0.64591  0.92615  0.86411  1.0000
  C   C888      1.0  0.94106  0.97288  0.78732  1.0000
  H   H1517     1.0  0.59864  0.93523  0.92325  1.0000
  H   H1518     1.0  0.99054  0.71512  0.85916  1.0000
  H   H1519     1.0  0.61886  0.95566  0.82321  1.0000
  N   N64       1.0  0.99078  0.92949  0.95354  1.0000
  H   H1520     1.0  0.90362  0.97220  0.77822  1.0000
  H   H1521     1.0  0.94087  0.95302  0.78619  1.0000
  H   H1522     1.0  0.97472  0.75547  0.84560  1.0000
  H   H1523     1.0  0.64706  0.98934  0.86146  1.0000
  H   H1524     1.0  0.86568  0.98166  0.79133  1.0000
  S   S254      1.0  0.99125  0.80335  0.85540  1.0000
  C   C889      1.0  0.67644  0.94781  0.87404  1.0000
  C   C890      1.0  0.65063  0.93945  0.88037  1.0000
  C   C891      1.0  0.98541  0.97572  0.95980  1.0000
  H   H1525     1.0  0.91027  0.97592  0.81388  1.0000
  S   S255      1.0  0.51558  0.90738  0.83095  1.0000
  H   H1526     1.0  0.55881  0.93030  0.81320  1.0000
  C   C892      1.0  0.63221  0.97126  0.90989  1.0000
  H   H1527     1.0  0.65110  0.95578  0.82646  1.0000
  H   H1528     1.0  0.67830  0.96720  0.87016  1.0000
  H   H1529     1.0  0.96271  0.90299  0.91179  1.0000
  C   C893      1.0  0.97436  0.95119  0.95274  1.0000
  H   H1530     1.0  0.94596  0.88786  0.93751  1.0000
  C   C894      1.0  0.63444  0.96646  0.82929  1.0000
  C   C895      1.0  0.97571  0.90726  0.95542  1.0000
  H   H1531     1.0  0.98203  0.98853  0.94240  1.0000
  H   H1532     1.0  0.94837  0.97966  0.76743  1.0000
  H   H1533     1.0  0.99391  0.92446  0.90904  1.0000
  H   H1534     1.0  0.95912  0.94870  0.96738  1.0000
  C   C896      1.0  0.99087  0.75394  0.85802  1.0000
  H   H1535     1.0  0.66207  0.99653  0.90147  1.0000
  H   H1536     1.0  0.97645  0.98356  0.97833  1.0000
  S   S256      1.0  0.00055  0.86769  0.89300  1.0000
